REMARK  Name = ZINC20387707
REMARK  10 active torsions:
REMARK  status: ('A' for Active; 'I' for Inactive)
REMARK    1  A    between atoms: C_1  and  C_2
REMARK    2  A    between atoms: C_2  and  O_3
REMARK    3  A    between atoms: O_3  and  C_4
REMARK    4  A    between atoms: C_7  and  N_10
REMARK    5  A    between atoms: N_10  and  C_11
REMARK    6  A    between atoms: C_11  and  C_12
REMARK    7  A    between atoms: C_25  and  C_28
REMARK    8  A    between atoms: N_30  and  C_31
REMARK    9  A    between atoms: C_36  and  C_41
REMARK   10  A    between atoms: C_38  and  C_40
REMARK                            x       y       z     vdW  Elec       q    Type
REMARK                         _______ _______ _______ _____ _____    ______ ____
ROOT
ATOM      1  C   UNL     1      -9.650   5.215   1.995  0.00  0.00    +0.043 A 
ATOM      2  C   UNL     1     -10.422   6.016   2.758  0.00  0.00    +0.025 A 
ATOM      3  C   UNL     1      -9.645   6.430   3.858  0.00  0.00    +0.020 A 
ATOM      4  C   UNL     1      -8.428   5.863   3.731  0.00  0.00    +0.093 A 
ATOM      5  N   UNL     1      -8.422   5.119   2.585  0.00  0.00    -0.297 N 
ATOM      6  C   UNL     1      -7.342   4.380   2.101  0.00  0.00    +0.202 A 
ATOM      7  N   UNL     1      -7.242   3.632   1.015  0.00  0.00    -0.121 NA
ATOM      8  N   UNL     1      -6.178   3.026   0.715  0.00  0.00    -0.124 NA
ATOM      9  C   UNL     1      -5.095   3.093   1.476  0.00  0.00    +0.186 A 
ATOM     10  S   UNL     1      -5.694   4.173   2.772  0.00  0.00    -0.013 S 
ATOM     11  N   UNL     1      -3.851   2.500   1.313  0.00  0.00    -0.308 N 
ATOM     12  C   UNL     1      -3.812   1.686   0.091  0.00  0.00    +0.108 C 
ATOM     13  C   UNL     1      -2.481   0.935   0.019  0.00  0.00    +0.032 C 
ATOM     14  C   UNL     1      -1.330   1.944   0.019  0.00  0.00    +0.078 C 
ATOM     15  C   UNL     1      -1.421   2.811   1.278  0.00  0.00    +0.032 C 
ATOM     16  C   UNL     1      -2.783   3.508   1.313  0.00  0.00    +0.108 C 
ENDROOT
BRANCH  14  17
ATOM     17  C   UNL     1      -0.014   1.209   0.009  0.00  0.00    +0.216 C 
ATOM     18  O   UNL     1       0.002  -0.004   0.002  0.00  0.00    -0.276 OA
ATOM     19  N   UNL     1       1.143   1.898   0.001  0.00  0.00    -0.312 N 
ATOM     20  H   UNL     1       1.129   2.998   0.007  0.00  0.00    +0.149 HD
BRANCH  19  21
ATOM     21  C   UNL     1       2.422   1.183  -0.015  0.00  0.00    +0.076 C 
ATOM     22  C   UNL     1       2.819   0.817   1.417  0.00  0.00    +0.022 C 
ATOM     23  C   UNL     1       2.959   2.092   2.250  0.00  0.00    +0.002 C 
ATOM     24  C   UNL     1       4.037   2.988   1.634  0.00  0.00    +0.003 C 
ATOM     25  C   UNL     1       3.639   3.354   0.203  0.00  0.00    -0.009 C 
ATOM     26  C   UNL     1       3.499   2.078  -0.630  0.00  0.00    +0.009 C 
ATOM     27  C   UNL     1       3.102   2.445  -2.061  0.00  0.00    +0.009 C 
ATOM     28  C   UNL     1       4.717   4.250  -0.412  0.00  0.00    +0.008 C 
ENDBRANCH  19  21
ENDBRANCH  14  17
BRANCH   1  29
ATOM     29  C   UNL     1     -10.070   4.542   0.714  0.00  0.00    +0.155 C 
BRANCH  29  30
ATOM     30  N   UNL     1      -9.668   5.369  -0.426  0.00  0.00    -0.338 N 
ATOM     31  H   UNL     1      -9.143   6.321  -0.258  0.00  0.00    +0.146 HD
BRANCH  30  35
ATOM     32  C   UNL     1     -10.514   4.114  -4.311  0.00  0.00    +0.121 A 
ATOM     33  C   UNL     1      -9.852   5.315  -4.098  0.00  0.00    +0.047 A 
ATOM     34  C   UNL     1      -9.572   5.731  -2.812  0.00  0.00    +0.026 A 
ATOM     35  C   UNL     1      -9.952   4.948  -1.730  0.00  0.00    +0.028 A 
ATOM     36  C   UNL     1     -10.610   3.743  -1.944  0.00  0.00    +0.026 A 
ATOM     37  C   UNL     1     -10.895   3.331  -3.231  0.00  0.00    +0.047 A 
BRANCH  32  38
ATOM     38  O   UNL     1     -10.789   3.705  -5.578  0.00  0.00    -0.492 OA
BRANCH  38  40
ATOM     39  C   UNL     1     -11.693   2.167  -7.209  0.00  0.00    +0.048 C 
ATOM     40  C   UNL     1     -11.473   2.459  -5.723  0.00  0.00    +0.225 C 
ENDBRANCH  38  40
ENDBRANCH  32  38
ENDBRANCH  30  35
ENDBRANCH  29  30
ENDBRANCH   1  29
TORSDOF 7
