REMARK  Name = ZINC63743411
REMARK  8 active torsions:
REMARK  status: ('A' for Active; 'I' for Inactive)
REMARK    1  A    between atoms: C_1  and  C_2
REMARK    2  A    between atoms: C_2  and  O_3
REMARK    3  A    between atoms: O_3  and  C_4
REMARK    4  A    between atoms: C_4  and  C_6
REMARK    5  A    between atoms: C_13  and  C_15
REMARK    6  A    between atoms: C_15  and  C_16
REMARK    7  A    between atoms: C_24  and  S_26
REMARK    8  A    between atoms: S_26  and  C_27
REMARK                            x       y       z     vdW  Elec       q    Type
REMARK                         _______ _______ _______ _____ _____    ______ ____
ROOT
ATOM      1  C   UNL     1       2.999  -1.575  -8.534  0.00  0.00    -0.019 C 
ATOM      2  C   UNL     1       3.878  -0.586  -8.814  0.00  0.00    +0.000 A 
ATOM      3  C   UNL     1       5.322  -0.445  -8.589  0.00  0.00    +0.010 A 
ATOM      4  C   UNL     1       5.941   0.689  -8.987  0.00  0.00    +0.001 A 
ATOM      5  C   UNL     1       5.240   1.732  -9.609  0.00  0.00    +0.002 A 
ATOM      6  C   UNL     1       3.913   1.676  -9.850  0.00  0.00    +0.026 A 
ATOM      7  C   UNL     1       3.161   0.529  -9.473  0.00  0.00    +0.044 A 
ATOM      8  N   UNL     1       1.888   0.241  -9.595  0.00  0.00    -0.369 N 
ATOM      9  C   UNL     1       1.654  -1.093  -9.033  0.00  0.00    +0.170 C 
ATOM     10  H   UNL     1       1.214   0.813  -9.995  0.00  0.00    +0.161 HD
ENDROOT
BRANCH   1  11
ATOM     11  C   UNL     1       3.299  -2.892  -7.867  0.00  0.00    +0.130 C 
BRANCH  11  18
ATOM     12  C   UNL     1       4.278  -4.319  -3.434  0.00  0.00    +0.115 C 
ATOM     13  C   UNL     1       4.482  -5.754  -3.926  0.00  0.00    +0.018 C 
ATOM     14  C   UNL     1       4.736  -5.746  -5.435  0.00  0.00    +0.020 C 
ATOM     15  C   UNL     1       3.516  -5.157  -6.151  0.00  0.00    +0.108 C 
ATOM     16  N   UNL     1       3.226  -3.835  -5.581  0.00  0.00    -0.300 N 
ATOM     17  C   UNL     1       3.054  -3.714  -4.127  0.00  0.00    +0.122 C 
ATOM     18  C   UNL     1       3.119  -2.752  -6.377  0.00  0.00    +0.220 C 
ATOM     19  O   UNL     1       2.879  -1.666  -5.894  0.00  0.00    -0.275 OA
BRANCH  12  20
ATOM     20  C   UNL     1       4.060  -4.325  -1.942  0.00  0.00    +0.312 C 
ATOM     21  O   UNL     1       4.068  -5.370  -1.335  0.00  0.00    -0.250 OA
BRANCH  20  22
ATOM     22  O   UNL     1       3.857  -3.171  -1.289  0.00  0.00    -0.465 OA
BRANCH  22  24
ATOM     23  C   UNL     1       3.444  -1.845   0.689  0.00  0.00    +0.048 C 
ATOM     24  C   UNL     1       3.658  -3.251   0.124  0.00  0.00    +0.229 C 
ENDBRANCH  22  24
ENDBRANCH  20  22
ENDBRANCH  12  20
ENDBRANCH  11  18
ENDBRANCH   1  11
BRANCH   9  25
ATOM     25  S   UNL     1       1.025  -2.214 -10.313  0.00  0.00    -0.096 S 
BRANCH  25  26
ATOM     26  C   UNL     1      -0.672  -1.768 -10.473  0.00  0.00    +0.013 A 
ATOM     27  C   UNL     1      -1.067  -0.875 -11.463  0.00  0.00    +0.015 A 
ATOM     28  C   UNL     1      -2.397  -0.527 -11.587  0.00  0.00    +0.004 A 
ATOM     29  C   UNL     1      -3.338  -1.065 -10.728  0.00  0.00    +0.038 A 
ATOM     30  C   UNL     1      -2.950  -1.956  -9.741  0.00  0.00    +0.124 A 
ATOM     31  C   UNL     1      -1.619  -2.312  -9.615  0.00  0.00    +0.053 A 
ATOM     32  F   UNL     1      -3.871  -2.480  -8.904  0.00  0.00    -0.205 F 
ENDBRANCH  25  26
ENDBRANCH   9  25
TORSDOF 7
