REMARK  Name = ZINC64468584
REMARK  8 active torsions:
REMARK  status: ('A' for Active; 'I' for Inactive)
REMARK    1  A    between atoms: C_1  and  O_2
REMARK    2  A    between atoms: O_2  and  C_3
REMARK    3  A    between atoms: N_5  and  C_6
REMARK    4  A    between atoms: C_6  and  C_7
REMARK    5  A    between atoms: C_6  and  C_14
REMARK    6  A    between atoms: C_7  and  C_8
REMARK    7  A    between atoms: N_16  and  C_17
REMARK    8  A    between atoms: C_17  and  C_18
REMARK                            x       y       z     vdW  Elec       q    Type
REMARK                         _______ _______ _______ _____ _____    ______ ____
ROOT
ATOM      1  C   UNL     1      -3.279  -2.289   1.275  0.00  0.00    +0.234 C 
ATOM      2  O   UNL     1      -2.997  -1.268   1.867  0.00  0.00    -0.274 OA
ATOM      3  N   UNL     1      -4.293  -3.062   1.710  0.00  0.00    -0.310 N 
ATOM      4  H   UNL     1      -4.518  -3.878   1.236  0.00  0.00    +0.149 HD
ENDROOT
BRANCH   1   5
ATOM      5  C   UNL     1      -2.494  -2.691   0.053  0.00  0.00    +0.166 C 
BRANCH   5   8
ATOM      6  C   UNL     1      -1.155  -0.656   0.041  0.00  0.00    +0.401 C 
ATOM      7  O   UNL     1      -2.186  -0.013   0.029  0.00  0.00    -0.226 OA
ATOM      8  N   UNL     1      -1.201  -2.003   0.054  0.00  0.00    -0.270 N 
ATOM      9  H   UNL     1      -0.378  -2.516   0.064  0.00  0.00    +0.153 HD
BRANCH   6  11
ATOM     10  C   UNL     1       0.008   1.406   0.028  0.00  0.00    +0.282 C 
ATOM     11  O   UNL     1       0.034  -0.023   0.042  0.00  0.00    -0.454 OA
ENDBRANCH   6  11
ENDBRANCH   5   8
BRANCH   5  12
ATOM     12  C   UNL     1      -3.276  -2.306  -1.205  0.00  0.00    +0.067 C 
BRANCH  12  13
ATOM     13  C   UNL     1      -2.551  -2.818  -2.423  0.00  0.00    -0.045 A 
ATOM     14  C   UNL     1      -1.602  -2.028  -3.045  0.00  0.00    +0.004 A 
ATOM     15  C   UNL     1      -0.937  -2.497  -4.162  0.00  0.00    +0.000 A 
ATOM     16  C   UNL     1      -1.221  -3.756  -4.658  0.00  0.00    +0.000 A 
ATOM     17  C   UNL     1      -2.169  -4.546  -4.035  0.00  0.00    +0.000 A 
ATOM     18  C   UNL     1      -2.831  -4.079  -2.915  0.00  0.00    +0.004 A 
ENDBRANCH  12  13
ENDBRANCH   5  12
ENDBRANCH   1   5
BRANCH   3  19
ATOM     19  C   UNL     1      -5.056  -2.671   2.898  0.00  0.00    +0.141 C 
BRANCH  19  20
ATOM     20  C   UNL     1      -6.125  -3.697   3.169  0.00  0.00    -0.014 A 
ATOM     21  C   UNL     1      -7.384  -3.566   2.599  0.00  0.00    +0.010 A 
ATOM     22  C   UNL     1      -8.337  -4.530   2.873  0.00  0.00    +0.042 A 
ATOM     23  C   UNL     1      -8.004  -5.593   3.707  0.00  0.00    +0.099 A 
ATOM     24  N   UNL     1      -6.791  -5.683   4.231  0.00  0.00    -0.349 N 
ATOM     25  C   UNL     1      -5.861  -4.781   3.982  0.00  0.00    +0.089 A 
ATOM     26  N   UNL     1      -8.952  -6.569   3.991  0.00  0.00    -0.317 N 
ATOM     27  C   UNL     1      -8.586  -7.766   4.761  0.00  0.00    +0.106 C 
ATOM     28  C   UNL     1      -9.544  -7.901   5.948  0.00  0.00    +0.019 C 
ATOM     29  C   UNL     1     -10.987  -7.899   5.437  0.00  0.00    +0.003 C 
ATOM     30  C   UNL     1     -11.277  -6.573   4.731  0.00  0.00    +0.019 C 
ATOM     31  C   UNL     1     -10.340  -6.420   3.534  0.00  0.00    +0.106 C 
ATOM     32  H   UNL     1      -6.581  -6.432   4.810  0.00  0.00    +0.167 HD
ENDBRANCH  19  20
ENDBRANCH   3  19
TORSDOF 7
