REMARK  Name = ZINC14580117
REMARK  11 active torsions:
REMARK  status: ('A' for Active; 'I' for Inactive)
REMARK    1  A    between atoms: C_1  and  C_2
REMARK    2  A    between atoms: C_2  and  C_3
REMARK    3  A    between atoms: C_3  and  N_4
REMARK    4  A    between atoms: N_4  and  C_5
REMARK    5  A    between atoms: C_6  and  N_21
REMARK    6  A    between atoms: N_7  and  C_14
REMARK    7  A    between atoms: C_14  and  C_15
REMARK    8  A    between atoms: C_22  and  C_24
REMARK    9  A    between atoms: C_24  and  O_25
REMARK   10  A    between atoms: O_25  and  C_26
REMARK   11  A    between atoms: C_30  and  C_32
REMARK                            x       y       z     vdW  Elec       q    Type
REMARK                         _______ _______ _______ _____ _____    ______ ____
ROOT
ATOM      1  C   UNL     1       0.074   1.425  -0.019  0.00  0.00    +0.140 A 
ATOM      2  C   UNL     1       0.426   2.131  -1.150  0.00  0.00    +0.128 A 
ATOM      3  N   UNL     1       0.417   3.506  -1.114  0.00  0.00    -0.276 N 
ATOM      4  C   UNL     1       0.076   4.155   0.015  0.00  0.00    +0.331 A 
ATOM      5  O   UNL     1       0.077   5.370   0.028  0.00  0.00    -0.246 OA
ATOM      6  N   UNL     1      -0.266   3.483   1.128  0.00  0.00    -0.273 N 
ATOM      7  H   UNL     1      -0.515   3.989   1.954  0.00  0.00    +0.173 HD
ATOM      8  C   UNL     1      -0.277   2.136   1.144  0.00  0.00    +0.277 A 
ATOM      9  O   UNL     1      -0.588   1.536   2.160  0.00  0.00    -0.266 OA
ENDROOT
BRANCH   1  10
ATOM     10  N   UNL     1       0.071   0.014  -0.025  0.00  0.00    -0.261 N 
ATOM     11  C   UNL     1      -1.091  -0.659   0.112  0.00  0.00    +0.258 C 
ATOM     12  O   UNL     1      -2.142  -0.053   0.152  0.00  0.00    -0.272 OA
BRANCH  10  13
ATOM     13  C   UNL     1       1.328  -0.721  -0.182  0.00  0.00    +0.114 C 
BRANCH  13  15
ATOM     14  C   UNL     1       3.187  -1.866   1.033  0.00  0.00    +0.005 C 
ATOM     15  C   UNL     1       1.873  -1.099   1.197  0.00  0.00    +0.016 C 
ENDBRANCH  13  15
ENDBRANCH  10  13
BRANCH  11  16
ATOM     16  C   UNL     1      -1.083  -2.162   0.217  0.00  0.00    +0.325 C 
BRANCH  16  17
ATOM     17  O   UNL     1      -2.424  -2.637   0.355  0.00  0.00    -0.483 OA
BRANCH  17  18
ATOM     18  C   UNL     1      -2.595  -3.981   0.463  0.00  0.00    +0.122 A 
ATOM     19  C   UNL     1      -1.495  -4.826   0.430  0.00  0.00    +0.047 A 
ATOM     20  C   UNL     1      -1.670  -6.191   0.544  0.00  0.00    +0.024 A 
ATOM     21  C   UNL     1      -2.943  -6.717   0.680  0.00  0.00    +0.044 A 
ATOM     22  C   UNL     1      -4.041  -5.877   0.708  0.00  0.00    -0.029 A 
ATOM     23  C   UNL     1      -3.870  -4.511   0.599  0.00  0.00    +0.050 A 
ATOM     24  C   UNL     1      -5.426  -6.453   0.857  0.00  0.00    +0.045 C 
ATOM     25 CL   UNL     1      -3.161  -8.434   0.818  0.00  0.00    -0.083 Cl
ENDBRANCH  17  18
ENDBRANCH  16  17
ENDBRANCH  11  16
ENDBRANCH   1  10
BRANCH   2  26
ATOM     26  N   UNL     1       0.780   1.468  -2.301  0.00  0.00    -0.343 N 
ATOM     27  H   UNL     1       0.833   0.500  -2.307  0.00  0.00    +0.144 HD
ATOM     28  H   UNL     1       0.976   1.970  -3.108  0.00  0.00    +0.144 HD
ENDBRANCH   2  26
BRANCH   3  29
ATOM     29  C   UNL     1       0.785   4.269  -2.309  0.00  0.00    +0.163 C 
BRANCH  29  30
ATOM     30  C   UNL     1       2.270   4.524  -2.305  0.00  0.00    -0.028 A 
ATOM     31  C   UNL     1       2.774   5.665  -1.710  0.00  0.00    +0.005 A 
ATOM     32  C   UNL     1       4.136   5.897  -1.702  0.00  0.00    +0.000 A 
ATOM     33  C   UNL     1       4.995   4.992  -2.297  0.00  0.00    +0.000 A 
ATOM     34  C   UNL     1       4.491   3.852  -2.897  0.00  0.00    +0.000 A 
ATOM     35  C   UNL     1       3.128   3.618  -2.900  0.00  0.00    +0.005 A 
ENDBRANCH  29  30
ENDBRANCH   3  29
TORSDOF 9
