REMARK  Name = ZINC59983557
REMARK  9 active torsions:
REMARK  status: ('A' for Active; 'I' for Inactive)
REMARK    1  A    between atoms: C_1  and  C_2
REMARK    2  A    between atoms: N_7  and  C_9
REMARK    3  A    between atoms: C_9  and  C_10
REMARK    4  A    between atoms: C_9  and  C_11
REMARK    5  A    between atoms: C_9  and  C_12
REMARK    6  A    between atoms: C_12  and  N_13
REMARK    7  A    between atoms: C_14  and  C_16
REMARK    8  A    between atoms: C_20  and  S_22
REMARK    9  A    between atoms: S_22  and  N_25
REMARK                            x       y       z     vdW  Elec       q    Type
REMARK                         _______ _______ _______ _____ _____    ______ ____
ROOT
ATOM      1  N   UNL     1       2.234  -4.377   1.177  0.00  0.00    -0.313 N 
ATOM      2  C   UNL     1       2.304  -5.671   0.808  0.00  0.00    +0.244 C 
ATOM      3  O   UNL     1       1.695  -6.516   1.435  0.00  0.00    -0.270 OA
ATOM      4  H   UNL     1       2.720  -3.702   0.677  0.00  0.00    +0.149 HD
ENDROOT
BRANCH   2   5
ATOM      5  C   UNL     1       3.122  -6.063  -0.359  0.00  0.00    +0.039 A 
ATOM      6  C   UNL     1       3.827  -5.096  -1.078  0.00  0.00    +0.013 A 
ATOM      7  C   UNL     1       4.589  -5.469  -2.166  0.00  0.00    +0.003 A 
ATOM      8  C   UNL     1       4.655  -6.798  -2.546  0.00  0.00    +0.028 A 
ATOM      9  C   UNL     1       3.958  -7.761  -1.838  0.00  0.00    +0.106 A 
ATOM     10  C   UNL     1       3.197  -7.402  -0.744  0.00  0.00    +0.041 A 
BRANCH   9  11
ATOM     11  S   UNL     1       4.048  -9.451  -2.330  0.00  0.00    +0.061 S 
ATOM     12  O   UNL     1       2.874 -10.080  -1.837  0.00  0.00    -0.153 OA
ATOM     13  O   UNL     1       4.394  -9.454  -3.708  0.00  0.00    -0.153 OA
BRANCH  11  14
ATOM     14  N   UNL     1       5.324 -10.129  -1.521  0.00  0.00    -0.177 NA
ATOM     15  C   UNL     1       6.633 -10.089  -2.133  0.00  0.00    +0.109 C 
ATOM     16  C   UNL     1       6.831 -11.343  -3.020  0.00  0.00    +0.017 C 
ATOM     17  C   UNL     1       6.988 -12.542  -2.182  0.00  0.00    +0.001 C 
ATOM     18  C   UNL     1       5.770 -12.873  -1.325  0.00  0.00    +0.001 C 
ATOM     19  C   UNL     1       5.831 -12.082  -0.041  0.00  0.00    +0.017 C 
ATOM     20  C   UNL     1       5.079 -10.745  -0.202  0.00  0.00    +0.109 C 
ENDBRANCH  11  14
ENDBRANCH   9  11
ENDBRANCH   2   5
BRANCH   1  21
ATOM     21  C   UNL     1       1.423  -3.988   2.334  0.00  0.00    +0.092 C 
BRANCH  21  22
ATOM     22  C   UNL     1       1.615  -2.496   2.613  0.00  0.00    -0.055 C 
ATOM     23  C   UNL     1       0.834  -2.107   3.870  0.00  0.00    -0.008 C 
ATOM     24  C   UNL     1       1.102  -1.684   1.423  0.00  0.00    -0.008 C 
BRANCH  22  30
ATOM     25  C   UNL     1       4.901   1.012   3.548  0.00  0.00    +0.005 C 
ATOM     26  C   UNL     1       4.715  -0.476   3.243  0.00  0.00    -0.031 C 
ATOM     27  C   UNL     1       5.305  -1.310   4.384  0.00  0.00    -0.001 C 
ATOM     28  C   UNL     1       5.046  -2.793   4.107  0.00  0.00    -0.018 C 
ATOM     29  C   UNL     1       3.541  -3.020   3.941  0.00  0.00    -0.078 C 
ATOM     30  N   UNL     1       3.043  -2.216   2.818  0.00  0.00    +0.384 N 
ATOM     31  C   UNL     1       3.224  -0.788   3.107  0.00  0.00    -0.075 C 
ATOM     32  H   UNL     1       3.554  -2.455   1.982  0.00  0.00    -0.081 HD
ENDBRANCH  22  30
ENDBRANCH  21  22
ENDBRANCH   1  21
TORSDOF 6
