REMARK  Name = ZINC15946800
REMARK  13 active torsions:
REMARK  status: ('A' for Active; 'I' for Inactive)
REMARK    1  A    between atoms: C_1  and  C_2
REMARK    2  A    between atoms: C_2  and  C_3
REMARK    3  A    between atoms: C_8  and  N_9
REMARK    4  A    between atoms: C_10  and  C_12
REMARK    5  A    between atoms: C_16  and  N_17
REMARK    6  A    between atoms: C_18  and  C_20
REMARK    7  A    between atoms: C_20  and  N_79
REMARK    8  A    between atoms: C_25  and  C_27
REMARK    9  A    between atoms: C_27  and  C_28
REMARK   10  A    between atoms: C_30  and  C_34
REMARK   11  A    between atoms: C_34  and  C_35
REMARK   12  A    between atoms: C_34  and  C_36
REMARK   13  A    between atoms: C_34  and  C_37
REMARK                            x       y       z     vdW  Elec       q    Type
REMARK                         _______ _______ _______ _____ _____    ______ ____
ROOT
ATOM      1  C   UNL     1       0.181   3.245   6.455  0.00  0.00    +0.069 A 
ATOM      2  C   UNL     1       1.338   2.930   7.276  0.00  0.00    -0.023 A 
ATOM      3  C   UNL     1       2.416   2.476   6.601  0.00  0.00    -0.004 A 
ATOM      4  S   UNL     1       1.912   2.455   4.904  0.00  0.00    -0.077 S 
ATOM      5  C   UNL     1       0.295   3.051   5.085  0.00  0.00    +0.084 A 
ATOM      6  C   UNL     1       3.740   2.075   7.176  0.00  0.00    +0.046 C 
ATOM      7  C   UNL     1       3.574   1.901   8.693  0.00  0.00    -0.000 C 
ATOM      8  C   UNL     1       2.830   3.117   9.251  0.00  0.00    +0.009 C 
ATOM      9  C   UNL     1       1.371   3.090   8.791  0.00  0.00    +0.037 C 
ENDROOT
BRANCH   1  11
ATOM     10  N   UNL     1      -1.246   5.074   7.203  0.00  0.00    -0.281 N 
ATOM     11  C   UNL     1      -1.060   3.748   7.051  0.00  0.00    +0.251 C 
ATOM     12  O   UNL     1      -1.923   2.967   7.409  0.00  0.00    -0.270 OA
ATOM     13  H   UNL     1      -0.586   5.698   6.863  0.00  0.00    +0.155 HD
BRANCH  10  19
ATOM     14  C   UNL     1      -2.320   6.691   8.639  0.00  0.00    -0.026 A 
ATOM     15  C   UNL     1      -3.453   7.162   9.274  0.00  0.00    +0.005 A 
ATOM     16  C   UNL     1      -4.654   6.491   9.134  0.00  0.00    +0.000 A 
ATOM     17  C   UNL     1      -4.726   5.351   8.355  0.00  0.00    +0.002 A 
ATOM     18  C   UNL     1      -3.598   4.878   7.713  0.00  0.00    +0.023 A 
ATOM     19  C   UNL     1      -2.390   5.550   7.851  0.00  0.00    +0.037 A 
BRANCH  14  21
ATOM     20  C   UNL     1      -0.823   8.391   7.629  0.00  0.00    +0.009 C 
ATOM     21  C   UNL     1      -1.010   7.419   8.796  0.00  0.00    +0.033 C 
ENDBRANCH  14  21
ENDBRANCH  10  19
ENDBRANCH   1  11
BRANCH   5  22
ATOM     22  N   UNL     1      -0.656   3.276   4.102  0.00  0.00    -0.281 N 
ATOM     23  C   UNL     1      -0.362   3.027   2.810  0.00  0.00    +0.201 C 
ATOM     24  O   UNL     1       0.736   2.608   2.508  0.00  0.00    -0.278 OA
ATOM     25  H   UNL     1      -1.534   3.611   4.343  0.00  0.00    +0.155 HD
BRANCH  23  26
ATOM     26  C   UNL     1      -1.395   3.271   1.741  0.00  0.00    +0.019 C 
BRANCH  26  32
ATOM     27  C   UNL     1      -0.677   1.472   0.288  0.00  0.00    -0.078 C 
ATOM     28  C   UNL     1       0.042   1.160  -1.026  0.00  0.00    -0.019 C 
ATOM     29  C   UNL     1      -0.773   1.720  -2.195  0.00  0.00    -0.003 C 
ATOM     30  C   UNL     1      -0.962   3.227  -1.999  0.00  0.00    -0.015 C 
ATOM     31  C   UNL     1      -1.652   3.480  -0.657  0.00  0.00    -0.068 C 
ATOM     32  N   UNL     1      -0.806   2.939   0.428  0.00  0.00    +0.387 N 
ATOM     33  H   UNL     1       0.127   3.363   0.364  0.00  0.00    -0.081 HD
BRANCH  31  34
ATOM     34  C   UNL     1      -1.825   4.986  -0.448  0.00  0.00    -0.019 C 
ATOM     35  C   UNL     1      -2.700   5.559  -1.564  0.00  0.00    +0.002 C 
ENDBRANCH  31  34
ENDBRANCH  26  32
ENDBRANCH  23  26
ENDBRANCH   5  22
BRANCH   7  36
ATOM     36  C   UNL     1       4.952   1.796   9.350  0.00  0.00    -0.035 C 
ATOM     37  C   UNL     1       4.785   1.640  10.863  0.00  0.00    +0.011 C 
ATOM     38  C   UNL     1       5.694   0.581   8.790  0.00  0.00    +0.011 C 
ATOM     39  C   UNL     1       5.756   3.064   9.054  0.00  0.00    +0.011 C 
ENDBRANCH   7  36
TORSDOF 8
