REMARK  Name = ZINC39571171
REMARK  6 active torsions:
REMARK  status: ('A' for Active; 'I' for Inactive)
REMARK    1  A    between atoms: C_1  and  C_2
REMARK    2  A    between atoms: C_2  and  C_10
REMARK    3  A    between atoms: C_3  and  C_4
REMARK    4  A    between atoms: N_11  and  N_12
REMARK    5  A    between atoms: C_13  and  C_15
REMARK    6  A    between atoms: C_18  and  C_21
REMARK                            x       y       z     vdW  Elec       q    Type
REMARK                         _______ _______ _______ _____ _____    ______ ____
ROOT
ATOM      1  C   UNL     1      -0.535  -0.712  -6.020  0.00  0.00    +0.240 C 
ATOM      2  C   UNL     1      -1.732  -1.601  -6.307  0.00  0.00    +0.041 C 
ATOM      3  C   UNL     1      -2.265  -1.073  -7.427  0.00  0.00    +0.092 C 
ATOM      4  N   UNL     1      -1.542   0.004  -7.834  0.00  0.00    -0.153 NA
ATOM      5  N   UNL     1      -0.571   0.270  -7.116  0.00  0.00    -0.170 NA
ENDROOT
BRANCH   3   6
ATOM      6  C   UNL     1      -3.469  -1.593  -8.117  0.00  0.00    +0.010 A 
ATOM      7  C   UNL     1      -4.076  -2.767  -7.696  0.00  0.00    +0.011 A 
ATOM      8  C   UNL     1      -5.208  -3.280  -8.325  0.00  0.00    +0.005 A 
ATOM      9  C   UNL     1      -5.762  -2.632  -9.390  0.00  0.00    -0.039 A 
ATOM     10  C   UNL     1      -5.167  -1.453  -9.828  0.00  0.00    -0.011 A 
ATOM     11  C   UNL     1      -4.028  -0.901  -9.216  0.00  0.00    -0.008 A 
ATOM     12  C   UNL     1      -3.517   0.296  -9.737  0.00  0.00    +0.009 A 
ATOM     13  C   UNL     1      -4.146   0.872 -10.804  0.00  0.00    +0.001 A 
ATOM     14  C   UNL     1      -5.280   0.309 -11.393  0.00  0.00    +0.004 A 
ATOM     15  C   UNL     1      -5.795  -0.858 -10.918  0.00  0.00    -0.039 A 
ATOM     16  C   UNL     1      -6.972  -1.726 -11.290  0.00  0.00    +0.040 C 
ATOM     17  C   UNL     1      -6.951  -2.896 -10.283  0.00  0.00    +0.040 C 
ENDBRANCH   3   6
BRANCH   1  19
ATOM     18  N   UNL     1      -0.359  -0.677  -3.553  0.00  0.00    -0.205 N 
ATOM     19  C   UNL     1      -0.688  -0.027  -4.687  0.00  0.00    +0.263 C 
ATOM     20  O   UNL     1      -1.107   1.110  -4.634  0.00  0.00    -0.271 OA
ATOM     21  H   UNL     1      -0.024  -1.587  -3.596  0.00  0.00    +0.177 HD
BRANCH  18  23
ATOM     22  C   UNL     1      -0.184  -0.669  -1.218  0.00  0.00    +0.133 C 
ATOM     23  N   UNL     1      -0.501  -0.041  -2.313  0.00  0.00    -0.188 NA
BRANCH  22  25
ATOM     24  C   UNL     1      -0.849   1.388   0.103  0.00  0.00    +0.045 C 
ATOM     25  C   UNL     1      -0.328  -0.025   0.037  0.00  0.00    -0.030 C 
ATOM     26  C   UNL     1       0.002  -0.676   1.171  0.00  0.00    +0.012 C 
BRANCH  26  27
ATOM     27  C   UNL     1       0.008   0.042   2.456  0.00  0.00    -0.025 A 
ATOM     28  C   UNL     1      -0.411  -0.604   3.624  0.00  0.00    +0.008 A 
ATOM     29  C   UNL     1      -0.402   0.075   4.824  0.00  0.00    +0.001 A 
ATOM     30  C   UNL     1       0.021   1.392   4.875  0.00  0.00    +0.000 A 
ATOM     31  C   UNL     1       0.437   2.038   3.724  0.00  0.00    +0.001 A 
ATOM     32  C   UNL     1       0.439   1.371   2.517  0.00  0.00    +0.008 A 
ENDBRANCH  26  27
ENDBRANCH  22  25
ENDBRANCH  18  23
ENDBRANCH   1  19
TORSDOF 5
