REMARK  Name = ZINC14625363
REMARK  11 active torsions:
REMARK  status: ('A' for Active; 'I' for Inactive)
REMARK    1  A    between atoms: C_1  and  C_2
REMARK    2  A    between atoms: C_2  and  C_3
REMARK    3  A    between atoms: C_3  and  C_4
REMARK    4  A    between atoms: C_4  and  N_5
REMARK    5  A    between atoms: C_6  and  N_32
REMARK    6  A    between atoms: C_7  and  N_14
REMARK    7  A    between atoms: N_14  and  C_15
REMARK    8  A    between atoms: C_15  and  C_16
REMARK    9  A    between atoms: C_22  and  C_24
REMARK   10  A    between atoms: C_28  and  C_31
REMARK   11  A    between atoms: C_29  and  C_30
REMARK                            x       y       z     vdW  Elec       q    Type
REMARK                         _______ _______ _______ _____ _____    ______ ____
ROOT
ATOM      1  N   UNL     1      -0.242  -2.559  -2.433  0.00  0.00    -0.256 N 
ATOM      2  C   UNL     1      -0.372  -1.834  -3.562  0.00  0.00    +0.252 C 
ATOM      3  O   UNL     1      -0.326  -0.620  -3.514  0.00  0.00    -0.270 OA
ENDROOT
BRANCH   1   6
ATOM      4  N   UNL     1      -1.085  -0.575   0.542  0.00  0.00    -0.280 N 
ATOM      5  C   UNL     1      -1.214  -1.202  -0.675  0.00  0.00    +0.127 A 
ATOM      6  C   UNL     1      -0.144  -1.909  -1.185  0.00  0.00    +0.140 A 
ATOM      7  C   UNL     1       1.046  -1.974  -0.436  0.00  0.00    +0.277 A 
ATOM      8  O   UNL     1       2.006  -2.595  -0.861  0.00  0.00    -0.266 OA
ATOM      9  N   UNL     1       1.118  -1.345   0.753  0.00  0.00    -0.273 N 
ATOM     10  H   UNL     1       1.963  -1.391   1.286  0.00  0.00    +0.173 HD
ATOM     11  C   UNL     1       0.067  -0.657   1.232  0.00  0.00    +0.331 A 
ATOM     12  O   UNL     1       0.159  -0.099   2.309  0.00  0.00    -0.246 OA
BRANCH   5  13
ATOM     13  N   UNL     1      -2.393  -1.123  -1.377  0.00  0.00    -0.343 N 
ATOM     14  H   UNL     1      -3.101  -0.535  -1.071  0.00  0.00    +0.144 HD
ATOM     15  H   UNL     1      -2.516  -1.654  -2.179  0.00  0.00    +0.144 HD
ENDBRANCH   5  13
BRANCH   4  16
ATOM     16  C   UNL     1      -2.211   0.184   1.093  0.00  0.00    +0.128 C 
BRANCH  16  17
ATOM     17  C   UNL     1      -2.123   1.638   0.627  0.00  0.00    +0.021 C 
BRANCH  17  19
ATOM     18  C   UNL     1      -3.212   3.885   0.735  0.00  0.00    +0.004 C 
ATOM     19  C   UNL     1      -3.299   2.430   1.202  0.00  0.00    -0.002 C 
ENDBRANCH  17  19
ENDBRANCH  16  17
ENDBRANCH   4  16
ENDBRANCH   1   6
BRANCH   2  20
ATOM     20  C   UNL     1      -0.572  -2.515  -4.858  0.00  0.00    +0.040 A 
ATOM     21  C   UNL     1       0.377  -3.428  -5.324  0.00  0.00    +0.013 A 
ATOM     22  C   UNL     1       0.185  -4.060  -6.535  0.00  0.00    +0.001 A 
ATOM     23  C   UNL     1      -0.944  -3.792  -7.288  0.00  0.00    +0.003 A 
ATOM     24  C   UNL     1      -1.888  -2.889  -6.832  0.00  0.00    -0.047 A 
ATOM     25  C   UNL     1      -1.711  -2.254  -5.620  0.00  0.00    -0.035 A 
ATOM     26  C   UNL     1      -2.744  -1.276  -5.122  0.00  0.00    +0.045 C 
ATOM     27  C   UNL     1      -3.116  -2.603  -7.659  0.00  0.00    +0.044 C 
ENDBRANCH   2  20
BRANCH   1  28
ATOM     28  C   UNL     1      -0.204  -4.022  -2.502  0.00  0.00    +0.149 C 
BRANCH  28  29
ATOM     29  C   UNL     1      -1.587  -4.572  -2.268  0.00  0.00    -0.030 A 
ATOM     30  C   UNL     1      -2.042  -4.773  -0.978  0.00  0.00    +0.005 A 
ATOM     31  C   UNL     1      -3.313  -5.273  -0.763  0.00  0.00    +0.000 A 
ATOM     32  C   UNL     1      -4.124  -5.583  -1.838  0.00  0.00    +0.000 A 
ATOM     33  C   UNL     1      -3.667  -5.388  -3.128  0.00  0.00    +0.000 A 
ATOM     34  C   UNL     1      -2.399  -4.882  -3.343  0.00  0.00    +0.005 A 
ENDBRANCH  28  29
ENDBRANCH   1  28
TORSDOF 8
