REMARK  Name = ZINC54939372
REMARK  8 active torsions:
REMARK  status: ('A' for Active; 'I' for Inactive)
REMARK    1  A    between atoms: C_1  and  C_2
REMARK    2  A    between atoms: C_2  and  C_4
REMARK    3  A    between atoms: C_2  and  N_10
REMARK    4  A    between atoms: C_13  and  N_16
REMARK    5  A    between atoms: C_17  and  C_19
REMARK    6  A    between atoms: N_21  and  C_22
REMARK    7  A    between atoms: C_27  and  C_28
REMARK    8  A    between atoms: C_28  and  C_29
REMARK                            x       y       z     vdW  Elec       q    Type
REMARK                         _______ _______ _______ _____ _____    ______ ____
ROOT
ATOM      1  N   UNL     1      -3.510  -3.220  -0.024  0.00  0.00    -0.307 N 
ATOM      2  C   UNL     1      -4.376  -4.069  -0.611  0.00  0.00    +0.299 C 
ATOM      3  O   UNL     1      -4.370  -4.205  -1.817  0.00  0.00    -0.265 OA
ATOM      4  H   UNL     1      -3.515  -3.111   0.939  0.00  0.00    +0.149 HD
ENDROOT
BRANCH   1   8
ATOM      5  N   UNL     1      -1.349  -0.537   0.011  0.00  0.00    +0.385 N 
ATOM      6  C   UNL     1      -2.049  -0.128  -1.234  0.00  0.00    -0.076 C 
ATOM      7  C   UNL     1      -3.207  -1.151  -1.342  0.00  0.00    +0.002 C 
ATOM      8  C   UNL     1      -2.559  -2.462  -0.842  0.00  0.00    +0.055 C 
ATOM      9  C   UNL     1      -1.355  -2.017   0.009  0.00  0.00    -0.056 C 
ATOM     10  H   UNL     1      -1.843  -0.189   0.819  0.00  0.00    -0.081 HD
BRANCH   5  12
ATOM     11  C   UNL     1       0.019   1.493   0.006  0.00  0.00    -0.008 C 
ATOM     12  C   UNL     1       0.032  -0.037   0.004  0.00  0.00    -0.041 C 
BRANCH  12  13
ATOM     13  C   UNL     1       0.753  -0.535   1.230  0.00  0.00    -0.061 A 
ATOM     14  C   UNL     1       0.097  -0.581   2.446  0.00  0.00    +0.002 A 
ATOM     15  C   UNL     1       0.758  -1.038   3.571  0.00  0.00    +0.000 A 
ATOM     16  C   UNL     1       2.075  -1.449   3.479  0.00  0.00    +0.000 A 
ATOM     17  C   UNL     1       2.730  -1.403   2.263  0.00  0.00    +0.000 A 
ATOM     18  C   UNL     1       2.068  -0.950   1.137  0.00  0.00    +0.002 A 
ENDBRANCH  12  13
ENDBRANCH   5  12
ENDBRANCH   1   8
BRANCH   2  19
ATOM     19  C   UNL     1      -5.346  -4.841   0.222  0.00  0.00    +0.303 C 
ATOM     20  O   UNL     1      -5.353  -4.705   1.428  0.00  0.00    -0.265 OA
ATOM     21  N   UNL     1      -6.213  -5.690  -0.365  0.00  0.00    -0.277 N 
ATOM     22  H   UNL     1      -6.262  -5.740  -1.332  0.00  0.00    +0.155 HD
BRANCH  21  23
ATOM     23  C   UNL     1      -7.040  -6.497   0.420  0.00  0.00    +0.037 A 
ATOM     24  C   UNL     1      -6.661  -6.832   1.714  0.00  0.00    +0.023 A 
ATOM     25  C   UNL     1      -7.481  -7.630   2.487  0.00  0.00    +0.002 A 
ATOM     26  C   UNL     1      -8.677  -8.097   1.974  0.00  0.00    +0.000 A 
ATOM     27  C   UNL     1      -9.057  -7.767   0.686  0.00  0.00    +0.006 A 
ATOM     28  C   UNL     1      -8.245  -6.963  -0.090  0.00  0.00    -0.017 A 
BRANCH  28  29
ATOM     29  C   UNL     1      -8.663  -6.598  -1.491  0.00  0.00    +0.132 C 
BRANCH  29  30
ATOM     30  C   UNL     1      -8.043  -7.563  -2.468  0.00  0.00    +0.215 C 
ATOM     31  O   UNL     1      -7.331  -8.459  -2.067  0.00  0.00    -0.276 OA
ATOM     32  N   UNL     1      -8.278  -7.430  -3.788  0.00  0.00    -0.329 N 
ATOM     33  H   UNL     1      -8.847  -6.713  -4.110  0.00  0.00    +0.145 HD
ATOM     34  H   UNL     1      -7.879  -8.051  -4.417  0.00  0.00    +0.145 HD
ENDBRANCH  29  30
ENDBRANCH  28  29
ENDBRANCH  21  23
ENDBRANCH   2  19
TORSDOF 7
