REMARK  Name = ZINC32931543
REMARK  9 active torsions:
REMARK  status: ('A' for Active; 'I' for Inactive)
REMARK    1  A    between atoms: C_1  and  C_2
REMARK    2  A    between atoms: C_3  and  C_21
REMARK    3  A    between atoms: C_6  and  N_20
REMARK    4  A    between atoms: C_7  and  C_11
REMARK    5  A    between atoms: C_13  and  C_16
REMARK    6  A    between atoms: C_16  and  C_17
REMARK    7  A    between atoms: C_16  and  C_18
REMARK    8  A    between atoms: C_16  and  C_19
REMARK    9  A    between atoms: C_21  and  C_23
REMARK                            x       y       z     vdW  Elec       q    Type
REMARK                         _______ _______ _______ _____ _____    ______ ____
ROOT
ATOM      1  C   UNL     1      -0.494   1.456   0.080  0.00  0.00    +0.066 C 
ATOM      2  C   UNL     1      -0.228  -0.027   0.035  0.00  0.00    +0.050 A 
ATOM      3  C   UNL     1       0.129  -0.709   1.210  0.00  0.00    +0.039 A 
ATOM      4  C   UNL     1       0.376  -2.080   1.171  0.00  0.00    +0.025 A 
ATOM      5  C   UNL     1       0.260  -2.759  -0.061  0.00  0.00    +0.030 A 
ATOM      6  C   UNL     1       0.467  -4.173  -0.341  0.00  0.00    +0.054 A 
ATOM      7  C   UNL     1       0.296  -4.617  -1.631  0.00  0.00    +0.100 A 
ATOM      8  S   UNL     1      -0.152  -3.140  -2.521  0.00  0.00    -0.062 S 
ATOM      9  C   UNL     1      -0.105  -1.974  -1.182  0.00  0.00    +0.111 A 
ATOM     10  N   UNL     1      -0.335  -0.678  -1.101  0.00  0.00    -0.244 NA
ENDROOT
BRANCH   7  11
ATOM     11  C   UNL     1       0.445  -5.977  -2.149  0.00  0.00    +0.267 A 
ATOM     12  N   UNL     1       0.267  -6.373  -3.403  0.00  0.00    -0.191 NA
ATOM     13  C   UNL     1       0.515  -7.691  -3.401  0.00  0.00    +0.177 A 
ATOM     14  N   UNL     1       0.818  -8.035  -2.183  0.00  0.00    -0.060 NA
ATOM     15  O   UNL     1       0.785  -7.072  -1.446  0.00  0.00    -0.332 OA
BRANCH  13  16
ATOM     16  C   UNL     1       0.449  -8.609  -4.594  0.00  0.00    +0.025 C 
ATOM     17  C   UNL     1       0.798 -10.034  -4.160  0.00  0.00    +0.019 C 
ATOM     18  C   UNL     1      -0.964  -8.585  -5.179  0.00  0.00    +0.019 C 
ATOM     19  C   UNL     1       1.448  -8.140  -5.654  0.00  0.00    +0.019 C 
ENDBRANCH  13  16
ENDBRANCH   7  11
BRANCH   6  20
ATOM     20  N   UNL     1       0.830  -5.054   0.673  0.00  0.00    -0.356 N 
ATOM     21  H   UNL     1       0.983  -6.120   0.448  0.00  0.00    +0.142 HD
ATOM     22  H   UNL     1       0.964  -4.685   1.701  0.00  0.00    +0.142 HD
ENDBRANCH   6  20
BRANCH   3  23
ATOM     23  C   UNL     1       0.242   0.022   2.478  0.00  0.00    +0.162 C 
ATOM     24  O   UNL     1       0.135   1.230   2.494  0.00  0.00    -0.292 OA
ATOM     25  C   UNL     1       0.491  -0.729   3.761  0.00  0.00    +0.091 C 
ENDBRANCH   3  23
TORSDOF 4
