REMARK  Name = ZINC01788767
REMARK  5 active torsions:
REMARK  status: ('A' for Active; 'I' for Inactive)
REMARK    1  A    between atoms: C_4  and  C_7
REMARK    2  A    between atoms: C_16  and  C_17
REMARK    3  A    between atoms: N_19  and  N_20
REMARK    4  A    between atoms: C_21  and  C_22
REMARK    5  A    between atoms: C_24  and  N_28
REMARK                            x       y       z     vdW  Elec       q    Type
REMARK                         _______ _______ _______ _____ _____    ______ ____
ROOT
ATOM      1  C   UNL     1       0.002  -0.004   0.002  0.00  0.00    +0.020 A 
ATOM      2  C   UNL     1       1.415  -0.401  -0.014  0.00  0.00    +0.009 A 
ATOM      3  C   UNL     1       2.069  -1.635  -0.026  0.00  0.00    +0.026 A 
ATOM      4  C   UNL     1       3.435  -1.680  -0.040  0.00  0.00    +0.019 A 
ATOM      5  C   UNL     1       4.179  -0.507  -0.041  0.00  0.00    +0.017 A 
ATOM      6  C   UNL     1       3.555   0.720  -0.028  0.00  0.00    +0.027 A 
ATOM      7  C   UNL     1       2.163   0.791  -0.014  0.00  0.00    +0.048 A 
ATOM      8  N   UNL     1       1.281   1.846  -0.000  0.00  0.00    -0.350 N 
ATOM      9  H   UNL     1       1.534   2.782   0.002  0.00  0.00    +0.166 HD
ATOM     10  C   UNL     1      -0.017   1.379   0.010  0.00  0.00    +0.112 A 
ATOM     11 BR   UNL     1       4.319  -3.352  -0.057  0.00  0.00    -0.050 Br
ENDROOT
BRANCH   1  15
ATOM     12  C   UNL     1      -3.366  -2.594   0.020  0.00  0.00    +0.000 A 
ATOM     13  C   UNL     1      -3.139  -1.766  -1.065  0.00  0.00    +0.001 A 
ATOM     14  C   UNL     1      -2.047  -0.923  -1.077  0.00  0.00    +0.008 A 
ATOM     15  C   UNL     1      -1.171  -0.906   0.008  0.00  0.00    -0.015 A 
ATOM     16  C   UNL     1      -1.402  -1.747   1.098  0.00  0.00    +0.008 A 
ATOM     17  C   UNL     1      -2.501  -2.581   1.100  0.00  0.00    +0.001 A 
ENDBRANCH   1  15
BRANCH  10  18
ATOM     18  C   UNL     1      -1.222   2.214   0.020  0.00  0.00    +0.280 C 
ATOM     19  O   UNL     1      -2.323   1.694   0.023  0.00  0.00    -0.267 OA
ATOM     20  N   UNL     1      -1.111   3.558   0.027  0.00  0.00    -0.202 N 
ATOM     21  H   UNL     1      -0.234   3.972   0.025  0.00  0.00    +0.178 HD
BRANCH  20  22
ATOM     22  N   UNL     1      -2.263   4.355   0.037  0.00  0.00    -0.187 NA
ATOM     23  C   UNL     1      -2.156   5.649   0.043  0.00  0.00    +0.142 C 
BRANCH  23  24
ATOM     24  C   UNL     1      -3.367   6.489   0.054  0.00  0.00    +0.043 A 
ATOM     25  C   UNL     1      -3.257   7.881   0.067  0.00  0.00    +0.046 A 
ATOM     26  C   UNL     1      -4.394   8.661   0.071  0.00  0.00    +0.127 A 
ATOM     27  C   UNL     1      -5.646   8.069   0.074  0.00  0.00    +0.036 A 
ATOM     28  C   UNL     1      -5.769   6.692   0.067  0.00  0.00    +0.054 A 
ATOM     29  C   UNL     1      -4.636   5.894   0.057  0.00  0.00    +0.188 A 
ATOM     30  O   UNL     1      -4.756   4.541   0.051  0.00  0.00    -0.287 OA
BRANCH  26  31
ATOM     31  N   UNL     1      -4.277  10.136   0.079  0.00  0.00    +0.056 N 
ATOM     32  O   UNL     1      -5.279  10.827   0.088  0.00  0.00    -0.126 OA
ATOM     33  O   UNL     1      -3.177  10.659   0.076  0.00  0.00    -0.126 OA
ENDBRANCH  26  31
ENDBRANCH  23  24
ENDBRANCH  20  22
ENDBRANCH  10  18
TORSDOF 5
