REMARK  Name = ZINC67288024
REMARK  4 active torsions:
REMARK  status: ('A' for Active; 'I' for Inactive)
REMARK    1  A    between atoms: N_4  and  C_6
REMARK    2  A    between atoms: C_9  and  C_13
REMARK    3  A    between atoms: C_10  and  O_12
REMARK    4  A    between atoms: C_18  and  C_21
REMARK                            x       y       z     vdW  Elec       q    Type
REMARK                         _______ _______ _______ _____ _____    ______ ____
ROOT
ATOM      1  C   UNL     1       3.089  -5.771  -0.061  0.00  0.00    +0.250 C 
ATOM      2  O   UNL     1       2.285  -6.681   0.014  0.00  0.00    -0.270 OA
ATOM      3  N   UNL     1       4.404  -6.041  -0.173  0.00  0.00    -0.293 N 
ATOM      4  C   UNL     1       4.894  -7.424  -0.305  0.00  0.00    +0.113 C 
ATOM      5  C   UNL     1       5.597  -7.549  -1.659  0.00  0.00    +0.054 C 
ATOM      6  C   UNL     1       6.511  -6.380  -1.884  0.00  0.00    -0.039 C 
ATOM      7  C   UNL     1       6.429  -5.241  -1.238  0.00  0.00    -0.004 C 
ATOM      8  C   UNL     1       5.408  -4.967  -0.174  0.00  0.00    +0.135 C 
ENDROOT
BRANCH   6   9
ATOM      9  C   UNL     1       7.573  -6.522  -2.899  0.00  0.00    +0.005 A 
ATOM     10  C   UNL     1       8.721  -7.237  -2.779  0.00  0.00    +0.093 A 
ATOM     11  N   UNL     1       9.453  -7.129  -3.927  0.00  0.00    -0.345 N 
ATOM     12  H   UNL     1      10.312  -7.553  -4.078  0.00  0.00    +0.167 HD
ATOM     13  C   UNL     1       8.798  -6.333  -4.838  0.00  0.00    +0.139 A 
ATOM     14  C   UNL     1       7.592  -5.922  -4.243  0.00  0.00    +0.026 A 
ATOM     15  C   UNL     1       6.719  -5.101  -4.954  0.00  0.00    +0.013 A 
ATOM     16  C   UNL     1       7.079  -4.723  -6.235  0.00  0.00    +0.020 A 
ATOM     17  C   UNL     1       8.281  -5.167  -6.762  0.00  0.00    +0.113 A 
ATOM     18  N   UNL     1       9.095  -5.936  -6.069  0.00  0.00    -0.237 NA
ENDBRANCH   6   9
BRANCH   1  22
ATOM     19  C   UNL     1       1.749  -1.740   0.025  0.00  0.00    +0.049 A 
ATOM     20  C   UNL     1       2.769  -2.154   0.877  0.00  0.00    +0.027 A 
ATOM     21  C   UNL     1       3.206  -3.458   0.852  0.00  0.00    +0.019 A 
ATOM     22  C   UNL     1       2.623  -4.373  -0.031  0.00  0.00    +0.078 A 
ATOM     23  C   UNL     1       1.595  -3.955  -0.888  0.00  0.00    +0.131 A 
ATOM     24  C   UNL     1       1.160  -2.641  -0.851  0.00  0.00    +0.072 A 
BRANCH  19  28
ATOM     25  C   UNL     1       0.189   1.422  -0.401  0.00  0.00    +0.019 A 
ATOM     26  C   UNL     1       1.131   1.709   0.608  0.00  0.00    +0.019 A 
ATOM     27  C   UNL     1       1.804   0.570   0.869  0.00  0.00    +0.091 A 
ATOM     28  N   UNL     1       1.311  -0.412   0.057  0.00  0.00    -0.323 N 
ATOM     29  C   UNL     1       0.320   0.119  -0.719  0.00  0.00    +0.091 A 
ENDBRANCH  19  28
BRANCH  23  30
ATOM     30  O   UNL     1       1.025  -4.836  -1.748  0.00  0.00    -0.506 OA
ATOM     31  H   UNL     1       0.261  -5.304  -1.383  0.00  0.00    +0.292 HD
ENDBRANCH  23  30
ENDBRANCH   1  22
TORSDOF 4
