REMARK  Name = ZINC03439922
REMARK  4 active torsions:
REMARK  status: ('A' for Active; 'I' for Inactive)
REMARK    1  A    between atoms: C_1  and  C_2
REMARK    2  A    between atoms: C_3  and  C_15
REMARK    3  A    between atoms: N_5  and  C_7
REMARK    4  A    between atoms: C_16  and  C_17
REMARK                            x       y       z     vdW  Elec       q    Type
REMARK                         _______ _______ _______ _____ _____    ______ ____
ROOT
ATOM      1  C   UNL     1      -0.006   1.496   0.015  0.00  0.00    +0.068 C 
ATOM      2  C   UNL     1       0.005  -0.011   0.003  0.00  0.00    +0.069 A 
ATOM      3  C   UNL     1       0.006  -0.833  -1.149  0.00  0.00    +0.035 A 
ATOM      4  C   UNL     1       0.018  -2.147  -0.712  0.00  0.00    +0.140 A 
ATOM      5  N   UNL     1       0.024  -2.121   0.635  0.00  0.00    -0.221 N 
ATOM      6  N   UNL     1       0.021  -0.785   1.053  0.00  0.00    -0.170 NA
ATOM      7 CL   UNL     1       0.024  -3.565  -1.713  0.00  0.00    -0.061 Cl
ENDROOT
BRANCH   5   8
ATOM      8  C   UNL     1       0.036  -3.242   1.477  0.00  0.00    +0.067 A 
ATOM      9  C   UNL     1      -0.642  -4.396   1.107  0.00  0.00    +0.030 A 
ATOM     10  C   UNL     1      -0.628  -5.500   1.937  0.00  0.00    +0.040 A 
ATOM     11  C   UNL     1       0.061  -5.456   3.137  0.00  0.00    +0.124 A 
ATOM     12  C   UNL     1       0.737  -4.306   3.508  0.00  0.00    +0.040 A 
ATOM     13  C   UNL     1       0.731  -3.202   2.678  0.00  0.00    +0.030 A 
ATOM     14  F   UNL     1       0.072  -6.537   3.948  0.00  0.00    -0.205 F 
ENDBRANCH   5   8
BRANCH   3  15
ATOM     15  C   UNL     1      -0.004  -0.378  -2.545  0.00  0.00    +0.018 C 
ATOM     16  C   UNL     1       0.892  -0.876  -3.425  0.00  0.00    +0.068 C 
BRANCH  16  17
ATOM     17  C   UNL     1       0.882  -0.437  -4.772  0.00  0.00    +0.240 C 
ATOM     18  O   UNL     1       0.008   0.316  -5.161  0.00  0.00    -0.271 OA
ATOM     19  N   UNL     1       1.840  -0.854  -5.624  0.00  0.00    -0.288 N 
ATOM     20  C   UNL     1       1.923  -0.332  -6.998  0.00  0.00    +0.127 C 
ATOM     21  C   UNL     1       3.270   0.376  -7.160  0.00  0.00    +0.123 C 
ATOM     22  N   UNL     1       4.351  -0.444  -6.628  0.00  0.00    -0.313 N 
ATOM     23  C   UNL     1       4.192  -1.415  -5.728  0.00  0.00    +0.230 C 
ATOM     24  O   UNL     1       5.179  -1.976  -5.302  0.00  0.00    -0.274 OA
ATOM     25  C   UNL     1       2.848  -1.844  -5.216  0.00  0.00    +0.203 C 
ATOM     26  H   UNL     1       5.249  -0.270  -6.951  0.00  0.00    +0.149 HD
ENDBRANCH  16  17
ENDBRANCH   3  15
TORSDOF 3
