REMARK  Name = ZINC20882127
REMARK  4 active torsions:
REMARK  status: ('A' for Active; 'I' for Inactive)
REMARK    1  A    between atoms: C_1  and  C_2
REMARK    2  A    between atoms: C_2  and  C_3
REMARK    3  A    between atoms: C_6  and  C_9
REMARK    4  A    between atoms: C_14  and  C_20
REMARK                            x       y       z     vdW  Elec       q    Type
REMARK                         _______ _______ _______ _____ _____    ______ ____
ROOT
ATOM      1  C   UNL     1       2.372   0.087   0.699  0.00  0.00    +0.032 C 
ATOM      2  C   UNL     1       2.469   1.434  -0.020  0.00  0.00    +0.059 C 
ATOM      3  C   UNL     1       1.125   2.119   0.003  0.00  0.00    +0.018 C 
ATOM      4  C   UNL     1      -0.017   1.401   0.010  0.00  0.00    +0.020 C 
ATOM      5  C   UNL     1      -1.351   2.109   0.033  0.00  0.00    +0.063 C 
ATOM      6  C   UNL     1      -1.238   3.387   0.858  0.00  0.00    +0.109 C 
ATOM      7  C   UNL     1      -0.012   4.150   0.426  0.00  0.00    +0.218 C 
ATOM      8  O   UNL     1      -0.015   5.362   0.449  0.00  0.00    -0.275 OA
ATOM      9  N   UNL     1       1.085   3.490   0.016  0.00  0.00    -0.289 N 
ATOM     10  C   UNL     1       0.002  -0.004   0.002  0.00  0.00    +0.162 C 
ATOM     11  O   UNL     1      -1.047  -0.616  -0.006  0.00  0.00    -0.292 OA
ATOM     12  C   UNL     1       1.302  -0.762   0.004  0.00  0.00    +0.088 C 
ATOM     13  H   UNL     1       1.960   4.069  -0.313  0.00  0.00    +0.155 HD
ENDROOT
BRANCH   5  14
ATOM     14  C   UNL     1      -1.758   2.461  -1.375  0.00  0.00    -0.038 A 
ATOM     15  C   UNL     1      -0.957   3.291  -2.138  0.00  0.00    +0.007 A 
ATOM     16  C   UNL     1      -1.326   3.611  -3.431  0.00  0.00    +0.040 A 
ATOM     17  C   UNL     1      -2.503   3.109  -3.959  0.00  0.00    +0.137 A 
ATOM     18  C   UNL     1      -3.308   2.281  -3.192  0.00  0.00    +0.053 A 
ATOM     19  C   UNL     1      -2.933   1.958  -1.901  0.00  0.00    +0.022 A 
ATOM     20 BR   UNL     1      -4.916   1.594  -3.911  0.00  0.00    -0.047 Br
ATOM     21  F   UNL     1      -2.868   3.425  -5.221  0.00  0.00    -0.204 F 
ENDBRANCH   5  14
BRANCH   1  25
ATOM     22  C   UNL     1       6.140  -1.917   0.510  0.00  0.00    -0.048 A 
ATOM     23  C   UNL     1       5.579  -1.614   1.736  0.00  0.00    +0.004 A 
ATOM     24  C   UNL     1       4.359  -0.966   1.798  0.00  0.00    +0.004 A 
ATOM     25  C   UNL     1       3.701  -0.620   0.632  0.00  0.00    -0.043 A 
ATOM     26  C   UNL     1       4.260  -0.926  -0.594  0.00  0.00    +0.004 A 
ATOM     27  C   UNL     1       5.482  -1.570  -0.655  0.00  0.00    +0.004 A 
BRANCH  22  29
ATOM     28  C   UNL     1       7.241  -4.137   0.424  0.00  0.00    +0.009 C 
ATOM     29  C   UNL     1       7.469  -2.624   0.443  0.00  0.00    +0.032 C 
ENDBRANCH  22  29
ENDBRANCH   1  25
TORSDOF 3
