REMARK  Name = ZINC10384419
REMARK  6 active torsions:
REMARK  status: ('A' for Active; 'I' for Inactive)
REMARK    1  A    between atoms: C_2  and  N_9
REMARK    2  A    between atoms: C_10  and  C_12
REMARK    3  A    between atoms: C_12  and  C_13
REMARK    4  A    between atoms: C_26  and  C_27
REMARK    5  A    between atoms: C_26  and  N_66
REMARK    6  A    between atoms: C_32  and  C_35
REMARK                            x       y       z     vdW  Elec       q    Type
REMARK                         _______ _______ _______ _____ _____    ______ ____
ROOT
ATOM      1  C   UNL     1      -3.062   1.891  -0.447  0.00  0.00    +0.029 C 
ATOM      2  C   UNL     1      -3.877   3.151  -0.489  0.00  0.00    +0.200 C 
ATOM      3  O   UNL     1      -4.160   3.690   0.560  0.00  0.00    -0.278 OA
ATOM      4  N   UNL     1      -4.308   3.710  -1.627  0.00  0.00    -0.315 N 
ATOM      5  C   UNL     1      -4.072   3.093  -2.925  0.00  0.00    +0.059 C 
ATOM      6  C   UNL     1      -3.789   4.139  -4.001  0.00  0.00    +0.021 C 
ATOM      7  C   UNL     1      -3.613   3.430  -5.347  0.00  0.00    +0.002 C 
ATOM      8  C   UNL     1      -2.455   2.435  -5.266  0.00  0.00    -0.001 C 
ATOM      9  C   UNL     1      -2.727   1.404  -4.166  0.00  0.00    -0.013 C 
ATOM     10  C   UNL     1      -2.884   2.134  -2.833  0.00  0.00    -0.046 C 
ATOM     11  H   UNL     1      -4.792   4.550  -1.586  0.00  0.00    +0.149 HD
ATOM     12  N   UNL     1      -3.149   1.185  -1.739  0.00  0.00    +0.396 N 
ATOM     13  H   UNL     1      -4.095   0.801  -1.849  0.00  0.00    -0.080 HD
ENDROOT
BRANCH   1  14
ATOM     14  C   UNL     1      -1.605   2.243  -0.138  0.00  0.00    +0.090 C 
BRANCH  14  16
ATOM     15  N   UNL     1      -0.318   3.172   1.759  0.00  0.00    -0.285 N 
ATOM     16  C   UNL     1      -1.491   2.699   1.294  0.00  0.00    +0.216 C 
ATOM     17  O   UNL     1      -2.453   2.634   2.029  0.00  0.00    -0.276 OA
ATOM     18  H   UNL     1       0.451   3.228   1.169  0.00  0.00    +0.155 HD
BRANCH  15  20
ATOM     19  C   UNL     1       0.673   4.600   3.435  0.00  0.00    +0.043 A 
ATOM     20  C   UNL     1      -0.209   3.584   3.091  0.00  0.00    +0.036 A 
ATOM     21  C   UNL     1      -0.987   2.983   4.071  0.00  0.00    +0.043 A 
ATOM     22  C   UNL     1      -0.874   3.388   5.388  0.00  0.00    +0.044 A 
ATOM     23  C   UNL     1       0.006   4.401   5.728  0.00  0.00    +0.040 A 
ATOM     24  C   UNL     1       0.779   5.006   4.753  0.00  0.00    +0.044 A 
ATOM     25 CL   UNL     1       1.882   6.275   5.183  0.00  0.00    -0.083 Cl
ATOM     26 CL   UNL     1      -1.842   2.632   6.615  0.00  0.00    -0.083 Cl
ENDBRANCH  15  20
ENDBRANCH  14  16
ENDBRANCH   1  14
BRANCH  12  27
ATOM     27  C   UNL     1      -2.171   0.075  -1.780  0.00  0.00    +0.020 C 
BRANCH  27  28
ATOM     28  C   UNL     1      -2.536  -0.941  -0.729  0.00  0.00    +0.199 C 
ATOM     29  O   UNL     1      -3.569  -0.824  -0.105  0.00  0.00    -0.278 OA
ATOM     30  N   UNL     1      -1.714  -1.980  -0.482  0.00  0.00    -0.303 N 
ATOM     31  C   UNL     1      -0.413  -2.083  -1.157  0.00  0.00    +0.108 C 
ATOM     32  C   UNL     1      -0.310  -3.448  -1.834  0.00  0.00    +0.032 C 
ATOM     33  C   UNL     1      -0.571  -4.548  -0.802  0.00  0.00    +0.078 C 
ATOM     34  C   UNL     1      -1.984  -4.393  -0.236  0.00  0.00    +0.032 C 
ATOM     35  C   UNL     1      -2.104  -3.035   0.463  0.00  0.00    +0.108 C 
BRANCH  33  36
ATOM     36  C   UNL     1      -0.440  -5.896  -1.462  0.00  0.00    +0.214 C 
ATOM     37  O   UNL     1      -1.423  -6.584  -1.639  0.00  0.00    -0.276 OA
ATOM     38  N   UNL     1       0.771  -6.338  -1.856  0.00  0.00    -0.329 N 
ATOM     39  H   UNL     1       1.566  -5.822  -1.652  0.00  0.00    +0.145 HD
ATOM     40  H   UNL     1       0.847  -7.173  -2.344  0.00  0.00    +0.145 HD
ENDBRANCH  33  36
ENDBRANCH  27  28
ENDBRANCH  12  27
TORSDOF 6
