REMARK  Name = ZINC01961403
REMARK  8 active torsions:
REMARK  status: ('A' for Active; 'I' for Inactive)
REMARK    1  A    between atoms: C_1  and  C_2
REMARK    2  A    between atoms: C_7  and  N_8
REMARK    3  A    between atoms: C_9  and  C_11
REMARK    4  A    between atoms: C_11  and  N_12
REMARK    5  A    between atoms: C_23  and  C_27
REMARK    6  A    between atoms: C_27  and  C_28
REMARK    7  A    between atoms: C_27  and  C_29
REMARK    8  A    between atoms: C_27  and  C_30
REMARK                            x       y       z     vdW  Elec       q    Type
REMARK                         _______ _______ _______ _____ _____    ______ ____
ROOT
ATOM      1  N   UNL     1      -1.175   1.869   0.017  0.00  0.00    -0.290 N 
ATOM      2  C   UNL     1      -1.211   3.226   0.020  0.00  0.00    +0.203 A 
ATOM      3  N   UNL     1      -0.112   3.932   0.013  0.00  0.00    -0.230 NA
ATOM      4  C   UNL     1       1.080   3.341   0.007  0.00  0.00    +0.116 A 
ATOM      5  C   UNL     1       1.218   1.944   0.009  0.00  0.00    +0.076 A 
ATOM      6  C   UNL     1      -0.007   1.199   0.017  0.00  0.00    +0.263 A 
ATOM      7  O   UNL     1       0.009  -0.019   0.019  0.00  0.00    -0.267 OA
ATOM      8  C   UNL     1       2.590   1.436   0.002  0.00  0.00    -0.023 A 
ATOM      9  C   UNL     1       3.581   2.352  -0.005  0.00  0.00    -0.004 A 
ATOM     10  S   UNL     1       2.757   3.921  -0.002  0.00  0.00    -0.073 S 
ATOM     11  C   UNL     1       5.057   2.092  -0.013  0.00  0.00    +0.046 C 
ATOM     12  C   UNL     1       5.287   0.622  -0.390  0.00  0.00    -0.000 C 
ATOM     13  C   UNL     1       4.355  -0.253   0.454  0.00  0.00    +0.009 C 
ATOM     14  C   UNL     1       2.908  -0.057   0.002  0.00  0.00    +0.037 C 
ENDROOT
BRANCH  12  15
ATOM     15  C   UNL     1       6.742   0.242  -0.108  0.00  0.00    -0.035 C 
ATOM     16  C   UNL     1       6.964  -1.230  -0.466  0.00  0.00    +0.011 C 
ATOM     17  C   UNL     1       7.670   1.117  -0.953  0.00  0.00    +0.011 C 
ATOM     18  C   UNL     1       7.048   0.458   1.375  0.00  0.00    +0.011 C 
ENDBRANCH  12  15
BRANCH   1  19
ATOM     19  C   UNL     1      -2.432   1.118   0.020  0.00  0.00    +0.222 C 
BRANCH  19  21
ATOM     20  N   UNL     1      -4.000   0.184   1.690  0.00  0.00    -0.284 N 
ATOM     21  C   UNL     1      -2.862   0.863   1.442  0.00  0.00    +0.237 C 
ATOM     22  O   UNL     1      -2.185   1.269   2.362  0.00  0.00    -0.274 OA
ATOM     23  H   UNL     1      -4.582  -0.071   0.958  0.00  0.00    +0.155 HD
BRANCH  20  30
ATOM     24  C   UNL     1      -6.745  -0.248   2.299  0.00  0.00    +0.045 C 
ATOM     25  C   UNL     1      -5.668  -0.373   3.345  0.00  0.00    -0.029 A 
ATOM     26  C   UNL     1      -6.001  -0.706   4.644  0.00  0.00    +0.006 A 
ATOM     27  C   UNL     1      -5.014  -0.820   5.605  0.00  0.00    +0.020 A 
ATOM     28  C   UNL     1      -3.689  -0.602   5.269  0.00  0.00    +0.043 A 
ATOM     29  C   UNL     1      -3.349  -0.275   3.971  0.00  0.00    +0.043 A 
ATOM     30  C   UNL     1      -4.340  -0.153   3.005  0.00  0.00    +0.038 A 
ATOM     31 CL   UNL     1      -2.453  -0.746   6.480  0.00  0.00    -0.083 Cl
ENDBRANCH  20  30
ENDBRANCH  19  21
ENDBRANCH   1  19
TORSDOF 4
