REMARK  Name = ZINC59489266
REMARK  9 active torsions:
REMARK  status: ('A' for Active; 'I' for Inactive)
REMARK    1  A    between atoms: C_1  and  C_2
REMARK    2  A    between atoms: C_2  and  O_3
REMARK    3  A    between atoms: O_3  and  C_4
REMARK    4  A    between atoms: C_7  and  N_10
REMARK    5  A    between atoms: C_14  and  S_18
REMARK    6  A    between atoms: S_18  and  C_19
REMARK    7  A    between atoms: N_21  and  N_22
REMARK    8  A    between atoms: C_23  and  C_24
REMARK    9  A    between atoms: C_23  and  C_25
REMARK                            x       y       z     vdW  Elec       q    Type
REMARK                         _______ _______ _______ _____ _____    ______ ____
ROOT
ATOM      1  S   UNL     1       3.398  -8.747   2.368  0.00  0.00    -0.078 S 
ENDROOT
BRANCH   1   6
ATOM      2  N   UNL     1       1.137  -5.959   1.753  0.00  0.00    -0.209 N 
ATOM      3  C   UNL     1       0.556  -6.828   0.916  0.00  0.00    +0.228 C 
ATOM      4  O   UNL     1      -0.118  -6.531  -0.046  0.00  0.00    -0.275 OA
ATOM      5  C   UNL     1       0.875  -8.238   1.363  0.00  0.00    +0.120 C 
ATOM      6  C   UNL     1       1.750  -8.032   2.616  0.00  0.00    +0.149 C 
ATOM      7  C   UNL     1       1.838  -6.526   2.743  0.00  0.00    +0.240 C 
ATOM      8  O   UNL     1       2.446  -5.929   3.605  0.00  0.00    -0.274 OA
BRANCH   2  12
ATOM      9  C   UNL     1       0.803  -1.825   1.304  0.00  0.00    +0.121 A 
ATOM     10  C   UNL     1       2.029  -2.446   1.116  0.00  0.00    +0.047 A 
ATOM     11  C   UNL     1       2.140  -3.814   1.264  0.00  0.00    +0.027 A 
ATOM     12  C   UNL     1       1.024  -4.568   1.603  0.00  0.00    +0.044 A 
ATOM     13  C   UNL     1      -0.202  -3.946   1.791  0.00  0.00    +0.027 A 
ATOM     14  C   UNL     1      -0.311  -2.577   1.648  0.00  0.00    +0.047 A 
BRANCH   9  15
ATOM     15  O   UNL     1       0.694  -0.477   1.158  0.00  0.00    -0.492 OA
BRANCH  15  17
ATOM     16  C   UNL     1       1.565   1.727   0.686  0.00  0.00    +0.048 C 
ATOM     17  C   UNL     1       1.881   0.235   0.804  0.00  0.00    +0.225 C 
ENDBRANCH  15  17
ENDBRANCH   9  15
ENDBRANCH   2  12
ENDBRANCH   1   6
BRANCH   1  18
ATOM     18  C   UNL     1       4.188  -8.549   3.931  0.00  0.00    +0.146 C 
ATOM     19  N   UNL     1       3.549  -7.985   4.918  0.00  0.00    -0.380 N 
ATOM     20  N   UNL     1       5.480  -8.990   4.110  0.00  0.00    -0.217 N 
ATOM     21  H   UNL     1       3.983  -7.875   5.778  0.00  0.00    +0.158 HD
ATOM     22  H   UNL     1       5.956  -9.410   3.376  0.00  0.00    +0.176 HD
ATOM     23  H   UNL     1       2.638  -7.674   4.792  0.00  0.00    +0.158 HD
BRANCH  20  24
ATOM     24  N   UNL     1       6.108  -8.832   5.352  0.00  0.00    -0.185 NA
ATOM     25  C   UNL     1       7.326  -9.248   5.521  0.00  0.00    +0.063 C 
ATOM     26  C   UNL     1       8.064  -9.900   4.381  0.00  0.00    +0.068 C 
BRANCH  25  27
ATOM     27  C   UNL     1       7.987  -9.082   6.829  0.00  0.00    -0.002 A 
ATOM     28  C   UNL     1       9.300  -9.523   7.013  0.00  0.00    +0.011 A 
ATOM     29  C   UNL     1       9.912  -9.365   8.238  0.00  0.00    +0.016 A 
ATOM     30  C   UNL     1       9.228  -8.771   9.286  0.00  0.00    +0.018 A 
ATOM     31  C   UNL     1       7.927  -8.332   9.111  0.00  0.00    +0.016 A 
ATOM     32  C   UNL     1       7.305  -8.478   7.888  0.00  0.00    +0.011 A 
ATOM     33 BR   UNL     1      10.075  -8.560  10.963  0.00  0.00    -0.050 Br
ENDBRANCH  25  27
ENDBRANCH  20  24
ENDBRANCH   1  18
TORSDOF 7
