REMARK  Name = ZINC49464349
REMARK  5 active torsions:
REMARK  status: ('A' for Active; 'I' for Inactive)
REMARK    1  A    between atoms: C_3  and  S_12
REMARK    2  A    between atoms: C_6  and  O_7
REMARK    3  A    between atoms: O_7  and  C_8
REMARK    4  A    between atoms: S_12  and  N_15
REMARK    5  A    between atoms: N_15  and  C_16
REMARK                            x       y       z     vdW  Elec       q    Type
REMARK                         _______ _______ _______ _____ _____    ______ ____
ROOT
ATOM      1  C   UNL     1       4.641   1.284   2.298  0.00  0.00    +0.049 A 
ATOM      2  C   UNL     1       3.963   0.090   2.077  0.00  0.00    +0.028 A 
ATOM      3  C   UNL     1       4.313  -1.047   2.778  0.00  0.00    +0.048 A 
ATOM      4  C   UNL     1       5.340  -1.001   3.705  0.00  0.00    +0.133 A 
ATOM      5  C   UNL     1       6.027   0.198   3.940  0.00  0.00    +0.080 A 
ATOM      6  C   UNL     1       5.672   1.342   3.219  0.00  0.00    +0.041 A 
ATOM      7  C   UNL     1       7.109   0.259   4.933  0.00  0.00    +0.250 C 
ATOM      8  O   UNL     1       8.216   0.623   4.588  0.00  0.00    -0.270 OA
ATOM      9  N   UNL     1       6.895  -0.081   6.220  0.00  0.00    -0.294 N 
ATOM     10  C   UNL     1       8.026  -0.107   7.149  0.00  0.00    +0.108 C 
ATOM     11  C   UNL     1       7.655   0.615   8.443  0.00  0.00    +0.019 C 
ATOM     12  C   UNL     1       6.358   0.021   8.998  0.00  0.00    +0.003 C 
ATOM     13  C   UNL     1       5.224   0.247   8.003  0.00  0.00    +0.023 C 
ATOM     14  C   UNL     1       5.542  -0.407   6.664  0.00  0.00    +0.080 C 
ATOM     15  C   UNL     1       5.395  -1.926   6.791  0.00  0.00    +0.063 C 
ATOM     16  C   UNL     1       4.856  -2.500   5.481  0.00  0.00    +0.231 C 
ATOM     17  O   UNL     1       5.699  -2.119   4.393  0.00  0.00    -0.491 OA
ENDROOT
BRANCH   1  18
ATOM     18  N   UNL     1       4.282   2.432   1.582  0.00  0.00    -0.216 N 
ATOM     19  H   UNL     1       3.780   3.139   2.017  0.00  0.00    +0.174 HD
BRANCH  18  20
ATOM     20  S   UNL     1       4.714   2.583  -0.010  0.00  0.00    +0.072 S 
ATOM     21  O   UNL     1       4.262   3.862  -0.434  0.00  0.00    -0.150 OA
ATOM     22  O   UNL     1       4.315   1.382  -0.655  0.00  0.00    -0.150 OA
BRANCH  20  25
ATOM     23  C   UNL     1       8.566   1.496  -0.359  0.00  0.00    +0.048 A 
ATOM     24  C   UNL     1       7.186   1.465  -0.311  0.00  0.00    +0.032 A 
ATOM     25  C   UNL     1       6.475   2.626  -0.070  0.00  0.00    +0.109 A 
ATOM     26  C   UNL     1       7.143   3.821   0.124  0.00  0.00    +0.032 A 
ATOM     27  C   UNL     1       8.523   3.857   0.078  0.00  0.00    +0.048 A 
ATOM     28  C   UNL     1       9.239   2.694  -0.165  0.00  0.00    +0.130 A 
BRANCH  28  29
ATOM     29  O   UNL     1      10.597   2.727  -0.211  0.00  0.00    -0.406 OA
BRANCH  29  30
ATOM     30  C   UNL     1      11.222   3.995  -0.002  0.00  0.00    +0.575 C 
ATOM     31  F   UNL     1      10.877   4.482   1.264  0.00  0.00    -0.133 F 
ATOM     32  F   UNL     1      12.611   3.848  -0.082  0.00  0.00    -0.133 F 
ATOM     33  F   UNL     1      10.790   4.895  -0.982  0.00  0.00    -0.133 F 
ENDBRANCH  29  30
ENDBRANCH  28  29
ENDBRANCH  20  25
ENDBRANCH  18  20
ENDBRANCH   1  18
TORSDOF 5
