REMARK  Name = ZINC00005579
REMARK  3 active torsions:
REMARK  status: ('A' for Active; 'I' for Inactive)
REMARK    1  A    between atoms: C_4  and  C_7
REMARK    2  A    between atoms: C_16  and  O_21
REMARK    3  A    between atoms: C_17  and  O_20
REMARK                            x       y       z     vdW  Elec       q    Type
REMARK                         _______ _______ _______ _____ _____    ______ ____
ROOT
ATOM      1  C   UNL     1       3.711  -0.707  -0.038  0.00  0.00    +0.032 C 
ATOM      2  C   UNL     1       3.792  -1.560  -1.303  0.00  0.00    -0.070 C 
ATOM      3  N   UNL     1       5.192  -1.617  -1.737  0.00  0.00    +0.380 N 
ATOM      4  C   UNL     1       6.019  -2.248  -0.708  0.00  0.00    -0.078 C 
ATOM      5  C   UNL     1       5.168  -3.313  -0.009  0.00  0.00    +0.018 C 
ATOM      6  C   UNL     1       4.516  -2.748   1.226  0.00  0.00    -0.023 A 
ATOM      7  C   UNL     1       3.817  -1.562   1.202  0.00  0.00    -0.034 A 
ATOM      8  C   UNL     1       3.185  -1.111   2.353  0.00  0.00    +0.053 A 
ATOM      9  C   UNL     1       3.276  -1.831   3.531  0.00  0.00    +0.160 A 
ATOM     10  C   UNL     1       4.009  -3.013   3.563  0.00  0.00    +0.177 A 
ATOM     11  C   UNL     1       4.625  -3.465   2.410  0.00  0.00    +0.089 A 
ATOM     12 CL   UNL     1       5.537  -4.941   2.444  0.00  0.00    -0.079 Cl
ATOM     13  H   UNL     1       5.255  -2.151  -2.591  0.00  0.00    -0.086 HD
ATOM     14  H   UNL     1       5.527  -0.680  -1.906  0.00  0.00    -0.086 HD
ENDROOT
BRANCH   1  18
ATOM     15  C   UNL     1      -0.017   1.378   0.010  0.00  0.00    +0.000 A 
ATOM     16  C   UNL     1       1.171   2.086   0.002  0.00  0.00    +0.000 A 
ATOM     17  C   UNL     1       2.377   1.411  -0.013  0.00  0.00    +0.004 A 
ATOM     18  C   UNL     1       2.396   0.029  -0.020  0.00  0.00    -0.042 A 
ATOM     19  C   UNL     1       1.208  -0.679  -0.012  0.00  0.00    +0.004 A 
ATOM     20  C   UNL     1       0.002  -0.004   0.002  0.00  0.00    +0.000 A 
ENDBRANCH   1  18
BRANCH  10  21
ATOM     21  O   UNL     1       4.120  -3.718   4.720  0.00  0.00    -0.502 OA
ATOM     22  H   UNL     1       3.425  -4.379   4.847  0.00  0.00    +0.292 HD
ENDBRANCH  10  21
BRANCH   9  23
ATOM     23  O   UNL     1       2.652  -1.384   4.654  0.00  0.00    -0.503 OA
ATOM     24  H   UNL     1       1.747  -1.709   4.757  0.00  0.00    +0.292 HD
ENDBRANCH   9  23
TORSDOF 3
