REMARK  Name = ZINC39602326
REMARK  5 active torsions:
REMARK  status: ('A' for Active; 'I' for Inactive)
REMARK    1  A    between atoms: C_1  and  N_2
REMARK    2  A    between atoms: C_6  and  C_7
REMARK    3  A    between atoms: C_11  and  C_20
REMARK    4  A    between atoms: N_22  and  C_23
REMARK    5  A    between atoms: C_26  and  C_28
REMARK                            x       y       z     vdW  Elec       q    Type
REMARK                         _______ _______ _______ _____ _____    ______ ____
ROOT
ATOM      1  C   UNL     1      -0.176  -0.368   2.552  0.00  0.00    +0.263 C 
ATOM      2  O   UNL     1      -0.133  -1.178   3.459  0.00  0.00    -0.268 OA
ATOM      3  N   UNL     1      -0.391   0.935   2.821  0.00  0.00    -0.295 N 
ATOM      4  C   UNL     1      -0.617   2.036   1.856  0.00  0.00    +0.121 C 
ATOM      5  C   UNL     1      -1.706   2.914   2.512  0.00  0.00    +0.100 C 
ATOM      6  C   UNL     1      -1.594   2.618   4.017  0.00  0.00    -0.004 C 
ATOM      7  C   UNL     1      -0.462   1.589   4.150  0.00  0.00    +0.115 C 
ATOM      8  C   UNL     1      -1.245   3.891   4.781  0.00  0.00    -0.010 C 
ATOM      9  C   UNL     1      -1.196   3.583   6.281  0.00  0.00    -0.082 C 
ATOM     10  N   UNL     1      -2.499   3.068   6.719  0.00  0.00    +0.379 N 
ATOM     11  C   UNL     1      -2.785   1.794   6.047  0.00  0.00    -0.082 C 
ATOM     12  C   UNL     1      -2.901   2.026   4.538  0.00  0.00    -0.010 C 
ATOM     13  H   UNL     1      -2.483   2.924   7.718  0.00  0.00    -0.086 HD
ATOM     14  H   UNL     1      -3.219   3.737   6.489  0.00  0.00    -0.086 HD
ENDROOT
BRANCH   1  20
ATOM     15  C   UNL     1      -0.010  -3.305   1.579  0.00  0.00    +0.149 C 
ATOM     16  N   UNL     1       0.081  -2.114   0.730  0.00  0.00    -0.346 N 
ATOM     17  C   UNL     1       0.246  -2.113  -0.615  0.00  0.00    +0.086 A 
ATOM     18  C   UNL     1       0.285  -0.831  -1.051  0.00  0.00    +0.020 A 
ATOM     19  C   UNL     1       0.139   0.004   0.061  0.00  0.00    +0.032 A 
ATOM     20  C   UNL     1       0.007  -0.810   1.165  0.00  0.00    +0.104 A 
ENDBRANCH   1  20
BRANCH   5  21
ATOM     21  C   UNL     1      -1.440   4.372   2.240  0.00  0.00    +0.218 C 
ATOM     22  O   UNL     1      -0.299   4.776   2.164  0.00  0.00    -0.275 OA
ATOM     23  N   UNL     1      -2.470   5.227   2.082  0.00  0.00    -0.312 N 
ATOM     24  H   UNL     1      -3.382   4.904   2.143  0.00  0.00    +0.149 HD
BRANCH  23  25
ATOM     25  C   UNL     1      -2.211   6.644   1.818  0.00  0.00    +0.081 C 
ATOM     26  C   UNL     1      -3.052   7.327   0.738  0.00  0.00    +0.033 C 
ATOM     27  C   UNL     1      -3.297   7.647   2.215  0.00  0.00    +0.041 C 
BRANCH  27  28
ATOM     28  C   UNL     1      -2.849   8.995   2.718  0.00  0.00    -0.042 A 
ATOM     29  C   UNL     1      -2.092   9.819   1.907  0.00  0.00    +0.004 A 
ATOM     30  C   UNL     1      -1.682  11.056   2.368  0.00  0.00    +0.000 A 
ATOM     31  C   UNL     1      -2.029  11.468   3.641  0.00  0.00    +0.000 A 
ATOM     32  C   UNL     1      -2.787  10.644   4.452  0.00  0.00    +0.000 A 
ATOM     33  C   UNL     1      -3.201   9.409   3.989  0.00  0.00    +0.004 A 
ENDBRANCH  27  28
ENDBRANCH  23  25
ENDBRANCH   5  21
TORSDOF 4
