REMARK  Name = ZINC19175058
REMARK  7 active torsions:
REMARK  status: ('A' for Active; 'I' for Inactive)
REMARK    1  A    between atoms: C_1  and  C_2
REMARK    2  A    between atoms: C_5  and  C_26
REMARK    3  A    between atoms: C_6  and  N_8
REMARK    4  A    between atoms: N_8  and  C_9
REMARK    5  A    between atoms: C_9  and  N_11
REMARK    6  A    between atoms: N_11  and  N_12
REMARK    7  A    between atoms: C_13  and  C_15
REMARK                            x       y       z     vdW  Elec       q    Type
REMARK                         _______ _______ _______ _____ _____    ______ ____
ROOT
ATOM      1  N   UNL     1       0.285  -4.220   4.702  0.00  0.00    -0.231 N 
ATOM      2  C   UNL     1       0.401  -4.905   5.857  0.00  0.00    +0.260 C 
ATOM      3  O   UNL     1       0.489  -4.307   6.912  0.00  0.00    -0.269 OA
ATOM      4  H   UNL     1       0.214  -4.697   3.860  0.00  0.00    +0.173 HD
ENDROOT
BRANCH   2   5
ATOM      5  C   UNL     1       0.421  -6.381   5.841  0.00  0.00    +0.043 A 
ATOM      6  C   UNL     1       0.535  -7.093   7.037  0.00  0.00    +0.062 A 
ATOM      7  C   UNL     1       0.553  -8.475   7.020  0.00  0.00    +0.164 A 
ATOM      8  C   UNL     1       0.455  -9.157   5.810  0.00  0.00    +0.180 A 
ATOM      9  C   UNL     1       0.342  -8.448   4.619  0.00  0.00    +0.087 A 
ATOM     10  C   UNL     1       0.319  -7.070   4.630  0.00  0.00    +0.037 A 
ATOM     11 CL   UNL     1       0.224  -9.302   3.112  0.00  0.00    -0.080 Cl
ATOM     12  O   UNL     1       0.463 -10.516   5.776  0.00  0.00    -0.483 OA
ATOM     13  C   UNL     1       0.951 -11.187   6.942  0.00  0.00    +0.270 C 
ATOM     14  C   UNL     1       0.306 -10.539   8.175  0.00  0.00    +0.270 C 
ATOM     15  O   UNL     1       0.669  -9.154   8.194  0.00  0.00    -0.485 OA
ENDBRANCH   2   5
BRANCH   1  16
ATOM     16  N   UNL     1       0.266  -2.819   4.717  0.00  0.00    -0.245 N 
ATOM     17  H   UNL     1       0.337  -2.342   5.558  0.00  0.00    +0.172 HD
BRANCH  16  18
ATOM     18  C   UNL     1       0.149  -2.135   3.562  0.00  0.00    +0.151 C 
ATOM     19  S   UNL     1       0.127  -0.423   3.580  0.00  0.00    -0.017 S 
BRANCH  18  20
ATOM     20  N   UNL     1       0.051  -2.797   2.392  0.00  0.00    -0.296 N 
ATOM     21  H   UNL     1      -0.016  -3.765   2.387  0.00  0.00    +0.154 HD
BRANCH  20  27
ATOM     22  C   UNL     1       1.920   0.767  -0.431  0.00  0.00    +0.044 C 
ATOM     23  C   UNL     1       0.941  -0.357  -0.210  0.00  0.00    -0.049 A 
ATOM     24  C   UNL     1       0.036  -0.690  -1.201  0.00  0.00    +0.004 A 
ATOM     25  C   UNL     1      -0.864  -1.721  -1.002  0.00  0.00    +0.005 A 
ATOM     26  C   UNL     1      -0.861  -2.422   0.188  0.00  0.00    -0.029 A 
ATOM     27  C   UNL     1       0.046  -2.090   1.185  0.00  0.00    +0.036 A 
ATOM     28  C   UNL     1       0.953  -1.057   0.980  0.00  0.00    +0.027 A 
ATOM     29  C   UNL     1      -1.843  -3.545   0.405  0.00  0.00    +0.045 C 
ENDBRANCH  20  27
ENDBRANCH  18  20
ENDBRANCH  16  18
ENDBRANCH   1  16
TORSDOF 5
