REMARK  Name = ZINC35219848
REMARK  8 active torsions:
REMARK  status: ('A' for Active; 'I' for Inactive)
REMARK    1  A    between atoms: C_1  and  C_2
REMARK    2  A    between atoms: N_8  and  C_9
REMARK    3  A    between atoms: C_9  and  C_10
REMARK    4  A    between atoms: C_10  and  N_11
REMARK    5  A    between atoms: C_12  and  C_14
REMARK    6  A    between atoms: C_26  and  C_29
REMARK    7  A    between atoms: C_32  and  O_35
REMARK    8  A    between atoms: O_35  and  C_36
REMARK                            x       y       z     vdW  Elec       q    Type
REMARK                         _______ _______ _______ _____ _____    ______ ____
ROOT
ATOM      1  C   UNL     1      -0.064   0.512   7.202  0.00  0.00    +0.078 C 
ATOM      2  C   UNL     1      -1.539   0.159   7.405  0.00  0.00    +0.031 C 
ATOM      3  C   UNL     1      -2.022   0.748   8.734  0.00  0.00    +0.107 C 
ATOM      4  N   UNL     1      -1.136   0.282   9.809  0.00  0.00    -0.314 N 
ATOM      5  C   UNL     1       0.312   0.490   9.671  0.00  0.00    +0.107 C 
ATOM      6  C   UNL     1       0.770  -0.096   8.332  0.00  0.00    +0.031 C 
ATOM      7  C   UNL     1      -1.657  -0.345  10.936  0.00  0.00    +0.142 A 
ATOM      8  C   UNL     1      -0.804  -0.672  12.008  0.00  0.00    +0.049 A 
ATOM      9  C   UNL     1      -1.303  -1.285  13.114  0.00  0.00    +0.053 A 
ATOM     10  C   UNL     1      -2.676  -1.586  13.171  0.00  0.00    +0.178 A 
ATOM     11  N   UNL     1      -3.449  -2.162  14.080  0.00  0.00    -0.128 NA
ATOM     12  N   UNL     1      -4.662  -2.205  13.650  0.00  0.00    -0.127 NA
ATOM     13  C   UNL     1      -4.737  -1.663  12.449  0.00  0.00    +0.185 A 
ATOM     14  N   UNL     1      -3.482  -1.254  12.110  0.00  0.00    -0.191 N 
ATOM     15  N   UNL     1      -2.940  -0.620  10.990  0.00  0.00    -0.148 NA
ENDROOT
BRANCH  13  16
ATOM     16  C   UNL     1      -5.956  -1.524  11.625  0.00  0.00    +0.021 A 
ATOM     17  C   UNL     1      -5.852  -1.229  10.265  0.00  0.00    +0.015 A 
ATOM     18  C   UNL     1      -6.991  -1.101   9.500  0.00  0.00    +0.046 A 
ATOM     19  C   UNL     1      -8.242  -1.265  10.081  0.00  0.00    +0.120 A 
ATOM     20  C   UNL     1      -8.350  -1.558  11.433  0.00  0.00    +0.046 A 
ATOM     21  C   UNL     1      -7.215  -1.693  12.204  0.00  0.00    +0.015 A 
BRANCH  19  22
ATOM     22  O   UNL     1      -9.363  -1.137   9.323  0.00  0.00    -0.495 OA
ATOM     23  C   UNL     1     -10.617  -1.318   9.984  0.00  0.00    +0.277 C 
ENDBRANCH  19  22
ENDBRANCH  13  16
BRANCH   1  25
ATOM     24  N   UNL     1      -0.186   0.360   4.736  0.00  0.00    -0.317 N 
ATOM     25  C   UNL     1       0.406  -0.037   5.880  0.00  0.00    +0.216 C 
ATOM     26  O   UNL     1       1.318  -0.836   5.845  0.00  0.00    -0.276 OA
ATOM     27  H   UNL     1      -0.915   1.000   4.764  0.00  0.00    +0.149 HD
BRANCH  24  28
ATOM     28  C   UNL     1       0.271  -0.174   3.450  0.00  0.00    +0.085 C 
BRANCH  28  29
ATOM     29  C   UNL     1      -0.562   0.435   2.320  0.00  0.00    -0.059 C 
BRANCH  29  36
ATOM     30  C   UNL     1      -0.608   2.083   0.048  0.00  0.00    -0.013 C 
ATOM     31  C   UNL     1      -0.821   0.572  -0.059  0.00  0.00    -0.072 C 
ATOM     32  C   UNL     1      -0.289   0.076  -1.405  0.00  0.00    -0.016 C 
ATOM     33  C   UNL     1      -0.504  -1.437  -1.507  0.00  0.00    -0.003 C 
ATOM     34  C   UNL     1       0.185  -2.122  -0.323  0.00  0.00    -0.019 C 
ATOM     35  C   UNL     1      -0.364  -1.544   0.983  0.00  0.00    -0.078 C 
ATOM     36  N   UNL     1      -0.104  -0.101   1.032  0.00  0.00    +0.382 N 
ATOM     37  H   UNL     1       0.887   0.065   0.934  0.00  0.00    -0.081 HD
ENDBRANCH  29  36
ENDBRANCH  28  29
ENDBRANCH  24  28
ENDBRANCH   1  25
TORSDOF 6
