REMARK  Name = ZINC55139709
REMARK  7 active torsions:
REMARK  status: ('A' for Active; 'I' for Inactive)
REMARK    1  A    between atoms: C_1  and  C_2
REMARK    2  A    between atoms: C_2  and  C_3
REMARK    3  A    between atoms: C_3  and  C_4
REMARK    4  A    between atoms: C_7  and  N_10
REMARK    5  A    between atoms: C_11  and  C_13
REMARK    6  A    between atoms: C_13  and  C_14
REMARK    7  A    between atoms: C_19  and  N_22
REMARK                            x       y       z     vdW  Elec       q    Type
REMARK                         _______ _______ _______ _____ _____    ______ ____
ROOT
ATOM      1  N   UNL     1      -2.197  -6.083  -1.191  0.00  0.00    -0.312 N 
ATOM      2  C   UNL     1      -3.288  -6.770  -1.584  0.00  0.00    +0.214 C 
ATOM      3  O   UNL     1      -4.287  -6.175  -1.930  0.00  0.00    -0.276 OA
ATOM      4  H   UNL     1      -1.398  -6.559  -0.914  0.00  0.00    +0.149 HD
ENDROOT
BRANCH   1   8
ATOM      5  C   UNL     1      -1.413  -2.063   0.004  0.00  0.00    -0.011 C 
ATOM      6  C   UNL     1      -0.809  -2.558  -1.311  0.00  0.00    +0.005 C 
ATOM      7  C   UNL     1      -0.788  -4.088  -1.320  0.00  0.00    +0.022 C 
ATOM      8  C   UNL     1      -2.216  -4.618  -1.183  0.00  0.00    +0.073 C 
ATOM      9  C   UNL     1      -2.821  -4.123   0.133  0.00  0.00    +0.022 C 
ATOM     10  C   UNL     1      -2.841  -2.594   0.141  0.00  0.00    +0.005 C 
BRANCH   5  11
ATOM     11  C   UNL     1      -1.433  -0.534   0.013  0.00  0.00    +0.003 C 
BRANCH  11  13
ATOM     12  C   UNL     1      -0.019   1.526   0.010  0.00  0.00    +0.004 C 
ATOM     13  C   UNL     1       0.002  -0.004   0.002  0.00  0.00    -0.003 C 
ENDBRANCH  11  13
ENDBRANCH   5  11
ENDBRANCH   1   8
BRANCH   2  14
ATOM     14  C   UNL     1      -3.268  -8.276  -1.592  0.00  0.00    +0.099 C 
BRANCH  14  15
ATOM     15  C   UNL     1      -4.621  -8.802  -2.075  0.00  0.00    -0.004 C 
ATOM     16  C   UNL     1      -4.836  -8.392  -3.534  0.00  0.00    +0.004 C 
ATOM     17  C   UNL     1      -6.189  -8.918  -4.017  0.00  0.00    -0.001 C 
ATOM     18  C   UNL     1      -6.212 -10.444  -3.908  0.00  0.00    -0.016 C 
ATOM     19  C   UNL     1      -5.997 -10.854  -2.449  0.00  0.00    -0.075 C 
ATOM     20  C   UNL     1      -4.644 -10.328  -1.966  0.00  0.00    -0.012 C 
BRANCH  19  21
ATOM     21  N   UNL     1      -7.067 -10.287  -1.618  0.00  0.00    +0.380 N 
ATOM     22  H   UNL     1      -7.960 -10.634  -1.937  0.00  0.00    -0.090 HD
ATOM     23  H   UNL     1      -6.926 -10.557  -0.656  0.00  0.00    -0.090 HD
ATOM     24  H   UNL     1      -7.052  -9.281  -1.690  0.00  0.00    -0.090 HD
ENDBRANCH  19  21
ENDBRANCH  14  15
ENDBRANCH   2  14
TORSDOF 6
