REMARK  Name = ZINC35769115
REMARK  14 active torsions:
REMARK  status: ('A' for Active; 'I' for Inactive)
REMARK    1  A    between atoms: C_1  and  C_2
REMARK    2  A    between atoms: C_3  and  C_26
REMARK    3  A    between atoms: C_4  and  N_9
REMARK    4  A    between atoms: C_6  and  C_8
REMARK    5  A    between atoms: C_15  and  C_17
REMARK    6  A    between atoms: C_17  and  C_18
REMARK    7  A    between atoms: C_18  and  C_20
REMARK    8  A    between atoms: C_18  and  C_21
REMARK    9  A    between atoms: C_21  and  C_22
REMARK   10  A    between atoms: C_22  and  C_23
REMARK   11  A    between atoms: C_22  and  C_24
REMARK   12  A    between atoms: C_22  and  C_25
REMARK   13  A    between atoms: C_26  and  C_27
REMARK   14  A    between atoms: C_26  and  C_28
REMARK                            x       y       z     vdW  Elec       q    Type
REMARK                         _______ _______ _______ _____ _____    ______ ____
ROOT
ATOM      1  N   UNL     1      -3.780  -1.794  -3.854  0.00  0.00    -0.312 N 
ATOM      2  C   UNL     1      -4.067  -1.446  -5.253  0.00  0.00    +0.125 C 
ATOM      3  C   UNL     1      -2.790  -0.886  -5.892  0.00  0.00    +0.126 C 
ATOM      4  N   UNL     1      -1.680  -1.806  -5.605  0.00  0.00    -0.298 N 
ATOM      5  C   UNL     1      -1.392  -2.154  -4.206  0.00  0.00    +0.126 C 
ATOM      6  C   UNL     1      -2.666  -2.708  -3.567  0.00  0.00    +0.125 C 
ATOM      7  C   UNL     1      -0.940  -2.321  -6.606  0.00  0.00    +0.216 C 
ATOM      8  O   UNL     1      -1.187  -2.027  -7.756  0.00  0.00    -0.276 OA
ENDROOT
BRANCH   1  12
ATOM      9  C   UNL     1      -7.535  -2.128  -0.690  0.00  0.00    +0.064 C 
ATOM     10  C   UNL     1      -6.354  -1.403  -1.282  0.00  0.00    +0.021 A 
ATOM     11  C   UNL     1      -5.627  -1.974  -2.308  0.00  0.00    +0.014 A 
ATOM     12  C   UNL     1      -4.541  -1.264  -2.825  0.00  0.00    +0.128 A 
ATOM     13  N   UNL     1      -4.249  -0.072  -2.313  0.00  0.00    -0.219 NA
ATOM     14  C   UNL     1      -4.970   0.435  -1.334  0.00  0.00    +0.106 A 
ATOM     15  N   UNL     1      -6.004  -0.208  -0.828  0.00  0.00    -0.347 N 
ATOM     16  C   UNL     1      -4.607   1.789  -0.781  0.00  0.00    +0.086 C 
ATOM     17  H   UNL     1      -6.514   0.199  -0.110  0.00  0.00    +0.167 HD
BRANCH  11  18
ATOM     18  C   UNL     1      -5.995  -3.328  -2.856  0.00  0.00    +0.018 C 
ATOM     19  C   UNL     1      -5.930  -3.296  -4.384  0.00  0.00    +0.012 C 
ATOM     20  C   UNL     1      -5.015  -4.377  -2.326  0.00  0.00    +0.012 C 
ENDBRANCH  11  18
ENDBRANCH   1  12
BRANCH   7  21
ATOM     21  C   UNL     1       0.196  -3.262  -6.296  0.00  0.00    +0.099 C 
BRANCH  21  22
ATOM     22  C   UNL     1       0.867  -3.697  -7.600  0.00  0.00    -0.005 C 
ATOM     23  C   UNL     1       1.518  -2.484  -8.268  0.00  0.00    +0.008 C 
BRANCH  22  24
ATOM     24  C   UNL     1       1.938  -4.748  -7.297  0.00  0.00    +0.010 C 
BRANCH  24  25
ATOM     25  C   UNL     1       2.488  -5.309  -8.610  0.00  0.00    -0.037 C 
ATOM     26  C   UNL     1       3.472  -4.309  -9.219  0.00  0.00    +0.010 C 
ATOM     27  C   UNL     1       3.208  -6.631  -8.337  0.00  0.00    +0.010 C 
ATOM     28  C   UNL     1       1.334  -5.549  -9.585  0.00  0.00    +0.010 C 
ENDBRANCH  24  25
ENDBRANCH  22  24
ENDBRANCH  21  22
ENDBRANCH   7  21
TORSDOF 6
