REMARK  Name = ZINC12750875
REMARK  8 active torsions:
REMARK  status: ('A' for Active; 'I' for Inactive)
REMARK    1  A    between atoms: C_1  and  C_2
REMARK    2  A    between atoms: C_2  and  N_3
REMARK    3  A    between atoms: C_7  and  C_9
REMARK    4  A    between atoms: C_9  and  C_11
REMARK    5  A    between atoms: C_9  and  S_17
REMARK    6  A    between atoms: S_17  and  C_18
REMARK    7  A    between atoms: N_28  and  C_29
REMARK    8  A    between atoms: C_29  and  C_30
REMARK                            x       y       z     vdW  Elec       q    Type
REMARK                         _______ _______ _______ _____ _____    ______ ____
ROOT
ATOM      1  C   UNL     1      -2.379  -4.556   0.628  0.00  0.00    +0.173 A 
ATOM      2  N   UNL     1      -1.189  -4.962   0.258  0.00  0.00    -0.223 NA
ATOM      3  C   UNL     1      -0.857  -6.268   0.257  0.00  0.00    +0.079 A 
ATOM      4  C   UNL     1       0.413  -6.701  -0.139  0.00  0.00    +0.028 A 
ATOM      5  C   UNL     1       0.707  -8.035  -0.124  0.00  0.00    +0.002 A 
ATOM      6  C   UNL     1      -0.237  -8.971   0.278  0.00  0.00    +0.001 A 
ATOM      7  C   UNL     1      -1.487  -8.579   0.670  0.00  0.00    +0.015 A 
ATOM      8  C   UNL     1      -1.815  -7.224   0.665  0.00  0.00    +0.065 A 
ATOM      9  C   UNL     1      -3.141  -6.745   1.076  0.00  0.00    +0.263 A 
ATOM     10  O   UNL     1      -4.008  -7.519   1.438  0.00  0.00    -0.267 OA
ATOM     11  N   UNL     1      -3.362  -5.410   1.042  0.00  0.00    -0.283 N 
ENDROOT
BRANCH   1  12
ATOM     12  S   UNL     1      -2.725  -2.829   0.597  0.00  0.00    -0.070 S 
BRANCH  12  13
ATOM     13  C   UNL     1      -1.135  -2.201   0.001  0.00  0.00    +0.170 C 
BRANCH  13  18
ATOM     14  N   UNL     1       1.142   2.033   0.002  0.00  0.00    -0.299 N 
ATOM     15  C   UNL     1      -0.016   1.344   0.009  0.00  0.00    +0.306 C 
ATOM     16  O   UNL     1      -1.077   1.937   0.018  0.00  0.00    -0.252 OA
ATOM     17  N   UNL     1       0.002  -0.004   0.002  0.00  0.00    -0.239 N 
ATOM     18  C   UNL     1      -1.156  -0.694   0.009  0.00  0.00    +0.238 C 
ATOM     19  O   UNL     1      -2.214  -0.102   0.023  0.00  0.00    -0.274 OA
ATOM     20  H   UNL     1       1.988   1.560  -0.009  0.00  0.00    +0.150 HD
ATOM     21  H   UNL     1       0.849  -0.478  -0.009  0.00  0.00    +0.159 HD
BRANCH  14  23
ATOM     22  C   UNL     1       2.557   4.028  -0.001  0.00  0.00    +0.024 C 
ATOM     23  C   UNL     1       1.122   3.498   0.010  0.00  0.00    +0.102 C 
ENDBRANCH  14  23
ENDBRANCH  13  18
BRANCH  13  24
ATOM     24  C   UNL     1      -0.895  -2.692  -1.403  0.00  0.00    -0.025 A 
ATOM     25  C   UNL     1      -1.786  -2.369  -2.410  0.00  0.00    +0.005 A 
ATOM     26  C   UNL     1      -1.563  -2.816  -3.699  0.00  0.00    +0.000 A 
ATOM     27  C   UNL     1      -0.455  -3.594  -3.979  0.00  0.00    +0.000 A 
ATOM     28  C   UNL     1       0.433  -3.921  -2.971  0.00  0.00    +0.000 A 
ATOM     29  C   UNL     1       0.212  -3.470  -1.683  0.00  0.00    +0.005 A 
ENDBRANCH  13  24
ENDBRANCH  12  13
ENDBRANCH   1  12
BRANCH  11  30
ATOM     30  C   UNL     1      -4.665  -4.877   1.446  0.00  0.00    +0.162 C 
BRANCH  30  31
ATOM     31  C   UNL     1      -5.575  -4.811   0.246  0.00  0.00    -0.027 A 
ATOM     32  C   UNL     1      -5.613  -3.668  -0.530  0.00  0.00    +0.007 A 
ATOM     33  C   UNL     1      -6.443  -3.609  -1.634  0.00  0.00    +0.020 A 
ATOM     34  C   UNL     1      -7.244  -4.690  -1.955  0.00  0.00    +0.041 A 
ATOM     35  C   UNL     1      -7.209  -5.832  -1.175  0.00  0.00    +0.020 A 
ATOM     36  C   UNL     1      -6.375  -5.892  -0.075  0.00  0.00    +0.007 A 
ATOM     37 CL   UNL     1      -8.291  -4.614  -3.338  0.00  0.00    -0.084 Cl
ENDBRANCH  30  31
ENDBRANCH  11  30
TORSDOF 7
