REMARK  Name = ZINC10393642
REMARK  5 active torsions:
REMARK  status: ('A' for Active; 'I' for Inactive)
REMARK    1  A    between atoms: C_1  and  C_2
REMARK    2  A    between atoms: C_7  and  C_11
REMARK    3  A    between atoms: C_11  and  O_12
REMARK    4  A    between atoms: O_12  and  C_13
REMARK    5  A    between atoms: C_17  and  C_19
REMARK                            x       y       z     vdW  Elec       q    Type
REMARK                         _______ _______ _______ _____ _____    ______ ____
ROOT
ATOM      1  C   UNL     1       2.050   4.194  -4.567  0.00  0.00    +0.122 A 
ATOM      2  C   UNL     1       2.364   2.854  -4.755  0.00  0.00    +0.046 A 
ATOM      3  C   UNL     1       1.735   1.880  -4.002  0.00  0.00    +0.004 A 
ATOM      4  C   UNL     1       0.792   2.233  -3.058  0.00  0.00    +0.013 A 
ATOM      5  C   UNL     1       0.471   3.577  -2.862  0.00  0.00    +0.040 A 
ATOM      6  C   UNL     1       1.103   4.558  -3.627  0.00  0.00    +0.058 A 
ENDROOT
BRANCH   5   7
ATOM      7  C   UNL     1      -0.538   3.958  -1.851  0.00  0.00    +0.247 C 
ATOM      8  O   UNL     1      -0.412   4.994  -1.228  0.00  0.00    -0.270 OA
ATOM      9  N   UNL     1      -1.598   3.158  -1.621  0.00  0.00    -0.293 N 
ATOM     10  C   UNL     1      -2.543   3.449  -0.533  0.00  0.00    +0.114 C 
ATOM     11  C   UNL     1      -3.919   3.758  -1.133  0.00  0.00    +0.072 C 
ATOM     12  C   UNL     1      -4.239   2.730  -2.192  0.00  0.00    +0.023 A 
ATOM     13  C   UNL     1      -3.315   1.935  -2.778  0.00  0.00    -0.002 A 
ATOM     14  C   UNL     1      -4.012   1.099  -3.731  0.00  0.00    +0.005 A 
ATOM     15  C   UNL     1      -3.586   0.107  -4.618  0.00  0.00    +0.010 A 
ATOM     16  C   UNL     1      -4.548  -0.491  -5.394  0.00  0.00    +0.001 A 
ATOM     17  C   UNL     1      -5.885  -0.136  -5.313  0.00  0.00    +0.002 A 
ATOM     18  C   UNL     1      -6.337   0.844  -4.447  0.00  0.00    +0.026 A 
ATOM     19  C   UNL     1      -5.383   1.469  -3.647  0.00  0.00    +0.047 A 
ATOM     20  N   UNL     1      -5.480   2.453  -2.705  0.00  0.00    -0.358 N 
ATOM     21  H   UNL     1      -6.304   2.891  -2.439  0.00  0.00    +0.166 HD
ATOM     22  C   UNL     1      -1.842   1.966  -2.454  0.00  0.00    +0.145 C 
ENDBRANCH   5   7
BRANCH   1  23
ATOM     23  O   UNL     1       2.671   5.147  -5.311  0.00  0.00    -0.486 OA
BRANCH  23  24
ATOM     24  C   UNL     1       3.635   4.699  -6.267  0.00  0.00    +0.286 C 
BRANCH  24  31
ATOM     25  C   UNL     1       5.619  11.268  -9.011  0.00  0.00    +0.045 C 
ATOM     26  C   UNL     1       5.549   9.780  -8.784  0.00  0.00    -0.034 A 
ATOM     27  C   UNL     1       6.361   8.918  -9.540  0.00  0.00    +0.008 A 
ATOM     28  C   UNL     1       6.295   7.576  -9.332  0.00  0.00    +0.047 A 
ATOM     29  C   UNL     1       5.410   7.070  -8.358  0.00  0.00    +0.138 A 
ATOM     30  N   UNL     1       5.141   5.838  -7.950  0.00  0.00    -0.229 NA
ATOM     31  C   UNL     1       4.214   5.887  -6.991  0.00  0.00    +0.097 A 
ATOM     32  C   UNL     1       3.877   7.178  -6.782  0.00  0.00    +0.119 A 
ATOM     33  N   UNL     1       4.630   7.936  -7.636  0.00  0.00    -0.306 N 
ATOM     34  C   UNL     1       4.707   9.281  -7.855  0.00  0.00    +0.096 A 
ENDBRANCH  24  31
ENDBRANCH  23  24
ENDBRANCH   1  23
TORSDOF 4
