REMARK  Name = ZINC16675610
REMARK  13 active torsions:
REMARK  status: ('A' for Active; 'I' for Inactive)
REMARK    1  A    between atoms: C_1  and  C_2
REMARK    2  A    between atoms: C_2  and  C_3
REMARK    3  A    between atoms: C_3  and  C_4
REMARK    4  A    between atoms: C_4  and  C_5
REMARK    5  A    between atoms: C_5  and  C_6
REMARK    6  A    between atoms: C_6  and  O_7
REMARK    7  A    between atoms: O_7  and  C_8
REMARK    8  A    between atoms: C_11  and  N_14
REMARK    9  A    between atoms: C_18  and  S_22
REMARK   10  A    between atoms: S_22  and  C_23
REMARK   11  A    between atoms: N_25  and  N_26
REMARK   12  A    between atoms: C_27  and  C_28
REMARK   13  A    between atoms: C_27  and  C_29
REMARK                            x       y       z     vdW  Elec       q    Type
REMARK                         _______ _______ _______ _____ _____    ______ ____
ROOT
ATOM      1  N   UNL     1       2.575  -9.986  -4.370  0.00  0.00    -0.209 N 
ATOM      2  C   UNL     1       2.162 -10.862  -3.445  0.00  0.00    +0.228 C 
ATOM      3  O   UNL     1       1.658 -10.575  -2.381  0.00  0.00    -0.275 OA
ATOM      4  C   UNL     1       2.424 -12.268  -3.940  0.00  0.00    +0.120 C 
ATOM      5  C   UNL     1       3.067 -12.050  -5.325  0.00  0.00    +0.149 C 
ATOM      6  C   UNL     1       3.095 -10.544  -5.470  0.00  0.00    +0.240 C 
ATOM      7  O   UNL     1       3.523  -9.939  -6.429  0.00  0.00    -0.274 OA
ENDROOT
BRANCH   1  11
ATOM      8  C   UNL     1       2.249  -5.857  -3.870  0.00  0.00    +0.121 A 
ATOM      9  C   UNL     1       1.489  -6.501  -4.836  0.00  0.00    +0.047 A 
ATOM     10  C   UNL     1       1.596  -7.868  -5.002  0.00  0.00    +0.027 A 
ATOM     11  C   UNL     1       2.465  -8.597  -4.202  0.00  0.00    +0.044 A 
ATOM     12  C   UNL     1       3.226  -7.953  -3.236  0.00  0.00    +0.027 A 
ATOM     13  C   UNL     1       3.122  -6.585  -3.075  0.00  0.00    +0.047 A 
BRANCH   8  14
ATOM     14  O   UNL     1       2.143  -4.512  -3.708  0.00  0.00    -0.492 OA
BRANCH  14  15
ATOM     15  C   UNL     1       1.225  -3.825  -4.561  0.00  0.00    +0.229 C 
BRANCH  15  16
ATOM     16  C   UNL     1       1.244  -2.331  -4.234  0.00  0.00    +0.041 C 
BRANCH  16  17
ATOM     17  C   UNL     1       0.261  -1.596  -5.147  0.00  0.00    +0.003 C 
BRANCH  17  18
ATOM     18  C   UNL     1       0.279  -0.102  -4.819  0.00  0.00    -0.000 C 
BRANCH  18  20
ATOM     19  C   UNL     1      -0.685   2.127  -5.405  0.00  0.00    +0.004 C 
ATOM     20  C   UNL     1      -0.704   0.633  -5.733  0.00  0.00    -0.003 C 
ENDBRANCH  18  20
ENDBRANCH  17  18
ENDBRANCH  16  17
ENDBRANCH  15  16
ENDBRANCH  14  15
ENDBRANCH   8  14
ENDBRANCH   1  11
BRANCH   5  21
ATOM     21  S   UNL     1       4.745 -12.737  -5.365  0.00  0.00    -0.078 S 
BRANCH  21  22
ATOM     22  C   UNL     1       5.251 -12.530  -7.040  0.00  0.00    +0.146 C 
ATOM     23  N   UNL     1       4.441 -11.979  -7.902  0.00  0.00    -0.380 N 
ATOM     24  N   UNL     1       6.500 -12.948  -7.439  0.00  0.00    -0.217 N 
ATOM     25  H   UNL     1       4.719 -11.865  -8.825  0.00  0.00    +0.158 HD
ATOM     26  H   UNL     1       7.102 -13.357  -6.798  0.00  0.00    +0.176 HD
ATOM     27  H   UNL     1       3.561 -11.684  -7.621  0.00  0.00    +0.158 HD
BRANCH  24  28
ATOM     28  N   UNL     1       6.902 -12.784  -8.771  0.00  0.00    -0.185 NA
ATOM     29  C   UNL     1       8.079 -13.178  -9.147  0.00  0.00    +0.063 C 
ATOM     30  C   UNL     1       9.015 -13.814  -8.151  0.00  0.00    +0.068 C 
BRANCH  29  31
ATOM     31  C   UNL     1       8.502 -13.005 -10.550  0.00  0.00    -0.002 A 
ATOM     32  C   UNL     1       9.767 -13.434 -10.959  0.00  0.00    +0.012 A 
ATOM     33  C   UNL     1      10.157 -13.270 -12.271  0.00  0.00    +0.039 A 
ATOM     34  C   UNL     1       9.296 -12.680 -13.184  0.00  0.00    +0.123 A 
ATOM     35  C   UNL     1       8.040 -12.252 -12.784  0.00  0.00    +0.039 A 
ATOM     36  C   UNL     1       7.637 -12.416 -11.475  0.00  0.00    +0.012 A 
ATOM     37  F   UNL     1       9.684 -12.521 -14.468  0.00  0.00    -0.205 F 
ENDBRANCH  29  31
ENDBRANCH  24  28
ENDBRANCH  21  22
ENDBRANCH   5  21
TORSDOF 11
