REMARK  Name = ZINC60359996
REMARK  7 active torsions:
REMARK  status: ('A' for Active; 'I' for Inactive)
REMARK    1  A    between atoms: C_1  and  C_2
REMARK    2  A    between atoms: C_2  and  C_3
REMARK    3  A    between atoms: C_2  and  C_4
REMARK    4  A    between atoms: C_4  and  C_6
REMARK    5  A    between atoms: C_4  and  N_15
REMARK    6  A    between atoms: C_16  and  C_18
REMARK    7  A    between atoms: C_22  and  N_24
REMARK                            x       y       z     vdW  Elec       q    Type
REMARK                         _______ _______ _______ _____ _____    ______ ____
ROOT
ATOM      1  C   UNL     1      -1.551  -4.188   1.163  0.00  0.00    +0.039 A 
ATOM      2  C   UNL     1      -1.368  -4.850  -0.052  0.00  0.00    +0.013 A 
ATOM      3  C   UNL     1      -1.071  -6.198  -0.066  0.00  0.00    +0.003 A 
ATOM      4  C   UNL     1      -0.953  -6.896   1.122  0.00  0.00    +0.025 A 
ATOM      5  C   UNL     1      -1.134  -6.246   2.337  0.00  0.00    +0.057 A 
ATOM      6  C   UNL     1      -1.426  -4.891   2.361  0.00  0.00    +0.038 A 
ENDROOT
BRANCH   5   7
ATOM      7  N   UNL     1      -1.014  -6.958   3.536  0.00  0.00    -0.188 N 
ATOM      8  C   UNL     1      -1.652  -8.137   3.686  0.00  0.00    +0.240 C 
ATOM      9  O   UNL     1      -2.372  -8.557   2.804  0.00  0.00    -0.273 OA
ATOM     10  C   UNL     1      -1.466  -8.928   4.952  0.00  0.00    +0.093 C 
ATOM     11  C   UNL     1      -1.706 -10.416   4.690  0.00  0.00    +0.040 C 
ATOM     12  C   UNL     1      -1.270 -11.216   5.886  0.00  0.00    -0.030 C 
ATOM     13  C   UNL     1      -0.490 -10.765   6.816  0.00  0.00    -0.030 C 
ATOM     14  C   UNL     1       0.086  -9.378   6.834  0.00  0.00    +0.040 C 
ATOM     15  C   UNL     1      -0.023  -8.746   5.448  0.00  0.00    +0.092 C 
ATOM     16  C   UNL     1       0.293  -7.276   5.503  0.00  0.00    +0.234 C 
ATOM     17  O   UNL     1       1.015  -6.840   6.375  0.00  0.00    -0.274 OA
ATOM     18  N   UNL     1      -0.226  -6.448   4.576  0.00  0.00    -0.227 N 
ATOM     19  H   UNL     1      -0.055  -5.495   4.631  0.00  0.00    +0.173 HD
ENDBRANCH   5   7
BRANCH   1  21
ATOM     20  N   UNL     1      -1.990  -2.067   0.022  0.00  0.00    -0.301 N 
ATOM     21  C   UNL     1      -1.870  -2.744   1.181  0.00  0.00    +0.245 C 
ATOM     22  O   UNL     1      -2.023  -2.169   2.240  0.00  0.00    -0.270 OA
ATOM     23  H   UNL     1      -1.867  -2.526  -0.823  0.00  0.00    +0.150 HD
BRANCH  20  24
ATOM     24  C   UNL     1      -2.305  -0.636   0.039  0.00  0.00    +0.144 C 
BRANCH  24  25
ATOM     25  C   UNL     1      -2.972  -0.253  -1.257  0.00  0.00    +0.158 A 
ATOM     26  N   UNL     1      -2.597  -0.616  -2.456  0.00  0.00    -0.132 NA
ATOM     27  N   UNL     1      -3.385  -0.114  -3.341  0.00  0.00    -0.129 NA
ATOM     28  C   UNL     1      -4.319   0.606  -2.742  0.00  0.00    +0.161 A 
ATOM     29  N   UNL     1      -4.078   0.528  -1.393  0.00  0.00    -0.285 N 
ATOM     30  C   UNL     1      -4.889   1.174  -0.507  0.00  0.00    +0.094 A 
ATOM     31  C   UNL     1      -5.942   1.896  -0.943  0.00  0.00    +0.018 A 
ATOM     32  C   UNL     1      -6.217   1.992  -2.318  0.00  0.00    +0.005 A 
ATOM     33  C   UNL     1      -5.412   1.360  -3.213  0.00  0.00    +0.048 A 
ENDBRANCH  24  25
BRANCH  24  35
ATOM     34  C   UNL     1      -1.345   1.663   0.225  0.00  0.00    +0.009 C 
ATOM     35  C   UNL     1      -1.015   0.169   0.207  0.00  0.00    +0.011 C 
ATOM     36  C   UNL     1      -0.338  -0.220   1.522  0.00  0.00    +0.009 C 
ENDBRANCH  24  35
ENDBRANCH  20  24
ENDBRANCH   1  21
TORSDOF 5
