REMARK  Name = ZINC17297491
REMARK  10 active torsions:
REMARK  status: ('A' for Active; 'I' for Inactive)
REMARK    1  A    between atoms: C_1  and  C_2
REMARK    2  A    between atoms: C_2  and  O_3
REMARK    3  A    between atoms: O_3  and  C_4
REMARK    4  A    between atoms: C_4  and  C_6
REMARK    5  A    between atoms: C_10  and  N_11
REMARK    6  A    between atoms: C_12  and  C_14
REMARK    7  A    between atoms: C_14  and  C_15
REMARK    8  A    between atoms: N_19  and  C_24
REMARK    9  A    between atoms: N_21  and  C_22
REMARK   10  A    between atoms: C_26  and  C_30
REMARK                            x       y       z     vdW  Elec       q    Type
REMARK                         _______ _______ _______ _____ _____    ______ ____
ROOT
ATOM      1  C   UNL     1      -3.033  -1.476  -0.195  0.00  0.00    +0.091 A 
ATOM      2  C   UNL     1      -3.769  -1.768  -1.413  0.00  0.00    -0.021 A 
ATOM      3  C   UNL     1      -4.939  -2.411  -1.211  0.00  0.00    -0.004 A 
ATOM      4  S   UNL     1      -5.042  -2.616   0.543  0.00  0.00    -0.077 S 
ATOM      5  C   UNL     1      -3.600  -1.888   1.002  0.00  0.00    +0.086 A 
ATOM      6  C   UNL     1      -5.919  -2.846  -2.256  0.00  0.00    +0.046 C 
ATOM      7  C   UNL     1      -5.580  -2.119  -3.567  0.00  0.00    -0.009 C 
ATOM      8  C   UNL     1      -4.077  -2.243  -3.828  0.00  0.00    +0.008 C 
ATOM      9  C   UNL     1      -3.301  -1.399  -2.813  0.00  0.00    +0.037 C 
ATOM     10  C   UNL     1      -6.357  -2.756  -4.721  0.00  0.00    +0.008 C 
ENDROOT
BRANCH   5  11
ATOM     11  N   UNL     1      -3.093  -1.733   2.283  0.00  0.00    -0.279 N 
ATOM     12  C   UNL     1      -3.785  -2.200   3.342  0.00  0.00    +0.219 C 
ATOM     13  O   UNL     1      -4.850  -2.755   3.174  0.00  0.00    -0.275 OA
ATOM     14  H   UNL     1      -2.241  -1.290   2.417  0.00  0.00    +0.155 HD
BRANCH  12  15
ATOM     15  C   UNL     1      -3.234  -2.031   4.734  0.00  0.00    +0.120 C 
BRANCH  15  16
ATOM     16  C   UNL     1      -4.206  -2.643   5.745  0.00  0.00    +0.149 C 
ATOM     17  C   UNL     1      -3.675  -2.521   7.164  0.00  0.00    +0.235 C 
ATOM     18  O   UNL     1      -2.642  -3.053   7.513  0.00  0.00    -0.274 OA
ATOM     19  N   UNL     1      -4.409  -1.800   7.994  0.00  0.00    -0.253 N 
ATOM     20  C   UNL     1      -5.585  -1.191   7.603  0.00  0.00    +0.158 C 
ATOM     21  N   UNL     1      -6.391  -0.461   8.321  0.00  0.00    -0.266 NA
ATOM     22  C   UNL     1      -6.014  -0.079   9.684  0.00  0.00    +0.173 C 
ATOM     23  S   UNL     1      -5.745  -1.643   5.880  0.00  0.00    -0.077 S 
ATOM     24  C   UNL     1      -3.957  -1.639   9.378  0.00  0.00    +0.140 C 
ENDBRANCH  15  16
ENDBRANCH  12  15
ENDBRANCH   5  11
BRANCH   1  25
ATOM     25  C   UNL     1      -1.744  -0.782  -0.230  0.00  0.00    +0.342 C 
ATOM     26  O   UNL     1      -0.713  -1.419  -0.328  0.00  0.00    -0.245 OA
BRANCH  25  27
ATOM     27  O   UNL     1      -1.701   0.564  -0.154  0.00  0.00    -0.461 OA
BRANCH  27  29
ATOM     28  C   UNL     1      -0.560   2.694  -0.096  0.00  0.00    +0.048 C 
ATOM     29  C   UNL     1      -0.409   1.175  -0.194  0.00  0.00    +0.229 C 
ENDBRANCH  27  29
ENDBRANCH  25  27
ENDBRANCH   1  25
TORSDOF 6
