REMARK  Name = ZINC02068691
REMARK  11 active torsions:
REMARK  status: ('A' for Active; 'I' for Inactive)
REMARK    1  A    between atoms: C_1  and  C_2
REMARK    2  A    between atoms: C_2  and  C_3
REMARK    3  A    between atoms: C_3  and  C_4
REMARK    4  A    between atoms: C_7  and  C_10
REMARK    5  A    between atoms: C_16  and  C_25
REMARK    6  A    between atoms: C_19  and  C_24
REMARK    7  A    between atoms: C_21  and  C_22
REMARK    8  A    between atoms: C_21  and  C_23
REMARK    9  A    between atoms: C_25  and  C_37
REMARK   10  A    between atoms: C_27  and  C_35
REMARK   11  A    between atoms: C_27  and  C_36
REMARK                            x       y       z     vdW  Elec       q    Type
REMARK                         _______ _______ _______ _____ _____    ______ ____
ROOT
ATOM      1  C   UNL     1       1.629   0.755   9.069  0.00  0.00    +0.252 C 
ATOM      2  O   UNL     1       1.944   1.062  10.202  0.00  0.00    -0.270 OA
ATOM      3  N   UNL     1       2.531   0.178   8.251  0.00  0.00    -0.258 N 
ATOM      4  C   UNL     1       2.151  -0.320   7.001  0.00  0.00    +0.045 A 
ATOM      5  C   UNL     1       0.883  -0.818   6.771  0.00  0.00    +0.024 A 
ATOM      6  C   UNL     1       0.555  -1.304   5.517  0.00  0.00    +0.006 A 
ATOM      7  C   UNL     1       1.488  -1.295   4.495  0.00  0.00    -0.036 A 
ATOM      8  C   UNL     1       2.761  -0.804   4.712  0.00  0.00    +0.014 A 
ATOM      9  C   UNL     1       3.100  -0.306   5.966  0.00  0.00    -0.001 A 
ATOM     10  C   UNL     1       4.444   0.239   6.242  0.00  0.00    -0.043 C 
ATOM     11  C   UNL     1       4.835   0.416   7.498  0.00  0.00    +0.002 C 
ATOM     12  C   UNL     1       3.939   0.054   8.652  0.00  0.00    +0.056 C 
ATOM     13  C   UNL     1       4.217   0.995   9.826  0.00  0.00    +0.036 C 
ATOM     14  C   UNL     1       4.221  -1.388   9.078  0.00  0.00    +0.036 C 
ATOM     15  C   UNL     1       5.366   0.594   5.104  0.00  0.00    +0.044 C 
ENDROOT
BRANCH   7  16
ATOM     16  C   UNL     1       1.115  -1.830   3.136  0.00  0.00    +0.022 C 
ATOM     17  C   UNL     1       0.643  -3.263   3.329  0.00  0.00    +0.041 C 
ATOM     18  C   UNL     1      -0.232  -3.788   2.198  0.00  0.00    +0.028 C 
ATOM     19  N   UNL     1      -1.312  -2.844   1.905  0.00  0.00    -0.339 N 
ATOM     20  C   UNL     1      -1.119  -1.467   2.020  0.00  0.00    +0.032 A 
ATOM     21  C   UNL     1       0.038  -0.944   2.571  0.00  0.00    -0.016 A 
ATOM     22  C   UNL     1       0.217   0.430   2.592  0.00  0.00    +0.006 A 
ATOM     23  C   UNL     1      -0.765   1.273   2.106  0.00  0.00    +0.000 A 
ATOM     24  C   UNL     1      -1.935   0.751   1.587  0.00  0.00    +0.002 A 
ATOM     25  C   UNL     1      -2.110  -0.617   1.537  0.00  0.00    +0.023 A 
ATOM     26  C   UNL     1       0.580  -4.069   0.932  0.00  0.00    +0.031 C 
ATOM     27  C   UNL     1      -0.872  -5.117   2.654  0.00  0.00    +0.031 C 
ATOM     28  C   UNL     1       2.362  -1.769   2.256  0.00  0.00    +0.021 C 
ATOM     29  H   UNL     1      -2.185  -3.183   1.623  0.00  0.00    +0.147 HD
ENDBRANCH   7  16
BRANCH   1  33
ATOM     30  C   UNL     1      -2.317   1.504   7.685  0.00  0.00    -0.047 A 
ATOM     31  C   UNL     1      -2.090   1.284   9.031  0.00  0.00    +0.004 A 
ATOM     32  C   UNL     1      -0.811   1.040   9.488  0.00  0.00    +0.013 A 
ATOM     33  C   UNL     1       0.256   1.016   8.587  0.00  0.00    +0.037 A 
ATOM     34  C   UNL     1       0.020   1.244   7.230  0.00  0.00    +0.013 A 
ATOM     35  C   UNL     1      -1.264   1.482   6.787  0.00  0.00    +0.004 A 
BRANCH  30  36
ATOM     36  C   UNL     1      -3.716   1.770   7.194  0.00  0.00    +0.035 C 
BRANCH  36  38
ATOM     37  C   UNL     1      -5.413   3.544   6.727  0.00  0.00    +0.004 C 
ATOM     38  C   UNL     1      -3.991   3.274   7.226  0.00  0.00    +0.001 C 
ENDBRANCH  36  38
ENDBRANCH  30  36
ENDBRANCH   1  33
TORSDOF 4
