REMARK  Name = ZINC09503202
REMARK  10 active torsions:
REMARK  status: ('A' for Active; 'I' for Inactive)
REMARK    1  A    between atoms: C_1  and  C_2
REMARK    2  A    between atoms: C_2  and  C_35
REMARK    3  A    between atoms: C_5  and  S_13
REMARK    4  A    between atoms: N_9  and  C_12
REMARK    5  A    between atoms: S_13  and  N_16
REMARK    6  A    between atoms: N_16  and  C_17
REMARK    7  A    between atoms: C_17  and  C_18
REMARK    8  A    between atoms: C_21  and  C_24
REMARK    9  A    between atoms: N_26  and  C_27
REMARK   10  A    between atoms: C_27  and  C_28
REMARK                            x       y       z     vdW  Elec       q    Type
REMARK                         _______ _______ _______ _____ _____    ______ ____
ROOT
ATOM      1  C   UNL     1      -0.273   8.126   2.488  0.00  0.00    +0.109 C 
ENDROOT
BRANCH   1   2
ATOM      2  C   UNL     1      -0.694   8.863   3.760  0.00  0.00    +0.005 C 
ATOM      3  C   UNL     1      -1.200  10.261   3.396  0.00  0.00    +0.005 C 
ATOM      4  C   UNL     1      -1.621  10.998   4.669  0.00  0.00    +0.013 C 
ATOM      5  C   UNL     1      -0.421  11.119   5.609  0.00  0.00    +0.075 C 
ATOM      6  C   UNL     1       0.085   9.722   5.974  0.00  0.00    +0.013 C 
ATOM      7  C   UNL     1       0.506   8.984   4.701  0.00  0.00    +0.005 C 
BRANCH   5   8
ATOM      8  C   UNL     1       0.679  11.888   4.924  0.00  0.00    +0.216 C 
ATOM      9  O   UNL     1       1.761  11.370   4.745  0.00  0.00    -0.276 OA
ATOM     10  N   UNL     1       0.461  13.152   4.511  0.00  0.00    -0.311 N 
ATOM     11  H   UNL     1      -0.404  13.567   4.654  0.00  0.00    +0.149 HD
BRANCH  10  12
ATOM     12  C   UNL     1       1.530  13.900   3.845  0.00  0.00    +0.141 C 
BRANCH  12  13
ATOM     13  C   UNL     1       1.032  15.277   3.486  0.00  0.00    -0.012 A 
ATOM     14  C   UNL     1       0.627  15.550   2.193  0.00  0.00    +0.006 A 
ATOM     15  C   UNL     1       0.166  16.811   1.865  0.00  0.00    +0.000 A 
ATOM     16  C   UNL     1       0.119  17.803   2.828  0.00  0.00    +0.001 A 
ATOM     17  C   UNL     1       0.529  17.532   4.119  0.00  0.00    +0.020 A 
ATOM     18  C   UNL     1       0.986  16.268   4.449  0.00  0.00    +0.046 A 
ATOM     19 CL   UNL     1       1.501  15.928   6.072  0.00  0.00    -0.083 Cl
ENDBRANCH  12  13
ENDBRANCH  10  12
ENDBRANCH   5   8
ENDBRANCH   1   2
BRANCH   1  20
ATOM     20  N   UNL     1      -1.447   7.905   1.640  0.00  0.00    -0.190 NA
ATOM     21  H   UNL     1      -2.338   8.012   2.008  0.00  0.00    +0.148 HD
BRANCH  20  22
ATOM     22  S   UNL     1      -1.252   7.471   0.053  0.00  0.00    +0.058 S 
ATOM     23  O   UNL     1      -0.307   8.374  -0.502  0.00  0.00    -0.153 OA
ATOM     24  O   UNL     1      -2.557   7.307  -0.485  0.00  0.00    -0.153 OA
BRANCH  22  29
ATOM     25  C   UNL     1      -2.086   1.853  -1.237  0.00  0.00    +0.025 C 
ATOM     26  C   UNL     1      -1.244   2.091   0.019  0.00  0.00    +0.068 C 
ATOM     27  C   UNL     1      -0.688   3.497   0.027  0.00  0.00    -0.010 A 
ATOM     28  C   UNL     1      -1.282   4.739   0.039  0.00  0.00    +0.035 A 
ATOM     29  C   UNL     1      -0.497   5.879   0.038  0.00  0.00    +0.106 A 
ATOM     30  C   UNL     1       0.881   5.765   0.024  0.00  0.00    +0.030 A 
ATOM     31  C   UNL     1       1.478   4.522   0.012  0.00  0.00    +0.026 A 
ATOM     32  C   UNL     1       0.695   3.369   0.013  0.00  0.00    +0.040 A 
ATOM     33  N   UNL     1       1.056   2.022   0.003  0.00  0.00    -0.273 N 
ATOM     34  C   UNL     1      -0.014   1.209   0.009  0.00  0.00    +0.230 C 
ATOM     35  O   UNL     1       0.002  -0.004   0.002  0.00  0.00    -0.274 OA
ATOM     36  C   UNL     1       2.442   1.547  -0.013  0.00  0.00    +0.138 C 
ATOM     37  C   UNL     1      -2.075   1.839   1.278  0.00  0.00    +0.025 C 
ENDBRANCH  22  29
ENDBRANCH  20  22
ENDBRANCH   1  20
TORSDOF 7
