REMARK  Name = ZINC14276444
REMARK  9 active torsions:
REMARK  status: ('A' for Active; 'I' for Inactive)
REMARK    1  A    between atoms: C_1  and  C_2
REMARK    2  A    between atoms: C_2  and  C_3
REMARK    3  A    between atoms: C_2  and  C_4
REMARK    4  A    between atoms: C_2  and  C_5
REMARK    5  A    between atoms: C_12  and  N_16
REMARK    6  A    between atoms: C_13  and  C_14
REMARK    7  A    between atoms: N_16  and  C_17
REMARK    8  A    between atoms: C_17  and  N_19
REMARK    9  A    between atoms: C_20  and  C_22
REMARK                            x       y       z     vdW  Elec       q    Type
REMARK                         _______ _______ _______ _____ _____    ______ ____
ROOT
ATOM      1  N   UNL     1       3.526   7.330   0.007  0.00  0.00    -0.290 N 
ATOM      2  H   UNL     1       2.678   7.799   0.018  0.00  0.00    +0.154 HD
ENDROOT
BRANCH   1   9
ATOM      3  C   UNL     1       8.972  10.652  -0.409  0.00  0.00    -0.000 C 
ATOM      4  C   UNL     1       8.072  11.553   0.442  0.00  0.00    +0.009 C 
ATOM      5  C   UNL     1       6.616  11.402  -0.001  0.00  0.00    +0.037 C 
ATOM      6  C   UNL     1       6.256   9.921  -0.006  0.00  0.00    -0.018 A 
ATOM      7  C   UNL     1       7.218   8.972  -0.021  0.00  0.00    -0.004 A 
ATOM      8  S   UNL     1       6.337   7.436  -0.013  0.00  0.00    -0.077 S 
ATOM      9  C   UNL     1       4.715   8.045  -0.001  0.00  0.00    +0.089 A 
ATOM     10  C   UNL     1       4.893   9.420   0.004  0.00  0.00    +0.084 A 
ATOM     11  C   UNL     1       8.700   9.187  -0.036  0.00  0.00    +0.047 C 
BRANCH   3  13
ATOM     12  C   UNL     1      10.746  10.759   1.347  0.00  0.00    +0.011 C 
ATOM     13  C   UNL     1      10.439  10.987  -0.135  0.00  0.00    -0.035 C 
ATOM     14  C   UNL     1      11.336  10.085  -0.986  0.00  0.00    +0.011 C 
ATOM     15  C   UNL     1      10.704  12.451  -0.491  0.00  0.00    +0.011 C 
ENDBRANCH   3  13
BRANCH  10  16
ATOM     16  C   UNL     1       3.774  10.314   0.020  0.00  0.00    +0.102 C 
ATOM     17  N   UNL     1       2.886  11.023   0.032  0.00  0.00    -0.191 NA
ENDBRANCH  10  16
ENDBRANCH   1   9
BRANCH   1  18
ATOM     18  C   UNL     1       3.550   5.982  -0.001  0.00  0.00    +0.141 C 
ATOM     19  S   UNL     1       5.048   5.153  -0.020  0.00  0.00    -0.018 S 
BRANCH  18  20
ATOM     20  N   UNL     1       2.395   5.287   0.007  0.00  0.00    -0.264 N 
ATOM     21  C   UNL     1       2.420   3.940  -0.000  0.00  0.00    +0.251 C 
ATOM     22  O   UNL     1       3.483   3.351  -0.014  0.00  0.00    -0.270 OA
ATOM     23  H   UNL     1       1.547   5.757   0.018  0.00  0.00    +0.157 HD
BRANCH  21  24
ATOM     24  C   UNL     1       1.154   3.178   0.008  0.00  0.00    +0.056 A 
ATOM     25  C   UNL     1      -0.070   3.852   0.023  0.00  0.00    +0.029 A 
ATOM     26  C   UNL     1      -1.248   3.134   0.031  0.00  0.00    +0.019 A 
ATOM     27  C   UNL     1      -1.220   1.749   0.017  0.00  0.00    +0.017 A 
ATOM     28  C   UNL     1      -0.013   1.076   0.008  0.00  0.00    +0.022 A 
ATOM     29  C   UNL     1       1.175   1.781   0.000  0.00  0.00    +0.053 A 
ATOM     30 CL   UNL     1       2.690   0.934  -0.018  0.00  0.00    -0.083 Cl
ATOM     31 BR   UNL     1      -2.906   4.044   0.051  0.00  0.00    -0.050 Br
ENDBRANCH  21  24
ENDBRANCH  18  20
ENDBRANCH   1  18
TORSDOF 6
