REMARK  Name = ZINC11114783
REMARK  8 active torsions:
REMARK  status: ('A' for Active; 'I' for Inactive)
REMARK    1  A    between atoms: C_1  and  C_2
REMARK    2  A    between atoms: C_4  and  C_30
REMARK    3  A    between atoms: C_5  and  N_9
REMARK    4  A    between atoms: C_12  and  C_15
REMARK    5  A    between atoms: C_15  and  O_16
REMARK    6  A    between atoms: O_16  and  C_17
REMARK    7  A    between atoms: C_22  and  C_23
REMARK    8  A    between atoms: C_27  and  C_29
REMARK                            x       y       z     vdW  Elec       q    Type
REMARK                         _______ _______ _______ _____ _____    ______ ____
ROOT
ATOM      1  N   UNL     1      -5.434  -4.136   0.007  0.00  0.00    -0.217 N 
ATOM      2  C   UNL     1      -5.067  -2.794   0.011  0.00  0.00    +0.172 A 
ATOM      3  N   UNL     1      -3.859  -2.266   0.006  0.00  0.00    -0.226 NA
ATOM      4  C   UNL     1      -3.684  -0.959   0.010  0.00  0.00    +0.088 A 
ATOM      5  C   UNL     1      -4.780  -0.161   0.026  0.00  0.00    +0.075 A 
ATOM      6  S   UNL     1      -6.082  -1.385   0.023  0.00  0.00    -0.060 S 
ATOM      7  C   UNL     1      -4.491  -5.093  -0.105  0.00  0.00    +0.223 C 
ATOM      8  O   UNL     1      -3.317  -4.789  -0.110  0.00  0.00    -0.275 OA
ATOM      9  C   UNL     1      -4.896  -6.540  -0.224  0.00  0.00    +0.110 C 
ENDROOT
BRANCH   1  14
ATOM     10  C   UNL     1     -10.904  -5.582   0.466  0.00  0.00    +0.044 C 
ATOM     11  C   UNL     1      -9.451  -5.199   0.343  0.00  0.00    -0.049 A 
ATOM     12  C   UNL     1      -8.678  -5.055   1.481  0.00  0.00    +0.008 A 
ATOM     13  C   UNL     1      -7.345  -4.709   1.372  0.00  0.00    -0.027 A 
ATOM     14  C   UNL     1      -6.785  -4.493   0.120  0.00  0.00    +0.064 A 
ATOM     15  C   UNL     1      -7.564  -4.638  -1.021  0.00  0.00    +0.063 A 
ATOM     16  C   UNL     1      -8.896  -4.990  -0.905  0.00  0.00    +0.025 A 
ATOM     17 CL   UNL     1      -6.867  -4.376  -2.589  0.00  0.00    -0.082 Cl
ATOM     18  C   UNL     1      -6.501  -4.560   2.612  0.00  0.00    +0.046 C 
ENDBRANCH   1  14
BRANCH   4  19
ATOM     19  C   UNL     1      -2.299  -0.366   0.005  0.00  0.00    +0.285 C 
BRANCH  19  20
ATOM     20  O   UNL     1      -2.391   1.060   0.012  0.00  0.00    -0.485 OA
BRANCH  20  21
ATOM     21  C   UNL     1      -1.224   1.752   0.009  0.00  0.00    +0.133 A 
ATOM     22  C   UNL     1      -0.013   1.077  -0.001  0.00  0.00    +0.048 A 
ATOM     23  C   UNL     1       1.173   1.782  -0.011  0.00  0.00    +0.023 A 
ATOM     24  C   UNL     1       1.165   3.169  -0.005  0.00  0.00    +0.042 A 
ATOM     25  C   UNL     1      -0.031   3.856   0.011  0.00  0.00    +0.036 A 
ATOM     26  C   UNL     1      -1.238   3.154   0.021  0.00  0.00    +0.079 A 
ATOM     27 CL   UNL     1       2.664   4.042  -0.017  0.00  0.00    -0.084 Cl
BRANCH  26  28
ATOM     28  C   UNL     1      -2.521   3.883   0.038  0.00  0.00    +0.245 C 
ATOM     29  O   UNL     1      -3.570   3.268   0.047  0.00  0.00    -0.270 OA
ATOM     30  N   UNL     1      -2.529   5.231   0.044  0.00  0.00    -0.325 N 
ATOM     31  H   UNL     1      -1.693   5.721   0.037  0.00  0.00    +0.145 HD
ATOM     32  H   UNL     1      -3.373   5.710   0.055  0.00  0.00    +0.145 HD
ENDBRANCH  26  28
ENDBRANCH  20  21
ENDBRANCH  19  20
ENDBRANCH   4  19
TORSDOF 5
