REMARK  Name = ZINC13033351
REMARK  10 active torsions:
REMARK  status: ('A' for Active; 'I' for Inactive)
REMARK    1  A    between atoms: C_1  and  C_2
REMARK    2  A    between atoms: C_5  and  C_8
REMARK    3  A    between atoms: C_8  and  N_69
REMARK    4  A    between atoms: C_9  and  C_10
REMARK    5  A    between atoms: C_9  and  N_69
REMARK    6  A    between atoms: C_13  and  C_23
REMARK    7  A    between atoms: C_15  and  C_22
REMARK    8  A    between atoms: C_24  and  C_25
REMARK    9  A    between atoms: C_24  and  N_69
REMARK   10  A    between atoms: N_29  and  C_30
REMARK                            x       y       z     vdW  Elec       q    Type
REMARK                         _______ _______ _______ _____ _____    ______ ____
ROOT
ATOM      1  N   UNL     1      -1.880   4.415   0.187  0.00  0.00    +0.390 N 
ATOM      2  H   UNL     1      -0.873   4.575   0.306  0.00  0.00    -0.080 HD
ENDROOT
BRANCH   1   3
ATOM      3  C   UNL     1      -2.444   5.501  -0.642  0.00  0.00    -0.042 C 
BRANCH   3   8
ATOM      4  C   UNL     1      -0.407  10.556   1.279  0.00  0.00    +0.044 C 
ATOM      5  C   UNL     1      -0.938   9.237   0.778  0.00  0.00    -0.050 A 
ATOM      6  C   UNL     1      -0.188   8.479  -0.101  0.00  0.00    +0.003 A 
ATOM      7  C   UNL     1      -0.675   7.270  -0.561  0.00  0.00    +0.002 A 
ATOM      8  C   UNL     1      -1.913   6.819  -0.141  0.00  0.00    -0.064 A 
ATOM      9  C   UNL     1      -2.665   7.580   0.734  0.00  0.00    +0.002 A 
ATOM     10  C   UNL     1      -2.176   8.787   1.198  0.00  0.00    +0.003 A 
ENDBRANCH   3   8
ENDBRANCH   1   3
BRANCH   1  11
ATOM     11  C   UNL     1      -2.525   4.408   1.517  0.00  0.00    -0.036 C 
BRANCH  11  12
ATOM     12  C   UNL     1      -1.648   3.643   2.475  0.00  0.00    +0.001 A 
ATOM     13  C   UNL     1      -0.734   4.303   3.228  0.00  0.00    +0.017 A 
ATOM     14  C   UNL     1       0.099   3.531   4.152  0.00  0.00    +0.002 A 
ATOM     15  C   UNL     1       1.056   4.157   4.958  0.00  0.00    -0.041 A 
ATOM     16  C   UNL     1       1.821   3.408   5.807  0.00  0.00    +0.007 A 
ATOM     17  C   UNL     1       1.657   2.030   5.876  0.00  0.00    -0.048 A 
ATOM     18  C   UNL     1       0.721   1.393   5.090  0.00  0.00    +0.029 A 
ATOM     19  C   UNL     1      -0.069   2.135   4.219  0.00  0.00    +0.050 A 
ATOM     20  N   UNL     1      -1.013   1.524   3.422  0.00  0.00    -0.322 N 
ATOM     21  H   UNL     1      -1.128   0.562   3.470  0.00  0.00    +0.169 HD
ATOM     22  C   UNL     1      -1.778   2.241   2.580  0.00  0.00    +0.251 A 
ATOM     23  O   UNL     1      -2.603   1.667   1.891  0.00  0.00    -0.268 OA
ATOM     24  C   UNL     1       2.512   1.224   6.819  0.00  0.00    +0.044 C 
ATOM     25  C   UNL     1       1.242   5.651   4.891  0.00  0.00    +0.044 C 
ENDBRANCH  11  12
ENDBRANCH   1  11
BRANCH   1  26
ATOM     26  C   UNL     1      -2.083   3.112  -0.480  0.00  0.00    +0.001 C 
BRANCH  26  27
ATOM     27  C   UNL     1      -1.238   3.067  -1.726  0.00  0.00    +0.135 A 
ATOM     28  N   UNL     1      -1.598   3.437  -2.931  0.00  0.00    -0.115 NA
ATOM     29  N   UNL     1      -0.599   3.246  -3.721  0.00  0.00    -0.023 NA
ATOM     30  N   UNL     1       0.392   2.770  -3.052  0.00  0.00    -0.044 NA
ATOM     31  N   UNL     1       0.035   2.639  -1.819  0.00  0.00    -0.228 N 
BRANCH  31  32
ATOM     32  C   UNL     1       0.863   2.127  -0.723  0.00  0.00    +0.111 C 
ATOM     33  C   UNL     1       2.104   3.008  -0.568  0.00  0.00    +0.027 C 
ATOM     34  C   UNL     1       2.969   2.474   0.576  0.00  0.00    +0.002 C 
ATOM     35  C   UNL     1       3.398   1.039   0.264  0.00  0.00    +0.000 C 
ATOM     36  C   UNL     1       2.156   0.158   0.108  0.00  0.00    +0.002 C 
ATOM     37  C   UNL     1       1.292   0.692  -1.036  0.00  0.00    +0.027 C 
ENDBRANCH  31  32
ENDBRANCH  26  27
ENDBRANCH   1  26
TORSDOF 7
