REMARK  Name = ZINC63279753
REMARK  9 active torsions:
REMARK  status: ('A' for Active; 'I' for Inactive)
REMARK    1  A    between atoms: C_1  and  C_2
REMARK    2  A    between atoms: C_2  and  C_4
REMARK    3  A    between atoms: C_2  and  N_14
REMARK    4  A    between atoms: C_4  and  C_5
REMARK    5  A    between atoms: C_15  and  C_17
REMARK    6  A    between atoms: C_17  and  C_19
REMARK    7  A    between atoms: C_17  and  N_22
REMARK    8  A    between atoms: C_19  and  C_20
REMARK    9  A    between atoms: C_19  and  C_21
REMARK                            x       y       z     vdW  Elec       q    Type
REMARK                         _______ _______ _______ _____ _____    ______ ____
ROOT
ATOM      1  N   UNL     1      -1.164  -0.802   0.018  0.00  0.00    -0.311 N 
ATOM      2  C   UNL     1      -1.895  -0.759   1.150  0.00  0.00    +0.236 C 
ATOM      3  O   UNL     1      -1.375  -0.434   2.196  0.00  0.00    -0.274 OA
ATOM      4  H   UNL     1      -1.580  -1.063  -0.818  0.00  0.00    +0.149 HD
ENDROOT
BRANCH   1   6
ATOM      5  C   UNL     1       0.419   1.060  -0.077  0.00  0.00    +0.028 C 
ATOM      6  C   UNL     1       0.260  -0.457   0.052  0.00  0.00    +0.074 C 
BRANCH   6   7
ATOM      7  C   UNL     1       0.980  -1.146  -1.108  0.00  0.00    +0.055 C 
BRANCH   7   8
ATOM      8  C   UNL     1       0.928  -2.639  -0.916  0.00  0.00    -0.040 C 
ATOM      9  C   UNL     1       0.027  -3.497  -1.447  0.00  0.00    -0.001 A 
ATOM     10  C   UNL     1      -1.131  -3.303  -2.328  0.00  0.00    +0.010 A 
ATOM     11  C   UNL     1      -1.861  -4.380  -2.699  0.00  0.00    +0.001 A 
ATOM     12  C   UNL     1      -1.541  -5.673  -2.263  0.00  0.00    +0.002 A 
ATOM     13  C   UNL     1      -0.493  -5.930  -1.452  0.00  0.00    +0.026 A 
ATOM     14  C   UNL     1       0.344  -4.873  -1.001  0.00  0.00    +0.043 A 
ATOM     15  N   UNL     1       1.400  -4.866  -0.225  0.00  0.00    -0.380 N 
ATOM     16  C   UNL     1       1.877  -3.484  -0.095  0.00  0.00    +0.144 C 
ATOM     17  H   UNL     1       1.802  -5.644   0.191  0.00  0.00    +0.160 HD
ENDBRANCH   7   8
ENDBRANCH   6   7
ENDBRANCH   1   6
BRANCH   2  18
ATOM     18  C   UNL     1      -3.359  -1.115   1.115  0.00  0.00    +0.183 C 
BRANCH  18  19
ATOM     19  N   UNL     1      -3.924  -0.991   2.461  0.00  0.00    -0.205 N 
ATOM     20  C   UNL     1      -5.017  -0.216   2.647  0.00  0.00    +0.264 C 
ATOM     21  O   UNL     1      -5.593   0.299   1.708  0.00  0.00    -0.269 OA
ATOM     22  C   UNL     1      -5.487  -0.020   4.033  0.00  0.00    +0.060 A 
ATOM     23  C   UNL     1      -6.719   0.540   4.341  0.00  0.00    +0.015 A 
ATOM     24  C   UNL     1      -7.080   0.692   5.665  0.00  0.00    +0.001 A 
ATOM     25  C   UNL     1      -6.225   0.289   6.679  0.00  0.00    +0.002 A 
ATOM     26  C   UNL     1      -4.995  -0.271   6.384  0.00  0.00    +0.025 A 
ATOM     27  C   UNL     1      -4.620  -0.431   5.064  0.00  0.00    +0.055 A 
ATOM     28  N   UNL     1      -3.407  -0.992   4.684  0.00  0.00    -0.264 N 
ATOM     29  N   UNL     1      -3.338  -1.661   3.490  0.00  0.00    -0.157 NA
ATOM     30  H   UNL     1      -2.626  -0.914   5.253  0.00  0.00    +0.168 HD
ATOM     31  H   UNL     1      -3.712  -2.595   3.572  0.00  0.00    +0.168 HD
ENDBRANCH  18  19
BRANCH  18  32
ATOM     32  C   UNL     1      -3.522  -2.555   0.624  0.00  0.00    +0.014 C 
ATOM     33  C   UNL     1      -2.682  -3.489   1.497  0.00  0.00    +0.009 C 
ATOM     34  C   UNL     1      -4.995  -2.960   0.714  0.00  0.00    +0.009 C 
ENDBRANCH  18  32
ENDBRANCH   2  18
TORSDOF 6
