REMARK  Name = ZINC33114386
REMARK  7 active torsions:
REMARK  status: ('A' for Active; 'I' for Inactive)
REMARK    1  A    between atoms: C_1  and  N_2
REMARK    2  A    between atoms: N_2  and  C_3
REMARK    3  A    between atoms: C_3  and  C_4
REMARK    4  A    between atoms: C_4  and  C_5
REMARK    5  A    between atoms: C_7  and  C_10
REMARK    6  A    between atoms: C_13  and  C_16
REMARK    7  A    between atoms: C_23  and  C_25
REMARK                            x       y       z     vdW  Elec       q    Type
REMARK                         _______ _______ _______ _____ _____    ______ ____
ROOT
ATOM      1  C   UNL     1       1.213   3.128   3.925  0.00  0.00    +0.174 A 
ATOM      2  N   UNL     1       2.520   2.827   3.917  0.00  0.00    -0.192 NA
ATOM      3  C   UNL     1       2.949   3.076   5.141  0.00  0.00    +0.258 A 
ATOM      4  O   UNL     1       1.889   3.515   5.838  0.00  0.00    -0.333 OA
ATOM      5  N   UNL     1       0.911   3.542   5.120  0.00  0.00    -0.061 NA
ENDROOT
BRANCH   3   6
ATOM      6  C   UNL     1       4.327   2.904   5.647  0.00  0.00    +0.039 A 
ATOM      7  C   UNL     1       5.328   2.427   4.797  0.00  0.00    +0.014 A 
ATOM      8  C   UNL     1       6.613   2.272   5.266  0.00  0.00    +0.014 A 
ATOM      9  C   UNL     1       6.913   2.580   6.595  0.00  0.00    +0.037 A 
ATOM     10  C   UNL     1       5.912   3.051   7.446  0.00  0.00    +0.014 A 
ATOM     11  C   UNL     1       4.627   3.212   6.975  0.00  0.00    +0.014 A 
BRANCH   9  12
ATOM     12  C   UNL     1       8.292   2.407   7.101  0.00  0.00    +0.247 C 
ATOM     13  O   UNL     1       9.191   2.130   6.331  0.00  0.00    -0.270 OA
ATOM     14  N   UNL     1       8.552   2.557   8.415  0.00  0.00    -0.298 N 
ATOM     15  C   UNL     1       7.589   3.001   9.433  0.00  0.00    +0.108 C 
ATOM     16  C   UNL     1       8.337   3.046  10.782  0.00  0.00    +0.020 C 
ATOM     17  C   UNL     1       9.821   3.179  10.350  0.00  0.00    +0.020 C 
ATOM     18  C   UNL     1       9.850   2.310   9.068  0.00  0.00    +0.108 C 
ENDBRANCH   9  12
ENDBRANCH   3   6
BRANCH   1  19
ATOM     19  C   UNL     1       0.266   3.013   2.758  0.00  0.00    +0.098 C 
BRANCH  19  20
ATOM     20  C   UNL     1      -0.364   1.619   2.747  0.00  0.00    +0.115 C 
BRANCH  20  22
ATOM     21  C   UNL     1      -0.795   1.029   0.317  0.00  0.00    +0.132 C 
ATOM     22  N   UNL     1      -1.284   1.508   1.612  0.00  0.00    -0.298 N 
ATOM     23  C   UNL     1      -2.580   1.846   1.760  0.00  0.00    +0.282 C 
ATOM     24  O   UNL     1      -2.967   2.331   2.807  0.00  0.00    -0.267 OA
BRANCH  23  25
ATOM     25  C   UNL     1      -3.524   1.629   0.660  0.00  0.00    +0.191 A 
ATOM     26  C   UNL     1      -4.827   2.037   0.629  0.00  0.00    +0.056 A 
ATOM     27  C   UNL     1      -5.351   1.621  -0.604  0.00  0.00    +0.058 A 
ATOM     28  C   UNL     1      -4.356   0.985  -1.265  0.00  0.00    +0.171 A 
ATOM     29  O   UNL     1      -3.256   0.997  -0.502  0.00  0.00    -0.444 OA
ATOM     30 BR   UNL     1      -4.495   0.212  -2.986  0.00  0.00    -0.008 Br
ENDBRANCH  23  25
ENDBRANCH  20  22
ENDBRANCH  19  20
ENDBRANCH   1  19
TORSDOF 6
