REMARK  Name = ZINC39325259
REMARK  10 active torsions:
REMARK  status: ('A' for Active; 'I' for Inactive)
REMARK    1  A    between atoms: C_1  and  C_2
REMARK    2  A    between atoms: C_6  and  C_8
REMARK    3  A    between atoms: C_8  and  C_9
REMARK    4  A    between atoms: C_9  and  N_10
REMARK    5  A    between atoms: N_10  and  C_11
REMARK    6  A    between atoms: N_10  and  S_28
REMARK    7  A    between atoms: C_11  and  C_12
REMARK    8  A    between atoms: S_28  and  C_31
REMARK    9  A    between atoms: C_34  and  O_37
REMARK   10  A    between atoms: O_37  and  C_38
REMARK                            x       y       z     vdW  Elec       q    Type
REMARK                         _______ _______ _______ _____ _____    ______ ____
ROOT
ATOM      1  N   UNL     1       1.526  -3.827   4.291  0.00  0.00    -0.175 NA
ENDROOT
BRANCH   1   2
ATOM      2  S   UNL     1       1.304  -3.059   5.742  0.00  0.00    +0.061 S 
ATOM      3  O   UNL     1       1.478  -4.043   6.753  0.00  0.00    -0.153 OA
ATOM      4  O   UNL     1       2.081  -1.870   5.694  0.00  0.00    -0.153 OA
BRANCH   2   5
ATOM      5  C   UNL     1      -0.383  -2.556   5.813  0.00  0.00    +0.106 A 
ATOM      6  C   UNL     1      -0.754  -1.317   5.327  0.00  0.00    +0.032 A 
ATOM      7  C   UNL     1      -2.076  -0.919   5.381  0.00  0.00    +0.047 A 
ATOM      8  C   UNL     1      -3.032  -1.766   5.925  0.00  0.00    +0.120 A 
ATOM      9  C   UNL     1      -2.656  -3.010   6.412  0.00  0.00    +0.047 A 
ATOM     10  C   UNL     1      -1.334  -3.404   6.350  0.00  0.00    +0.032 A 
BRANCH   8  11
ATOM     11  O   UNL     1      -4.333  -1.378   5.980  0.00  0.00    -0.495 OA
ATOM     12  C   UNL     1      -5.261  -2.301   6.553  0.00  0.00    +0.277 C 
ENDBRANCH   8  11
ENDBRANCH   2   5
ENDBRANCH   1   2
BRANCH   1  13
ATOM     13  C   UNL     1       1.931  -3.060   3.111  0.00  0.00    +0.114 C 
BRANCH  13  14
ATOM     14  C   UNL     1       0.693  -2.699   2.288  0.00  0.00    +0.052 C 
BRANCH  14  20
ATOM     15  C   UNL     1       1.646   1.696   0.092  0.00  0.00    +0.044 C 
ATOM     16  C   UNL     1       1.565   0.193   0.023  0.00  0.00    -0.050 A 
ATOM     17  C   UNL     1       1.873  -0.462  -1.155  0.00  0.00    +0.003 A 
ATOM     18  C   UNL     1       1.798  -1.841  -1.219  0.00  0.00    +0.001 A 
ATOM     19  C   UNL     1       1.417  -2.565  -0.104  0.00  0.00    +0.004 A 
ATOM     20  C   UNL     1       1.109  -1.910   1.073  0.00  0.00    -0.046 A 
ATOM     21  C   UNL     1       1.188  -0.531   1.138  0.00  0.00    +0.007 A 
ENDBRANCH  14  20
ENDBRANCH  13  14
ENDBRANCH   1  13
BRANCH   1  22
ATOM     22  C   UNL     1       1.316  -5.274   4.189  0.00  0.00    +0.126 C 
BRANCH  22  23
ATOM     23  C   UNL     1       2.669  -5.977   4.056  0.00  0.00    +0.114 C 
ATOM     24  C   UNL     1       3.505  -5.609   5.266  0.00  0.00    -0.003 C 
ATOM     25  C   UNL     1       3.958  -6.627   6.046  0.00  0.00    -0.003 A 
ATOM     26  C   UNL     1       4.772  -6.357   7.231  0.00  0.00    +0.059 A 
ATOM     27  C   UNL     1       5.210  -7.397   7.991  0.00  0.00    +0.163 A 
ATOM     28  C   UNL     1       4.890  -8.729   7.657  0.00  0.00    +0.164 A 
ATOM     29  C   UNL     1       4.127  -9.035   6.548  0.00  0.00    +0.073 A 
ATOM     30  C   UNL     1       3.637  -8.027   5.710  0.00  0.00    +0.044 A 
ATOM     31  N   UNL     1       2.901  -8.346   4.643  0.00  0.00    -0.284 N 
ATOM     32  C   UNL     1       2.406  -7.446   3.813  0.00  0.00    +0.225 C 
ATOM     33  O   UNL     1       1.741  -7.797   2.857  0.00  0.00    -0.275 OA
ATOM     34  O   UNL     1       5.329  -9.754   8.436  0.00  0.00    -0.485 OA
ATOM     35  C   UNL     1       6.409  -9.470   9.330  0.00  0.00    +0.270 C 
ATOM     36  C   UNL     1       6.096  -8.160  10.064  0.00  0.00    +0.270 C 
ATOM     37  O   UNL     1       5.971  -7.121   9.088  0.00  0.00    -0.485 OA
ATOM     38  H   UNL     1       2.721  -9.283   4.469  0.00  0.00    +0.155 HD
ENDBRANCH  22  23
ENDBRANCH   1  22
TORSDOF 8
