REMARK  Name = ZINC39290053
REMARK  5 active torsions:
REMARK  status: ('A' for Active; 'I' for Inactive)
REMARK    1  A    between atoms: C_1  and  N_2
REMARK    2  A    between atoms: C_3  and  C_8
REMARK    3  A    between atoms: C_10  and  N_31
REMARK    4  A    between atoms: C_13  and  C_25
REMARK    5  A    between atoms: C_15  and  C_19
REMARK                            x       y       z     vdW  Elec       q    Type
REMARK                         _______ _______ _______ _____ _____    ______ ____
ROOT
ATOM      1  C   UNL     1      -0.990   4.117  -0.031  0.00  0.00    +0.232 C 
ATOM      2  C   UNL     1      -1.103   5.395  -0.896  0.00  0.00    +0.011 C 
ATOM      3  C   UNL     1       0.316   5.924  -0.856  0.00  0.00    +0.011 A 
ATOM      4  C   UNL     1       0.866   7.159  -1.182  0.00  0.00    -0.009 A 
ATOM      5  C   UNL     1       2.244   7.332  -1.022  0.00  0.00    +0.037 A 
ATOM      6  C   UNL     1       2.998   6.264  -0.547  0.00  0.00    +0.075 A 
ATOM      7  N   UNL     1       2.431   5.103  -0.253  0.00  0.00    -0.213 NA
ATOM      8  C   UNL     1       1.126   4.895  -0.393  0.00  0.00    +0.218 A 
ATOM      9  O   UNL     1       0.399   3.767  -0.154  0.00  0.00    -0.466 OA
ENDROOT
BRANCH   1  12
ATOM     10  C   UNL     1      -1.614   1.400   1.342  0.00  0.00    +0.153 C 
ATOM     11  N   UNL     1      -2.134   1.825   0.040  0.00  0.00    -0.307 N 
ATOM     12  C   UNL     1      -1.867   3.022  -0.579  0.00  0.00    +0.171 A 
ATOM     13  N   UNL     1      -2.494   3.054  -1.711  0.00  0.00    -0.155 NA
ATOM     14  N   UNL     1      -3.198   1.851  -1.855  0.00  0.00    -0.254 N 
ATOM     15  C   UNL     1      -2.950   1.107  -0.756  0.00  0.00    +0.175 A 
ATOM     16  S   UNL     1      -3.564  -0.458  -0.432  0.00  0.00    -0.011 S 
ATOM     17  H   UNL     1      -3.757   1.598  -2.607  0.00  0.00    +0.191 HD
ENDBRANCH   1  12
BRANCH   6  18
ATOM     18  C   UNL     1       4.461   6.428  -0.366  0.00  0.00    +0.000 A 
ATOM     19  C   UNL     1       5.071   7.645  -0.666  0.00  0.00    +0.010 A 
ATOM     20  C   UNL     1       6.433   7.792  -0.495  0.00  0.00    +0.001 A 
ATOM     21  C   UNL     1       7.192   6.734  -0.028  0.00  0.00    +0.000 A 
ATOM     22  C   UNL     1       6.592   5.524   0.271  0.00  0.00    +0.001 A 
ATOM     23  C   UNL     1       5.230   5.368   0.110  0.00  0.00    +0.010 A 
ENDBRANCH   6  18
BRANCH   4  24
ATOM     24  C   UNL     1       0.013   8.264  -1.686  0.00  0.00    -0.017 A 
ATOM     25  C   UNL     1      -1.128   8.643  -0.982  0.00  0.00    +0.008 A 
ATOM     26  C   UNL     1      -1.917   9.672  -1.455  0.00  0.00    +0.001 A 
ATOM     27  C   UNL     1      -1.577  10.326  -2.626  0.00  0.00    +0.000 A 
ATOM     28  C   UNL     1      -0.446   9.953  -3.329  0.00  0.00    +0.001 A 
ATOM     29  C   UNL     1       0.354   8.929  -2.862  0.00  0.00    +0.008 A 
ENDBRANCH   4  24
BRANCH   2  30
ATOM     30  N   UNL     1      -1.504   5.065  -2.270  0.00  0.00    +0.385 N 
ATOM     31  H   UNL     1      -2.485   4.831  -2.288  0.00  0.00    -0.089 HD
ATOM     32  H   UNL     1      -1.337   5.860  -2.869  0.00  0.00    -0.089 HD
ATOM     33  H   UNL     1      -0.964   4.278  -2.598  0.00  0.00    -0.089 HD
ENDBRANCH   2  30
TORSDOF 4
