REMARK  Name = ZINC05487245
REMARK  6 active torsions:
REMARK  status: ('A' for Active; 'I' for Inactive)
REMARK    1  A    between atoms: C_4  and  C_7
REMARK    2  A    between atoms: C_7  and  C_9
REMARK    3  A    between atoms: C_7  and  O_27
REMARK    4  A    between atoms: C_9  and  C_11
REMARK    5  A    between atoms: C_9  and  N_18
REMARK    6  A    between atoms: C_16  and  O_17
REMARK                            x       y       z     vdW  Elec       q    Type
REMARK                         _______ _______ _______ _____ _____    ______ ____
ROOT
ATOM      1  C   UNL     1       0.187  -0.068   0.187  0.00  0.00    +0.176 C 
ENDROOT
BRANCH   1   2
ATOM      2  N   UNL     1       0.373   1.373   0.001  0.00  0.00    -0.234 N 
ATOM      3  C   UNL     1       1.549   2.074   0.130  0.00  0.00    +0.090 A 
ATOM      4  C   UNL     1       2.855   1.720   0.451  0.00  0.00    +0.029 A 
ATOM      5  C   UNL     1       3.826   2.680   0.498  0.00  0.00    +0.002 A 
ATOM      6  C   UNL     1       3.522   4.008   0.229  0.00  0.00    +0.002 A 
ATOM      7  C   UNL     1       2.249   4.381  -0.088  0.00  0.00    +0.032 A 
ATOM      8  C   UNL     1       1.234   3.417  -0.144  0.00  0.00    +0.113 A 
ATOM      9  N   UNL     1      -0.084   3.479  -0.422  0.00  0.00    -0.129 NA
ATOM     10  N   UNL     1      -0.611   2.308  -0.351  0.00  0.00    -0.064 NA
ENDBRANCH   1   2
BRANCH   1  11
ATOM     11  C   UNL     1      -0.325  -0.678  -1.092  0.00  0.00    +0.021 A 
ATOM     12  C   UNL     1      -1.570  -0.325  -1.576  0.00  0.00    +0.009 A 
ATOM     13  C   UNL     1      -2.039  -0.881  -2.752  0.00  0.00    +0.001 A 
ATOM     14  C   UNL     1      -1.268  -1.799  -3.441  0.00  0.00    +0.004 A 
ATOM     15  C   UNL     1      -0.025  -2.159  -2.958  0.00  0.00    +0.046 A 
ATOM     16  C   UNL     1       0.450  -1.599  -1.781  0.00  0.00    +0.122 A 
BRANCH  16  17
ATOM     17  O   UNL     1       1.673  -1.951  -1.305  0.00  0.00    -0.506 OA
ATOM     18  H   UNL     1       1.658  -2.710  -0.705  0.00  0.00    +0.292 HD
ENDBRANCH  16  17
ENDBRANCH   1  11
BRANCH   1  19
ATOM     19  C   UNL     1      -0.825  -0.310   1.309  0.00  0.00    +0.174 C 
BRANCH  19  23
ATOM     20  C   UNL     1       0.762   1.146   4.998  0.00  0.00    +0.000 A 
ATOM     21  C   UNL     1      -0.151   1.906   4.290  0.00  0.00    +0.000 A 
ATOM     22  C   UNL     1      -0.665   1.434   3.097  0.00  0.00    +0.006 A 
ATOM     23  C   UNL     1      -0.265   0.204   2.610  0.00  0.00    -0.017 A 
ATOM     24  C   UNL     1       0.645  -0.558   3.320  0.00  0.00    +0.006 A 
ATOM     25  C   UNL     1       1.162  -0.084   4.511  0.00  0.00    +0.000 A 
ENDBRANCH  19  23
BRANCH  19  26
ATOM     26  O   UNL     1      -1.084  -1.711   1.422  0.00  0.00    -0.385 OA
ATOM     27  H   UNL     1      -0.289  -2.250   1.537  0.00  0.00    +0.210 HD
ENDBRANCH  19  26
ENDBRANCH   1  19
TORSDOF 6
