REMARK  Name = ZINC14811257
REMARK  6 active torsions:
REMARK  status: ('A' for Active; 'I' for Inactive)
REMARK    1  A    between atoms: C_1  and  O_2
REMARK    2  A    between atoms: O_2  and  C_3
REMARK    3  A    between atoms: C_7  and  O_9
REMARK    4  A    between atoms: C_15  and  C_19
REMARK    5  A    between atoms: C_17  and  O_18
REMARK    6  A    between atoms: C_19  and  O_20
REMARK                            x       y       z     vdW  Elec       q    Type
REMARK                         _______ _______ _______ _____ _____    ______ ____
ROOT
ATOM      1  C   UNL     1      -3.693   1.988  -0.233  0.00  0.00    +0.124 A 
ATOM      2  C   UNL     1      -2.490   1.285  -0.250  0.00  0.00    +0.058 A 
ATOM      3  C   UNL     1      -1.300   1.943   0.019  0.00  0.00    +0.040 A 
ATOM      4  C   UNL     1      -1.313   3.321   0.320  0.00  0.00    +0.075 A 
ATOM      5  C   UNL     1      -2.527   4.016   0.334  0.00  0.00    +0.132 A 
ATOM      6  C   UNL     1      -3.710   3.342   0.056  0.00  0.00    +0.091 A 
ATOM      7  C   UNL     1      -0.048   4.018   0.612  0.00  0.00    +0.202 C 
ATOM      8  O   UNL     1      -0.059   5.129   1.108  0.00  0.00    -0.286 OA
ATOM      9  C   UNL     1       1.232   3.354   0.298  0.00  0.00    +0.075 A 
ATOM     10  C   UNL     1       1.250   1.978   0.001  0.00  0.00    +0.037 A 
ATOM     11  C   UNL     1       2.455   1.352  -0.298  0.00  0.00    +0.018 A 
ATOM     12  C   UNL     1       3.632   2.084  -0.302  0.00  0.00    -0.018 A 
ATOM     13  C   UNL     1       3.622   3.432  -0.010  0.00  0.00    +0.052 A 
ATOM     14  C   UNL     1       2.425   4.078   0.291  0.00  0.00    +0.129 A 
ATOM     15  C   UNL     1      -0.014   1.211   0.009  0.00  0.00    +0.195 C 
ATOM     16  O   UNL     1       0.002  -0.004   0.002  0.00  0.00    -0.287 OA
ENDROOT
BRANCH   1  18
ATOM     17  C   UNL     1      -6.054   2.119  -0.467  0.00  0.00    +0.277 C 
ATOM     18  O   UNL     1      -4.856   1.341  -0.501  0.00  0.00    -0.495 OA
ENDBRANCH   1  18
BRANCH   5  19
ATOM     19  O   UNL     1      -2.549   5.342   0.617  0.00  0.00    -0.506 OA
ATOM     20  H   UNL     1      -2.459   5.912  -0.160  0.00  0.00    +0.292 HD
ENDBRANCH   5  19
BRANCH  14  21
ATOM     21  O   UNL     1       2.420   5.404   0.578  0.00  0.00    -0.506 OA
ATOM     22  H   UNL     1       2.303   5.973  -0.196  0.00  0.00    +0.292 HD
ENDBRANCH  14  21
BRANCH  12  23
ATOM     23  C   UNL     1       4.935   1.400  -0.627  0.00  0.00    +0.191 C 
BRANCH  23  24
ATOM     24  O   UNL     1       5.169   1.464  -2.035  0.00  0.00    -0.390 OA
ATOM     25  H   UNL     1       5.992   1.043  -2.317  0.00  0.00    +0.210 HD
ENDBRANCH  23  24
ENDBRANCH  12  23
TORSDOF 5
