REMARK  Name = ZINC66453175
REMARK  5 active torsions:
REMARK  status: ('A' for Active; 'I' for Inactive)
REMARK    1  A    between atoms: C_4  and  CA_7
REMARK    2  A    between atoms: CA_7  and  C_9
REMARK    3  A    between atoms: CA_7  and  N_11
REMARK    4  A    between atoms: C_9  and  O_10
REMARK    5  A    between atoms: C_17  and  N_21
REMARK                            x       y       z     vdW  Elec       q    Type
REMARK                         _______ _______ _______ _____ _____    ______ ____
ROOT
ATOM      1  N   UNL     1       3.611  -1.865  -0.930  0.00  0.00    -0.314 N 
ATOM      2  C   UNL     1       4.748  -2.383  -1.518  0.00  0.00    +0.160 A 
ATOM      3  N   UNL     1       5.993  -1.984  -1.396  0.00  0.00    -0.225 NA
ATOM      4  C   UNL     1       7.016  -2.592  -2.036  0.00  0.00    +0.080 A 
ATOM      5  C   UNL     1       8.391  -2.266  -1.992  0.00  0.00    +0.031 A 
ATOM      6  C   UNL     1       9.306  -2.992  -2.709  0.00  0.00    +0.035 A 
ATOM      7  C   UNL     1       8.921  -4.065  -3.500  0.00  0.00    +0.127 A 
ATOM      8  C   UNL     1       7.584  -4.412  -3.566  0.00  0.00    +0.050 A 
ATOM      9  C   UNL     1       6.661  -3.691  -2.851  0.00  0.00    +0.043 A 
ATOM     10  S   UNL     1       4.899  -3.772  -2.632  0.00  0.00    -0.052 S 
ATOM     11  H   UNL     1       2.747  -2.267  -1.108  0.00  0.00    +0.149 HD
ENDROOT
BRANCH   7  12
ATOM     12  N   UNL     1       9.931  -4.830  -4.264  0.00  0.00    +0.056 N 
ATOM     13  O   UNL     1      11.098  -4.522  -4.202  0.00  0.00    -0.126 OA
ATOM     14  O   UNL     1       9.589  -5.765  -4.951  0.00  0.00    -0.126 OA
ENDBRANCH   7  12
BRANCH   1  15
ATOM     15  CA  UNL     1       3.711  -0.707  -0.038  0.00  0.00    +0.128 C 
BRANCH  15  19
ATOM     16  C   UNL     1      -0.017   1.378   0.010  0.00  0.00    +0.000 A 
ATOM     17  C   UNL     1       1.171   2.086   0.002  0.00  0.00    +0.000 A 
ATOM     18  C   UNL     1       2.377   1.411  -0.013  0.00  0.00    +0.005 A 
ATOM     19  C   UNL     1       2.396   0.029  -0.020  0.00  0.00    -0.025 A 
ATOM     20  C   UNL     1       1.208  -0.679  -0.012  0.00  0.00    +0.005 A 
ATOM     21  C   UNL     1       0.002  -0.004   0.002  0.00  0.00    +0.000 A 
ENDBRANCH  15  19
BRANCH  15  22
ATOM     22  C   UNL     1       4.049  -1.182   1.377  0.00  0.00    +0.182 C 
BRANCH  22  23
ATOM     23  O   UNL     1       2.966  -1.962   1.889  0.00  0.00    -0.393 OA
ATOM     24  H   UNL     1       3.112  -2.297   2.784  0.00  0.00    +0.209 HD
ENDBRANCH  22  23
ENDBRANCH  15  22
ENDBRANCH   1  15
TORSDOF 5
