REMARK  Name = ZINC65272205
REMARK  4 active torsions:
REMARK  status: ('A' for Active; 'I' for Inactive)
REMARK    1  A    between atoms: C_1  and  C_2
REMARK    2  A    between atoms: C_2  and  N_3
REMARK    3  A    between atoms: C_9  and  C_11
REMARK    4  A    between atoms: C_22  and  C_26
REMARK                            x       y       z     vdW  Elec       q    Type
REMARK                         _______ _______ _______ _____ _____    ______ ____
ROOT
ATOM      1  C   UNL     1       3.211  -4.175  -3.345  0.00  0.00    +0.078 C 
ATOM      2  C   UNL     1       2.556  -4.731  -2.078  0.00  0.00    +0.032 C 
ATOM      3  C   UNL     1       2.248  -6.219  -2.278  0.00  0.00    +0.108 C 
ATOM      4  N   UNL     1       3.485  -6.909  -2.671  0.00  0.00    -0.310 N 
ATOM      5  C   UNL     1       4.242  -6.400  -3.823  0.00  0.00    +0.108 C 
ATOM      6  C   UNL     1       4.528  -4.910  -3.605  0.00  0.00    +0.032 C 
ATOM      7  C   UNL     1       3.926  -8.014  -1.973  0.00  0.00    +0.163 A 
ATOM      8  N   UNL     1       4.998  -8.743  -2.177  0.00  0.00    -0.223 NA
ATOM      9  C   UNL     1       5.309  -9.807  -1.406  0.00  0.00    +0.099 A 
ATOM     10  C   UNL     1       6.424 -10.674  -1.515  0.00  0.00    +0.032 A 
ATOM     11  C   UNL     1       6.560 -11.702  -0.631  0.00  0.00    +0.031 A 
ATOM     12  C   UNL     1       5.611 -11.905   0.376  0.00  0.00    +0.079 A 
ATOM     13  N   UNL     1       4.563 -11.089   0.475  0.00  0.00    -0.237 NA
ATOM     14  C   UNL     1       4.403 -10.093  -0.356  0.00  0.00    +0.130 A 
ATOM     15  S   UNL     1       3.186  -8.811  -0.554  0.00  0.00    -0.033 S 
ENDROOT
BRANCH   1  22
ATOM     16  N   UNL     1       0.914   0.057  -4.703  0.00  0.00    -0.300 NA
ATOM     17  C   UNL     1       0.818  -1.360  -5.076  0.00  0.00    +0.103 C 
ATOM     18  C   UNL     1       1.184  -2.230  -3.869  0.00  0.00    +0.123 C 
ATOM     19  N   UNL     1       2.501  -1.806  -3.371  0.00  0.00    -0.299 N 
ATOM     20  C   UNL     1       2.717  -0.376  -3.104  0.00  0.00    +0.123 C 
ATOM     21  C   UNL     1       2.291   0.420  -4.341  0.00  0.00    +0.103 C 
ATOM     22  C   UNL     1       3.485  -2.704  -3.164  0.00  0.00    +0.219 C 
ATOM     23  O   UNL     1       4.589  -2.329  -2.833  0.00  0.00    -0.275 OA
BRANCH  16  25
ATOM     24  C   UNL     1      -1.095   0.684  -5.955  0.00  0.00    +0.020 C 
ATOM     25  C   UNL     1       0.406   0.920  -5.777  0.00  0.00    +0.081 C 
ENDBRANCH  16  25
ENDBRANCH   1  22
BRANCH  12  26
ATOM     26  C   UNL     1       5.769 -13.023   1.327  0.00  0.00    +0.038 A 
ATOM     27  C   UNL     1       4.958 -13.393   2.368  0.00  0.00    +0.017 A 
ATOM     28  C   UNL     1       5.314 -14.485   3.127  0.00  0.00    +0.008 A 
ATOM     29  C   UNL     1       6.452 -15.161   2.824  0.00  0.00    +0.046 A 
ATOM     30  S   UNL     1       7.063 -14.250   1.415  0.00  0.00    -0.095 S 
ENDBRANCH  12  26
TORSDOF 3
