REMARK  Name = ZINC02551599
REMARK  6 active torsions:
REMARK  status: ('A' for Active; 'I' for Inactive)
REMARK    1  A    between atoms: C_10  and  C_11
REMARK    2  A    between atoms: C_12  and  C_13
REMARK    3  A    between atoms: N_15  and  C_16
REMARK    4  A    between atoms: C_16  and  N_18
REMARK    5  A    between atoms: N_18  and  N_19
REMARK    6  A    between atoms: C_20  and  C_22
REMARK                            x       y       z     vdW  Elec       q    Type
REMARK                         _______ _______ _______ _____ _____    ______ ____
ROOT
ATOM      1  C   UNL     1      -1.192   2.002   0.019  0.00  0.00    +0.242 C 
ATOM      2  O   UNL     1      -2.238   1.379   0.020  0.00  0.00    -0.270 OA
ATOM      3  N   UNL     1      -0.016   1.344   0.009  0.00  0.00    -0.263 N 
ATOM      4  H   UNL     1       0.817   1.840   0.004  0.00  0.00    +0.157 HD
ENDROOT
BRANCH   1   6
ATOM      5  C   UNL     1      -2.392   4.123   0.036  0.00  0.00    +0.013 C 
ATOM      6  C   UNL     1      -1.212   3.463   0.027  0.00  0.00    +0.068 C 
BRANCH   5  16
ATOM      7  C   UNL     1      -6.045   7.763   0.073  0.00  0.00    +0.001 A 
ATOM      8  C   UNL     1      -6.067   6.370   0.065  0.00  0.00    +0.001 A 
ATOM      9  C   UNL     1      -4.909   5.651   0.056  0.00  0.00    +0.009 A 
ATOM     10  C   UNL     1      -3.680   6.320   0.054  0.00  0.00    -0.011 A 
ATOM     11  C   UNL     1      -3.653   7.736   0.061  0.00  0.00    -0.017 A 
ATOM     12  C   UNL     1      -4.866   8.445   0.071  0.00  0.00    +0.008 A 
ATOM     13  C   UNL     1      -2.417   8.403   0.059  0.00  0.00    +0.008 A 
ATOM     14  C   UNL     1      -1.248   7.704   0.049  0.00  0.00    +0.001 A 
ATOM     15  C   UNL     1      -1.225   6.317   0.048  0.00  0.00    +0.008 A 
ATOM     16  C   UNL     1      -2.412   5.590   0.044  0.00  0.00    -0.017 A 
ENDBRANCH   5  16
ENDBRANCH   1   6
BRANCH   3  17
ATOM     17  C   UNL     1       0.002  -0.004   0.002  0.00  0.00    +0.153 C 
ATOM     18  S   UNL     1      -1.469  -0.880   0.011  0.00  0.00    -0.017 S 
BRANCH  17  19
ATOM     19  N   UNL     1       1.178  -0.662  -0.013  0.00  0.00    -0.245 N 
ATOM     20  H   UNL     1       1.191  -1.632  -0.018  0.00  0.00    +0.172 HD
BRANCH  19  21
ATOM     21  N   UNL     1       2.382   0.055  -0.020  0.00  0.00    -0.231 N 
ATOM     22  C   UNL     1       3.558  -0.603  -0.035  0.00  0.00    +0.261 C 
ATOM     23  O   UNL     1       3.575  -1.818  -0.042  0.00  0.00    -0.269 OA
ATOM     24  H   UNL     1       2.369   1.025  -0.015  0.00  0.00    +0.173 HD
BRANCH  22  25
ATOM     25  C   UNL     1       4.828   0.153  -0.043  0.00  0.00    +0.051 A 
ATOM     26  C   UNL     1       4.813   1.549  -0.041  0.00  0.00    +0.014 A 
ATOM     27  C   UNL     1       6.001   2.249  -0.045  0.00  0.00    +0.001 A 
ATOM     28  C   UNL     1       7.207   1.571  -0.060  0.00  0.00    +0.001 A 
ATOM     29  C   UNL     1       7.230   0.188  -0.066  0.00  0.00    +0.015 A 
ATOM     30  C   UNL     1       6.048  -0.525  -0.059  0.00  0.00    +0.026 A 
ATOM     31  I   UNL     1       6.085  -2.620  -0.070  0.00  0.00    -0.043 I 
ENDBRANCH  22  25
ENDBRANCH  19  21
ENDBRANCH  17  19
ENDBRANCH   3  17
TORSDOF 6
