REMARK  Name = ZINC39708165
REMARK  6 active torsions:
REMARK  status: ('A' for Active; 'I' for Inactive)
REMARK    1  A    between atoms: C_4  and  C_7
REMARK    2  A    between atoms: C_17  and  N_19
REMARK    3  A    between atoms: C_20  and  C_22
REMARK    4  A    between atoms: C_22  and  N_23
REMARK    5  A    between atoms: N_23  and  S_24
REMARK    6  A    between atoms: S_24  and  C_27
REMARK                            x       y       z     vdW  Elec       q    Type
REMARK                         _______ _______ _______ _____ _____    ______ ____
ROOT
ATOM      1  C   UNL     1       3.648  -0.649  -0.037  0.00  0.00    -0.002 C 
ATOM      2  C   UNL     1       4.861   0.036  -0.144  0.00  0.00    +0.004 A 
ATOM      3  C   UNL     1       4.888   1.444  -0.239  0.00  0.00    +0.030 A 
ATOM      4  C   UNL     1       6.083   2.086  -0.342  0.00  0.00    +0.042 A 
ATOM      5  C   UNL     1       7.286   1.381  -0.355  0.00  0.00    +0.022 A 
ATOM      6  C   UNL     1       7.323   0.023  -0.268  0.00  0.00    +0.025 A 
ATOM      7  C   UNL     1       6.126  -0.707  -0.158  0.00  0.00    +0.041 A 
ATOM      8  N   UNL     1       6.165  -2.041  -0.071  0.00  0.00    -0.283 N 
ATOM      9  C   UNL     1       5.089  -2.796   0.033  0.00  0.00    +0.242 C 
ATOM     10  O   UNL     1       5.200  -4.006   0.108  0.00  0.00    -0.273 OA
ATOM     11  C   UNL     1       3.718  -2.161   0.066  0.00  0.00    +0.191 C 
ATOM     12 CL   UNL     1       6.111   3.818  -0.459  0.00  0.00    -0.084 Cl
ATOM     13  H   UNL     1       7.032  -2.477  -0.085  0.00  0.00    +0.155 HD
ENDROOT
BRANCH   1  17
ATOM     14  C   UNL     1      -0.017   1.380   0.012  0.00  0.00    +0.000 A 
ATOM     15  C   UNL     1       0.280   0.522  -1.035  0.00  0.00    +0.001 A 
ATOM     16  C   UNL     1       1.482  -0.150  -1.060  0.00  0.00    +0.008 A 
ATOM     17  C   UNL     1       2.408   0.038  -0.021  0.00  0.00    -0.019 A 
ATOM     18  C   UNL     1       2.097   0.910   1.035  0.00  0.00    +0.008 A 
ATOM     19  C   UNL     1       0.889   1.572   1.042  0.00  0.00    +0.001 A 
ENDBRANCH   1  17
BRANCH  11  20
ATOM     20  N   UNL     1       3.064  -2.556   1.316  0.00  0.00    -0.299 N 
ATOM     21  C   UNL     1       2.535  -3.790   1.439  0.00  0.00    +0.229 C 
ATOM     22  O   UNL     1       2.601  -4.573   0.515  0.00  0.00    -0.274 OA
ATOM     23  H   UNL     1       3.011  -1.930   2.055  0.00  0.00    +0.150 HD
BRANCH  21  24
ATOM     24  C   UNL     1       1.863  -4.197   2.725  0.00  0.00    +0.201 C 
BRANCH  24  25
ATOM     25  N   UNL     1       1.375  -5.573   2.607  0.00  0.00    -0.181 NA
ATOM     26  H   UNL     1       1.313  -5.992   1.734  0.00  0.00    +0.149 HD
BRANCH  25  27
ATOM     27  S   UNL     1       0.931  -6.414   3.963  0.00  0.00    +0.059 S 
ATOM     28  O   UNL     1       0.485  -7.689   3.523  0.00  0.00    -0.153 OA
ATOM     29  O   UNL     1       1.987  -6.258   4.901  0.00  0.00    -0.153 OA
BRANCH  27  30
ATOM     30  C   UNL     1      -0.473  -5.597   4.646  0.00  0.00    +0.105 A 
ATOM     31  C   UNL     1      -0.301  -4.585   5.572  0.00  0.00    +0.028 A 
ATOM     32  C   UNL     1      -1.403  -3.944   6.107  0.00  0.00    +0.002 A 
ATOM     33  C   UNL     1      -2.676  -4.314   5.716  0.00  0.00    +0.000 A 
ATOM     34  C   UNL     1      -2.848  -5.326   4.789  0.00  0.00    +0.002 A 
ATOM     35  C   UNL     1      -1.746  -5.964   4.251  0.00  0.00    +0.028 A 
ENDBRANCH  27  30
ENDBRANCH  25  27
ENDBRANCH  24  25
ENDBRANCH  21  24
ENDBRANCH  11  20
TORSDOF 6
