REMARK  Name = ZINC51060904
REMARK  9 active torsions:
REMARK  status: ('A' for Active; 'I' for Inactive)
REMARK    1  A    between atoms: C_1  and  C_2
REMARK    2  A    between atoms: C_2  and  C_3
REMARK    3  A    between atoms: C_3  and  C_4
REMARK    4  A    between atoms: C_4  and  N_5
REMARK    5  A    between atoms: C_6  and  C_8
REMARK    6  A    between atoms: N_13  and  C_15
REMARK    7  A    between atoms: C_15  and  C_17
REMARK    8  A    between atoms: C_15  and  C_23
REMARK    9  A    between atoms: N_28  and  C_29
REMARK                            x       y       z     vdW  Elec       q    Type
REMARK                         _______ _______ _______ _____ _____    ______ ____
ROOT
ATOM      1  C   UNL     1      -5.762  -7.928  -0.055  0.00  0.00    +0.050 C 
ENDROOT
BRANCH   1   2
ATOM      2  C   UNL     1      -5.185  -8.346  -1.383  0.00  0.00    +0.211 C 
ATOM      3  O   UNL     1      -4.744  -7.511  -2.143  0.00  0.00    -0.277 OA
ATOM      4  N   UNL     1      -5.158  -9.650  -1.725  0.00  0.00    -0.241 N 
ATOM      5  C   UNL     1      -4.642 -10.024  -2.912  0.00  0.00    +0.306 C 
ATOM      6  O   UNL     1      -4.200  -9.186  -3.674  0.00  0.00    -0.252 OA
ATOM      7  N   UNL     1      -4.615 -11.327  -3.255  0.00  0.00    -0.302 N 
ATOM      8  C   UNL     1      -4.054 -11.734  -4.545  0.00  0.00    +0.129 C 
ATOM      9  H   UNL     1      -5.511 -10.318  -1.117  0.00  0.00    +0.159 HD
ATOM     10  H   UNL     1      -4.968 -11.996  -2.647  0.00  0.00    +0.150 HD
ENDBRANCH   1   2
BRANCH   1  15
ATOM     11  C   UNL     1      -3.022  -5.562   0.933  0.00  0.00    +0.058 C 
ATOM     12  C   UNL     1      -3.631  -5.036   2.236  0.00  0.00    +0.009 C 
ATOM     13  C   UNL     1      -5.144  -4.888   2.058  0.00  0.00    -0.018 C 
ATOM     14  C   UNL     1      -5.737  -6.237   1.643  0.00  0.00    -0.077 C 
ATOM     15  N   UNL     1      -5.134  -6.672   0.378  0.00  0.00    +0.391 N 
ATOM     16  C   UNL     1      -3.693  -6.885   0.559  0.00  0.00    -0.065 C 
ATOM     17  H   UNL     1      -5.282  -5.964  -0.326  0.00  0.00    -0.080 HD
BRANCH  11  19
ATOM     18  N   UNL     1      -0.744  -4.752   1.459  0.00  0.00    -0.315 N 
ATOM     19  C   UNL     1      -1.543  -5.784   1.122  0.00  0.00    +0.214 C 
ATOM     20  O   UNL     1      -1.072  -6.891   0.971  0.00  0.00    -0.276 OA
ATOM     21  H   UNL     1      -1.121  -3.866   1.580  0.00  0.00    +0.149 HD
BRANCH  18  22
ATOM     22  C   UNL     1       0.693  -4.968   1.643  0.00  0.00    +0.104 C 
BRANCH  22  23
ATOM     23  C   UNL     1       1.363  -3.645   2.019  0.00  0.00    +0.018 C 
BRANCH  23  25
ATOM     24  C   UNL     1       3.535  -2.547   2.586  0.00  0.00    +0.004 C 
ATOM     25  C   UNL     1       2.864  -3.870   2.211  0.00  0.00    -0.002 C 
ENDBRANCH  23  25
ENDBRANCH  22  23
ENDBRANCH  18  22
ENDBRANCH  11  19
ENDBRANCH   1  15
BRANCH   1  26
ATOM     26  C   UNL     1      -7.249  -7.723  -0.196  0.00  0.00    -0.052 A 
ATOM     27  C   UNL     1      -7.737  -6.552  -0.744  0.00  0.00    +0.002 A 
ATOM     28  C   UNL     1      -9.100  -6.364  -0.874  0.00  0.00    +0.000 A 
ATOM     29  C   UNL     1      -9.976  -7.349  -0.455  0.00  0.00    +0.000 A 
ATOM     30  C   UNL     1      -9.488  -8.520   0.093  0.00  0.00    +0.000 A 
ATOM     31  C   UNL     1      -8.124  -8.710   0.218  0.00  0.00    +0.002 A 
ENDBRANCH   1  26
TORSDOF 7
