REMARK  Name = ZINC52905695
REMARK  6 active torsions:
REMARK  status: ('A' for Active; 'I' for Inactive)
REMARK    1  A    between atoms: C_3  and  N_11
REMARK    2  A    between atoms: C_4  and  C_8
REMARK    3  A    between atoms: N_11  and  C_12
REMARK    4  A    between atoms: N_11  and  C_15
REMARK    5  A    between atoms: C_12  and  C_13
REMARK    6  A    between atoms: C_13  and  O_14
REMARK                            x       y       z     vdW  Elec       q    Type
REMARK                         _______ _______ _______ _____ _____    ______ ____
ROOT
ATOM      1  C   UNL     1      -0.113   2.371  -0.976  0.00  0.00    +0.003 A 
ATOM      2  C   UNL     1       1.140   2.915  -0.770  0.00  0.00    +0.024 A 
ATOM      3  C   UNL     1       2.194   2.103  -0.371  0.00  0.00    +0.042 A 
ATOM      4  C   UNL     1       1.979   0.730  -0.180  0.00  0.00    +0.051 A 
ATOM      5  C   UNL     1       0.706   0.194  -0.393  0.00  0.00    +0.053 A 
ATOM      6  C   UNL     1      -0.329   1.016  -0.789  0.00  0.00    +0.021 A 
ATOM      7 CL   UNL     1       0.427  -1.504  -0.161  0.00  0.00    -0.083 Cl
ENDROOT
BRANCH   4   8
ATOM      8  C   UNL     1       3.091  -0.144   0.242  0.00  0.00    +0.097 C 
ATOM      9  N   UNL     1       3.541  -1.093  -0.578  0.00  0.00    -0.387 N 
ATOM     10  N   UNL     1       3.645   0.017   1.444  0.00  0.00    -0.344 N 
ATOM     11  H   UNL     1       4.272  -1.667  -0.300  0.00  0.00    +0.157 HD
ATOM     12  H   UNL     1       3.260   0.644   2.076  0.00  0.00    +0.144 HD
ATOM     13  H   UNL     1       4.434  -0.493   1.687  0.00  0.00    +0.144 HD
ATOM     14  H   UNL     1       3.138  -1.210  -1.452  0.00  0.00    +0.157 HD
ENDBRANCH   4   8
BRANCH   3  15
ATOM     15  N   UNL     1       3.455   2.648  -0.164  0.00  0.00    -0.324 N 
BRANCH  15  16
ATOM     16  C   UNL     1       4.397   2.761  -1.280  0.00  0.00    +0.074 C 
ATOM     17  C   UNL     1       4.821   4.222  -1.443  0.00  0.00    +0.022 C 
ATOM     18  C   UNL     1       5.805   4.340  -2.609  0.00  0.00    +0.002 C 
ATOM     19  C   UNL     1       7.038   3.480  -2.325  0.00  0.00    +0.000 C 
ATOM     20  C   UNL     1       6.614   2.019  -2.162  0.00  0.00    +0.002 C 
ATOM     21  C   UNL     1       5.630   1.901  -0.996  0.00  0.00    +0.022 C 
ENDBRANCH  15  16
BRANCH  15  22
ATOM     22  C   UNL     1       3.842   3.110   1.171  0.00  0.00    +0.133 C 
BRANCH  22  23
ATOM     23  C   UNL     1       3.335   4.538   1.384  0.00  0.00    +0.174 C 
BRANCH  23  24
ATOM     24  O   UNL     1       1.907   4.539   1.396  0.00  0.00    -0.393 OA
ATOM     25  H   UNL     1       1.515   5.414   1.527  0.00  0.00    +0.209 HD
ENDBRANCH  23  24
ENDBRANCH  22  23
ENDBRANCH  15  22
ENDBRANCH   3  15
TORSDOF 6
