REMARK  Name = ZINC61551496
REMARK  11 active torsions:
REMARK  status: ('A' for Active; 'I' for Inactive)
REMARK    1  A    between atoms: C_1  and  C_2
REMARK    2  A    between atoms: C_4  and  C_27
REMARK    3  A    between atoms: C_9  and  C_10
REMARK    4  A    between atoms: C_10  and  N_11
REMARK    5  A    between atoms: N_14  and  C_15
REMARK    6  A    between atoms: C_15  and  C_16
REMARK    7  A    between atoms: C_16  and  C_17
REMARK    8  A    between atoms: C_16  and  N_20
REMARK    9  A    between atoms: C_17  and  C_18
REMARK   10  A    between atoms: C_17  and  C_19
REMARK   11  A    between atoms: C_23  and  C_26
REMARK                            x       y       z     vdW  Elec       q    Type
REMARK                         _______ _______ _______ _____ _____    ______ ____
ROOT
ATOM      1  N   UNL     1      -1.196   0.713   2.895  0.00  0.00    -0.295 N 
ATOM      2  C   UNL     1      -1.493   1.046   4.167  0.00  0.00    +0.300 C 
ATOM      3  O   UNL     1      -0.607   1.142   4.993  0.00  0.00    -0.253 OA
ATOM      4  N   UNL     1      -2.774   1.271   4.523  0.00  0.00    -0.301 N 
ATOM      5  H   UNL     1      -1.904   0.636   2.236  0.00  0.00    +0.151 HD
ATOM      6  H   UNL     1      -3.481   1.193   3.864  0.00  0.00    +0.150 HD
ENDROOT
BRANCH   1   7
ATOM      7  C   UNL     1       0.195   0.469   2.507  0.00  0.00    +0.146 C 
BRANCH   7  16
ATOM      8  C   UNL     1       0.734   2.510   0.538  0.00  0.00    +0.044 C 
ATOM      9  C   UNL     1       0.509   1.082   0.113  0.00  0.00    -0.039 A 
ATOM     10  C   UNL     1       0.565   0.729  -1.243  0.00  0.00    +0.024 A 
ATOM     11  C   UNL     1       0.362  -0.556  -1.615  0.00  0.00    +0.016 A 
ATOM     12  N   UNL     1       0.104  -1.514  -0.688  0.00  0.00    -0.326 N 
ATOM     13  H   UNL     1      -0.039  -2.430  -0.972  0.00  0.00    +0.169 HD
ATOM     14  C   UNL     1       0.045  -1.206   0.622  0.00  0.00    +0.254 A 
ATOM     15  O   UNL     1      -0.188  -2.079   1.443  0.00  0.00    -0.268 OA
ATOM     16  C   UNL     1       0.255   0.117   1.043  0.00  0.00    +0.037 A 
ATOM     17  C   UNL     1       0.423  -0.928  -3.074  0.00  0.00    +0.063 C 
ENDBRANCH   7  16
ENDBRANCH   1   7
BRANCH   4  18
ATOM     18  C   UNL     1      -3.097   1.632   5.905  0.00  0.00    +0.091 C 
BRANCH  18  19
ATOM     19  C   UNL     1      -4.616   1.645   6.087  0.00  0.00    -0.048 C 
BRANCH  19  20
ATOM     20  N   UNL     1      -5.130   0.271   6.014  0.00  0.00    +0.383 N 
ATOM     21  C   UNL     1      -4.925  -0.256   4.660  0.00  0.00    -0.078 C 
ATOM     22  C   UNL     1      -5.531  -1.657   4.556  0.00  0.00    -0.016 C 
ATOM     23  C   UNL     1      -4.850  -2.578   5.572  0.00  0.00    -0.018 C 
ATOM     24  C   UNL     1      -5.007  -1.981   6.973  0.00  0.00    -0.016 C 
ATOM     25  C   UNL     1      -4.420  -0.568   6.988  0.00  0.00    -0.078 C 
ATOM     26  C   UNL     1      -5.506  -3.960   5.529  0.00  0.00    +0.007 C 
ATOM     27  H   UNL     1      -6.116   0.270   6.228  0.00  0.00    -0.081 HD
ENDBRANCH  19  20
BRANCH  19  28
ATOM     28  C   UNL     1      -4.961   2.247   7.451  0.00  0.00    -0.029 C 
ATOM     29  C   UNL     1      -4.533   3.716   7.483  0.00  0.00    +0.005 C 
ATOM     30  C   UNL     1      -6.470   2.151   7.684  0.00  0.00    +0.005 C 
ENDBRANCH  19  28
ENDBRANCH  18  19
ENDBRANCH   4  18
TORSDOF 6
