REMARK  Name = ZINC08870857
REMARK  6 active torsions:
REMARK  status: ('A' for Active; 'I' for Inactive)
REMARK    1  A    between atoms: C_7  and  N_18
REMARK    2  A    between atoms: C_9  and  S_12
REMARK    3  A    between atoms: C_10  and  O_11
REMARK    4  A    between atoms: S_12  and  C_13
REMARK    5  A    between atoms: N_18  and  S_19
REMARK    6  A    between atoms: S_19  and  C_22
REMARK                            x       y       z     vdW  Elec       q    Type
REMARK                         _______ _______ _______ _____ _____    ______ ____
ROOT
ATOM      1  C   UNL     1      -4.875   3.511   2.133  0.00  0.00    +0.001 A 
ATOM      2  C   UNL     1      -5.988   2.705   2.365  0.00  0.00    +0.001 A 
ATOM      3  C   UNL     1      -5.920   1.355   2.208  0.00  0.00    +0.012 A 
ATOM      4  C   UNL     1      -4.710   0.762   1.806  0.00  0.00    +0.026 A 
ATOM      5  C   UNL     1      -3.577   1.582   1.575  0.00  0.00    +0.008 A 
ATOM      6  C   UNL     1      -3.688   2.972   1.743  0.00  0.00    +0.010 A 
ATOM      7  C   UNL     1      -2.363   0.992   1.165  0.00  0.00    +0.057 A 
ATOM      8  C   UNL     1      -2.287  -0.373   1.004  0.00  0.00    +0.044 A 
ATOM      9  C   UNL     1      -3.402  -1.183   1.237  0.00  0.00    +0.058 A 
ATOM     10  C   UNL     1      -4.605  -0.630   1.634  0.00  0.00    +0.138 A 
ENDROOT
BRANCH  10  11
ATOM     11  O   UNL     1      -5.683  -1.430   1.857  0.00  0.00    -0.505 OA
ATOM     12  H   UNL     1      -5.756  -1.748   2.767  0.00  0.00    +0.292 HD
ENDBRANCH  10  11
BRANCH   7  13
ATOM     13  N   UNL     1      -1.240   1.789   0.929  0.00  0.00    -0.216 N 
ATOM     14  H   UNL     1      -1.071   2.566   1.485  0.00  0.00    +0.174 HD
BRANCH  13  15
ATOM     15  S   UNL     1      -0.198   1.409  -0.300  0.00  0.00    +0.074 S 
ATOM     16  O   UNL     1      -0.064  -0.006  -0.296  0.00  0.00    -0.150 OA
ATOM     17  O   UNL     1       0.917   2.280  -0.172  0.00  0.00    -0.150 OA
BRANCH  15  18
ATOM     18  C   UNL     1      -0.998   1.834  -1.812  0.00  0.00    +0.134 A 
ATOM     19  C   UNL     1      -0.448   2.766  -2.637  0.00  0.00    +0.031 A 
ATOM     20  C   UNL     1      -1.063   3.117  -3.837  0.00  0.00    +0.003 A 
ATOM     21  C   UNL     1      -2.235   2.536  -4.217  0.00  0.00    +0.010 A 
ATOM     22  C   UNL     1      -2.831   1.571  -3.390  0.00  0.00    +0.002 A 
ATOM     23  C   UNL     1      -2.204   1.208  -2.172  0.00  0.00    +0.097 A 
ATOM     24  N   UNL     1      -2.771   0.293  -1.379  0.00  0.00    -0.253 NA
ATOM     25  C   UNL     1      -3.897  -0.290  -1.708  0.00  0.00    +0.111 A 
ATOM     26  C   UNL     1      -4.563   0.017  -2.894  0.00  0.00    +0.020 A 
ATOM     27  C   UNL     1      -4.041   0.947  -3.747  0.00  0.00    +0.011 A 
ENDBRANCH  15  18
ENDBRANCH  13  15
ENDBRANCH   7  13
BRANCH   9  28
ATOM     28  S   UNL     1      -3.272  -2.927   1.023  0.00  0.00    -0.060 S 
BRANCH  28  29
ATOM     29  C   UNL     1      -3.265  -3.443   2.707  0.00  0.00    +0.130 C 
ATOM     30  N   UNL     1      -3.421  -2.693   3.754  0.00  0.00    -0.269 NA
ATOM     31  C   UNL     1      -3.401  -3.234   5.094  0.00  0.00    +0.154 C 
ATOM     32  C   UNL     1      -3.166  -4.761   5.119  0.00  0.00    +0.099 C 
ATOM     33  S   UNL     1      -3.036  -5.100   3.321  0.00  0.00    -0.097 S 
ENDBRANCH  28  29
ENDBRANCH   9  28
TORSDOF 6
