REMARK  Name = ZINC13682392
REMARK  12 active torsions:
REMARK  status: ('A' for Active; 'I' for Inactive)
REMARK    1  A    between atoms: C_1  and  C_2
REMARK    2  A    between atoms: C_2  and  C_3
REMARK    3  A    between atoms: C_2  and  C_4
REMARK    4  A    between atoms: C_4  and  N_5
REMARK    5  A    between atoms: N_5  and  C_6
REMARK    6  A    between atoms: N_5  and  C_27
REMARK    7  A    between atoms: C_6  and  C_7
REMARK    8  A    between atoms: C_8  and  O_26
REMARK    9  A    between atoms: C_15  and  C_16
REMARK   10  A    between atoms: C_27  and  C_28
REMARK   11  A    between atoms: C_28  and  C_29
REMARK   12  A    between atoms: C_28  and  C_30
REMARK                            x       y       z     vdW  Elec       q    Type
REMARK                         _______ _______ _______ _____ _____    ______ ____
ROOT
ATOM      1  C   UNL     1       2.523  -1.053   2.034  0.00  0.00    +0.020 A 
ATOM      2  C   UNL     1       3.012  -0.124   2.938  0.00  0.00    +0.122 A 
ATOM      3  C   UNL     1       2.239   0.285   4.021  0.00  0.00    +0.046 A 
ATOM      4  C   UNL     1       0.985  -0.228   4.202  0.00  0.00    +0.019 A 
ATOM      5  C   UNL     1       0.480  -1.164   3.300  0.00  0.00    +0.068 A 
ATOM      6  C   UNL     1       1.248  -1.581   2.200  0.00  0.00    +0.144 A 
ATOM      7  O   UNL     1       0.551  -2.478   1.471  0.00  0.00    -0.451 OA
ATOM      8  C   UNL     1      -0.674  -2.712   1.997  0.00  0.00    +0.176 C 
ATOM      9  C   UNL     1      -1.611  -3.559   1.502  0.00  0.00    +0.059 C 
ATOM     10  C   UNL     1      -0.799  -1.893   3.213  0.00  0.00    +0.231 C 
ATOM     11  O   UNL     1      -1.751  -1.821   3.970  0.00  0.00    -0.283 OA
ENDROOT
BRANCH   9  12
ATOM     12  C   UNL     1      -1.271  -4.466   0.398  0.00  0.00    -0.003 A 
ATOM     13  C   UNL     1       0.069  -4.734   0.095  0.00  0.00    +0.011 A 
ATOM     14  C   UNL     1       0.380  -5.587  -0.942  0.00  0.00    +0.020 A 
ATOM     15  C   UNL     1      -0.629  -6.178  -1.685  0.00  0.00    +0.042 A 
ATOM     16  C   UNL     1      -1.958  -5.919  -1.393  0.00  0.00    +0.040 A 
ATOM     17  C   UNL     1      -2.286  -5.072  -0.354  0.00  0.00    +0.050 A 
ATOM     18 CL   UNL     1      -3.952  -4.754   0.017  0.00  0.00    -0.083 Cl
ATOM     19 CL   UNL     1      -0.226  -7.250  -2.990  0.00  0.00    -0.083 Cl
ENDBRANCH   9  12
BRANCH   2  20
ATOM     20  O   UNL     1       4.255   0.392   2.766  0.00  0.00    -0.506 OA
ATOM     21  H   UNL     1       4.277   1.195   2.228  0.00  0.00    +0.292 HD
ENDBRANCH   2  20
BRANCH   1  22
ATOM     22  C   UNL     1       3.371  -1.487   0.866  0.00  0.00    -0.036 C 
BRANCH  22  23
ATOM     23  N   UNL     1       2.954  -0.758  -0.340  0.00  0.00    +0.383 N 
ATOM     24  H   UNL     1       1.970  -0.913  -0.502  0.00  0.00    -0.081 HD
BRANCH  23  25
ATOM     25  C   UNL     1       3.722  -1.242  -1.494  0.00  0.00    -0.075 C 
BRANCH  25  27
ATOM     26  C   UNL     1       1.894  -2.739  -2.307  0.00  0.00    +0.005 C 
ATOM     27  C   UNL     1       3.335  -2.691  -1.794  0.00  0.00    -0.034 C 
ATOM     28  C   UNL     1       4.274  -3.260  -2.860  0.00  0.00    +0.005 C 
ENDBRANCH  25  27
ENDBRANCH  23  25
BRANCH  23  29
ATOM     29  C   UNL     1       3.200   0.678  -0.154  0.00  0.00    -0.075 C 
BRANCH  29  30
ATOM     30  C   UNL     1       2.652   1.449  -1.357  0.00  0.00    -0.034 C 
ATOM     31  C   UNL     1       1.130   1.302  -1.406  0.00  0.00    +0.005 C 
ATOM     32  C   UNL     1       3.018   2.929  -1.223  0.00  0.00    +0.005 C 
ENDBRANCH  29  30
ENDBRANCH  23  29
ENDBRANCH  22  23
ENDBRANCH   1  22
TORSDOF 8
