REMARK  Name = ZINC67299287
REMARK  6 active torsions:
REMARK  status: ('A' for Active; 'I' for Inactive)
REMARK    1  A    between atoms: C_3  and  C_28
REMARK    2  A    between atoms: C_5  and  N_7
REMARK    3  A    between atoms: C_9  and  C_19
REMARK    4  A    between atoms: C_14  and  O_18
REMARK    5  A    between atoms: N_21  and  C_22
REMARK    6  A    between atoms: C_22  and  C_23
REMARK                            x       y       z     vdW  Elec       q    Type
REMARK                         _______ _______ _______ _____ _____    ______ ____
ROOT
ATOM      1  N   UNL     1       1.258  -2.052  -0.018  0.00  0.00    -0.325 N 
ATOM      2  C   UNL     1       0.472  -2.728   0.791  0.00  0.00    +0.212 A 
ATOM      3  C   UNL     1       0.399  -4.201   0.731  0.00  0.00    +0.097 A 
ATOM      4  C   UNL     1       0.015  -4.869   1.885  0.00  0.00    +0.030 A 
ATOM      5  C   UNL     1      -0.312  -4.096   3.029  0.00  0.00    +0.018 A 
ATOM      6  C   UNL     1      -0.510  -4.716   4.271  0.00  0.00    +0.015 A 
ATOM      7  C   UNL     1      -0.782  -3.960   5.373  0.00  0.00    +0.046 A 
ATOM      8  C   UNL     1      -0.873  -2.572   5.273  0.00  0.00    +0.120 A 
ATOM      9  C   UNL     1      -0.699  -1.943   4.050  0.00  0.00    +0.092 A 
ATOM     10  C   UNL     1      -0.430  -2.697   2.920  0.00  0.00    +0.141 A 
ATOM     11  O   UNL     1      -0.297  -2.096   1.714  0.00  0.00    -0.438 OA
ATOM     12  H   UNL     1       1.865  -2.523  -0.611  0.00  0.00    +0.169 HD
ENDROOT
BRANCH   1  17
ATOM     13  C   UNL     1      -0.037   1.362  -0.033  0.00  0.00    +0.003 A 
ATOM     14  C   UNL     1       1.144   2.083  -0.037  0.00  0.00    +0.012 A 
ATOM     15  C   UNL     1       2.363   1.428  -0.035  0.00  0.00    +0.057 A 
ATOM     16  C   UNL     1       2.409   0.050  -0.029  0.00  0.00    +0.038 A 
ATOM     17  C   UNL     1       1.220  -0.685  -0.024  0.00  0.00    +0.042 A 
ATOM     18  C   UNL     1      -0.006  -0.017  -0.027  0.00  0.00    +0.026 A 
BRANCH  15  19
ATOM     19  C   UNL     1       3.643   2.223  -0.040  0.00  0.00    +0.417 C 
ATOM     20  F   UNL     1       3.344   3.590  -0.046  0.00  0.00    -0.166 F 
ATOM     21  F   UNL     1       4.389   1.914   1.103  0.00  0.00    -0.166 F 
ATOM     22  F   UNL     1       4.386   1.903  -1.181  0.00  0.00    -0.166 F 
ENDBRANCH  15  19
ENDBRANCH   1  17
BRANCH   3  23
ATOM     23  C   UNL     1       0.721  -4.933  -0.505  0.00  0.00    +0.250 C 
ATOM     24  O   UNL     1       1.139  -4.332  -1.476  0.00  0.00    -0.270 OA
ATOM     25  N   UNL     1       0.552  -6.269  -0.560  0.00  0.00    -0.304 N 
ATOM     26  H   UNL     1       0.150  -6.739   0.188  0.00  0.00    +0.149 HD
BRANCH  25  27
ATOM     27  C   UNL     1       0.978  -7.013  -1.748  0.00  0.00    +0.179 C 
BRANCH  27  28
ATOM     28  C   UNL     1       0.680  -8.478  -1.557  0.00  0.00    +0.122 A 
ATOM     29  C   UNL     1      -0.460  -9.101  -1.905  0.00  0.00    +0.046 A 
ATOM     30  C   UNL     1      -0.309 -10.461  -1.547  0.00  0.00    +0.041 A 
ATOM     31  C   UNL     1       0.915 -10.587  -1.003  0.00  0.00    +0.195 A 
ATOM     32  O   UNL     1       1.512  -9.384  -1.017  0.00  0.00    -0.466 OA
ENDBRANCH  27  28
ENDBRANCH  25  27
ENDBRANCH   3  23
BRANCH   8  33
ATOM     33  O   UNL     1      -1.133  -1.832   6.380  0.00  0.00    -0.507 OA
ATOM     34  H   UNL     1      -0.342  -1.550   6.860  0.00  0.00    +0.292 HD
ENDBRANCH   8  33
TORSDOF 6
