REMARK  Name = ZINC39949633
REMARK  11 active torsions:
REMARK  status: ('A' for Active; 'I' for Inactive)
REMARK    1  A    between atoms: C_1  and  C_2
REMARK    2  A    between atoms: C_2  and  C_3
REMARK    3  A    between atoms: C_2  and  O_4
REMARK    4  A    between atoms: O_4  and  C_5
REMARK    5  A    between atoms: C_8  and  C_11
REMARK    6  A    between atoms: C_12  and  C_13
REMARK    7  A    between atoms: C_12  and  N_27
REMARK    8  A    between atoms: N_15  and  C_16
REMARK    9  A    between atoms: C_16  and  C_17
REMARK   10  A    between atoms: C_17  and  C_18
REMARK   11  A    between atoms: C_28  and  C_30
REMARK                            x       y       z     vdW  Elec       q    Type
REMARK                         _______ _______ _______ _____ _____    ______ ____
ROOT
ATOM      1  C   UNL     1      -1.970  -5.552  -2.312  0.00  0.00    +0.036 C 
ATOM      2  C   UNL     1      -3.200  -6.113  -2.391  0.00  0.00    +0.097 C 
ENDROOT
BRANCH   1   6
ATOM      3  C   UNL     1      -1.443  -1.877  -0.262  0.00  0.00    +0.121 A 
ATOM      4  C   UNL     1      -0.470  -2.320  -1.149  0.00  0.00    +0.046 A 
ATOM      5  C   UNL     1      -0.636  -3.513  -1.818  0.00  0.00    +0.011 A 
ATOM      6  C   UNL     1      -1.787  -4.279  -1.601  0.00  0.00    -0.023 A 
ATOM      7  C   UNL     1      -2.764  -3.827  -0.707  0.00  0.00    +0.011 A 
ATOM      8  C   UNL     1      -2.586  -2.636  -0.040  0.00  0.00    +0.046 A 
BRANCH   3   9
ATOM      9  O   UNL     1      -1.274  -0.700   0.394  0.00  0.00    -0.489 OA
BRANCH   9  11
ATOM     10  C   UNL     1      -1.692   0.667   2.343  0.00  0.00    +0.051 C 
ATOM     11  C   UNL     1      -2.274  -0.341   1.350  0.00  0.00    +0.167 C 
ATOM     12  C   UNL     1      -3.469   0.286   0.628  0.00  0.00    +0.051 C 
ENDBRANCH   9  11
ENDBRANCH   3   9
ENDBRANCH   1   6
BRANCH   2  13
ATOM     13  C   UNL     1      -3.359  -7.457  -2.962  0.00  0.00    +0.258 C 
ATOM     14  O   UNL     1      -2.379  -8.090  -3.309  0.00  0.00    -0.269 OA
ATOM     15  N   UNL     1      -4.589  -7.988  -3.103  0.00  0.00    -0.310 N 
ATOM     16  H   UNL     1      -5.374  -7.456  -2.895  0.00  0.00    +0.149 HD
BRANCH  15  17
ATOM     17  C   UNL     1      -4.742  -9.368  -3.569  0.00  0.00    +0.112 C 
BRANCH  17  18
ATOM     18  C   UNL     1      -6.230  -9.721  -3.640  0.00  0.00    +0.095 C 
BRANCH  18  19
ATOM     19  C   UNL     1      -6.387 -11.140  -4.120  0.00  0.00    +0.132 C 
ATOM     20  N   UNL     1      -5.397 -11.945  -4.421  0.00  0.00    -0.231 NA
ATOM     21  C   UNL     1      -5.921 -13.130  -4.809  0.00  0.00    +0.087 C 
ATOM     22  C   UNL     1      -5.370 -14.332  -5.234  0.00  0.00    +0.029 C 
ATOM     23  C   UNL     1      -6.150 -15.439  -5.589  0.00  0.00    -0.002 C 
ATOM     24  C   UNL     1      -7.492 -15.419  -5.545  0.00  0.00    -0.021 C 
ATOM     25  C   UNL     1      -8.194 -14.155  -5.095  0.00  0.00    +0.084 C 
ATOM     26  C   UNL     1      -7.324 -12.980  -4.719  0.00  0.00    +0.072 C 
ATOM     27  N   UNL     1      -7.554 -11.763  -4.293  0.00  0.00    -0.234 NA
ENDBRANCH  18  19
ENDBRANCH  17  18
ENDBRANCH  15  17
ENDBRANCH   2  13
BRANCH   2  28
ATOM     28  N   UNL     1      -4.319  -5.413  -1.928  0.00  0.00    -0.277 N 
ATOM     29  C   UNL     1      -5.146  -5.983  -1.029  0.00  0.00    +0.250 C 
ATOM     30  O   UNL     1      -4.868  -7.065  -0.548  0.00  0.00    -0.270 OA
ATOM     31  H   UNL     1      -4.500  -4.517  -2.253  0.00  0.00    +0.155 HD
BRANCH  29  32
ATOM     32  C   UNL     1      -6.389  -5.293  -0.627  0.00  0.00    +0.055 A 
ATOM     33  C   UNL     1      -6.713  -4.053  -1.181  0.00  0.00    +0.014 A 
ATOM     34  C   UNL     1      -7.875  -3.414  -0.803  0.00  0.00    +0.001 A 
ATOM     35  C   UNL     1      -8.720  -3.999   0.125  0.00  0.00    +0.001 A 
ATOM     36  C   UNL     1      -8.406  -5.226   0.679  0.00  0.00    +0.021 A 
ATOM     37  C   UNL     1      -7.248  -5.880   0.304  0.00  0.00    +0.053 A 
ATOM     38 CL   UNL     1      -6.859  -7.425   0.995  0.00  0.00    -0.083 Cl
ENDBRANCH  29  32
ENDBRANCH   2  28
TORSDOF 9
