REMARK  Name = ZINC40986403
REMARK  13 active torsions:
REMARK  status: ('A' for Active; 'I' for Inactive)
REMARK    1  A    between atoms: C_1  and  N_2
REMARK    2  A    between atoms: N_2  and  C_3
REMARK    3  A    between atoms: N_2  and  C_4
REMARK    4  A    between atoms: C_7  and  C_10
REMARK    5  A    between atoms: C_10  and  C_12
REMARK    6  A    between atoms: C_10  and  N_34
REMARK    7  A    between atoms: C_12  and  N_13
REMARK    8  A    between atoms: C_14  and  C_16
REMARK    9  A    between atoms: C_19  and  S_23
REMARK   10  A    between atoms: S_23  and  C_26
REMARK   11  A    between atoms: C_26  and  C_27
REMARK   12  A    between atoms: N_34  and  C_35
REMARK   13  A    between atoms: N_34  and  C_36
REMARK                            x       y       z     vdW  Elec       q    Type
REMARK                         _______ _______ _______ _____ _____    ______ ____
ROOT
ATOM      1  N   UNL     1      -0.699  -3.397  -7.032  0.00  0.00    -0.312 N 
ATOM      2  C   UNL     1      -1.685  -3.549  -7.938  0.00  0.00    +0.248 C 
ATOM      3  O   UNL     1      -2.838  -3.318  -7.627  0.00  0.00    -0.270 OA
ATOM      4  H   UNL     1       0.220  -3.581  -7.281  0.00  0.00    +0.149 HD
ENDROOT
BRANCH   2   5
ATOM      5  C   UNL     1      -1.367  -3.997  -9.309  0.00  0.00    +0.092 A 
ATOM      6  C   UNL     1      -0.048  -4.275  -9.687  0.00  0.00    +0.130 A 
ATOM      7  N   UNL     1       0.192  -4.673 -10.924  0.00  0.00    -0.219 NA
ATOM      8  C   UNL     1      -0.788  -4.811 -11.796  0.00  0.00    +0.272 A 
ATOM      9  N   UNL     1      -2.044  -4.561 -11.484  0.00  0.00    -0.199 NA
ATOM     10  C   UNL     1      -2.377  -4.163 -10.267  0.00  0.00    +0.146 A 
ATOM     11 CL   UNL     1      -4.035  -3.843  -9.864  0.00  0.00    -0.061 Cl
BRANCH   8  12
ATOM     12  S   UNL     1      -0.406  -5.346 -13.431  0.00  0.00    +0.036 S 
ATOM     13  O   UNL     1      -1.452  -4.822 -14.237  0.00  0.00    -0.166 OA
ATOM     14  O   UNL     1       0.940  -4.942 -13.639  0.00  0.00    -0.166 OA
BRANCH  12  15
ATOM     15  C   UNL     1      -0.513  -7.155 -13.367  0.00  0.00    +0.210 C 
BRANCH  15  16
ATOM     16  C   UNL     1      -0.201  -7.726 -14.726  0.00  0.00    -0.026 A 
ATOM     17  C   UNL     1      -1.218  -7.924 -15.642  0.00  0.00    +0.008 A 
ATOM     18  C   UNL     1      -0.934  -8.446 -16.889  0.00  0.00    +0.038 A 
ATOM     19  C   UNL     1       0.370  -8.771 -17.222  0.00  0.00    +0.123 A 
ATOM     20  C   UNL     1       1.388  -8.572 -16.304  0.00  0.00    +0.038 A 
ATOM     21  C   UNL     1       1.102  -8.045 -15.059  0.00  0.00    +0.008 A 
ATOM     22  F   UNL     1       0.650  -9.283 -18.441  0.00  0.00    -0.205 F 
ENDBRANCH  15  16
ENDBRANCH  12  15
ENDBRANCH   8  12
ENDBRANCH   2   5
BRANCH   1  23
ATOM     23  C   UNL     1      -1.015  -2.952  -5.673  0.00  0.00    +0.094 C 
BRANCH  23  24
ATOM     24  C   UNL     1       0.281  -2.770  -4.881  0.00  0.00    -0.021 C 
BRANCH  24  28
ATOM     25  C   UNL     1       2.231  -6.549  -4.450  0.00  0.00    +0.029 A 
ATOM     26  C   UNL     1       2.657  -5.653  -5.422  0.00  0.00    +0.023 A 
ATOM     27  C   UNL     1       2.024  -4.433  -5.559  0.00  0.00    +0.004 A 
ATOM     28  C   UNL     1       0.969  -4.103  -4.729  0.00  0.00    -0.059 A 
ATOM     29  C   UNL     1       0.542  -4.992  -3.760  0.00  0.00    +0.004 A 
ATOM     30  C   UNL     1       1.167  -6.217  -3.622  0.00  0.00    +0.023 A 
BRANCH  25  32
ATOM     31  C   UNL     1       2.414  -8.730  -3.287  0.00  0.00    +0.129 C 
ATOM     32  N   UNL     1       2.868  -7.784  -4.309  0.00  0.00    -0.336 N 
ATOM     33  C   UNL     1       3.991  -8.133  -5.183  0.00  0.00    +0.129 C 
ENDBRANCH  25  32
ENDBRANCH  24  28
BRANCH  24  34
ATOM     34  N   UNL     1      -0.028  -2.225  -3.553  0.00  0.00    +0.382 N 
ATOM     35  C   UNL     1       1.212  -2.093  -2.776  0.00  0.00    -0.096 C 
ATOM     36  C   UNL     1      -0.657  -0.905  -3.699  0.00  0.00    -0.096 C 
ATOM     37  H   UNL     1      -0.661  -2.848  -3.073  0.00  0.00    -0.082 HD
ENDBRANCH  24  34
ENDBRANCH  23  24
ENDBRANCH   1  23
TORSDOF 9
