REMARK  Name = ZINC39987287
REMARK  10 active torsions:
REMARK  status: ('A' for Active; 'I' for Inactive)
REMARK    1  A    between atoms: C_1  and  C_2
REMARK    2  A    between atoms: C_2  and  C_4
REMARK    3  A    between atoms: C_2  and  O_29
REMARK    4  A    between atoms: N_6  and  N_7
REMARK    5  A    between atoms: N_15  and  C_18
REMARK    6  A    between atoms: C_18  and  C_19
REMARK    7  A    between atoms: C_19  and  C_20
REMARK    8  A    between atoms: C_20  and  O_21
REMARK    9  A    between atoms: O_21  and  C_22
REMARK   10  A    between atoms: O_29  and  C_30
REMARK                            x       y       z     vdW  Elec       q    Type
REMARK                         _______ _______ _______ _____ _____    ______ ____
ROOT
ATOM      1  N   UNL     1       0.983  -1.123  -3.560  0.00  0.00    -0.174 NA
ATOM      2  C   UNL     1       0.466  -1.085  -4.764  0.00  0.00    +0.153 C 
ATOM      3  C   UNL     1       1.098  -1.520  -6.032  0.00  0.00    +0.028 A 
ATOM      4  C   UNL     1       2.340  -2.064  -6.339  0.00  0.00    +0.012 A 
ATOM      5  C   UNL     1       2.647  -2.373  -7.649  0.00  0.00    +0.001 A 
ATOM      6  C   UNL     1       1.721  -2.142  -8.652  0.00  0.00    +0.002 A 
ATOM      7  C   UNL     1       0.486  -1.602  -8.357  0.00  0.00    +0.024 A 
ATOM      8  C   UNL     1       0.158  -1.284  -7.043  0.00  0.00    +0.046 A 
ATOM      9  N   UNL     1      -0.993  -0.741  -6.484  0.00  0.00    -0.265 N 
ATOM     10  C   UNL     1      -0.876  -0.606  -5.152  0.00  0.00    +0.271 C 
ATOM     11  O   UNL     1      -1.725  -0.165  -4.400  0.00  0.00    -0.268 OA
ENDROOT
BRANCH   1  14
ATOM     12  C   UNL     1       0.768  -0.712  -1.225  0.00  0.00    +0.273 C 
ATOM     13  O   UNL     1       1.893  -1.136  -1.061  0.00  0.00    -0.270 OA
ATOM     14  N   UNL     1       0.237  -0.673  -2.463  0.00  0.00    -0.203 N 
ATOM     15  H   UNL     1      -0.662  -0.334  -2.594  0.00  0.00    +0.177 HD
BRANCH  12  17
ATOM     16  C   UNL     1      -0.292   1.273  -0.184  0.00  0.00    +0.062 C 
ATOM     17  C   UNL     1      -0.034  -0.229  -0.045  0.00  0.00    +0.257 C 
BRANCH  17  18
ATOM     18  O   UNL     1       0.693  -0.477   1.160  0.00  0.00    -0.480 OA
BRANCH  18  19
ATOM     19  C   UNL     1      -0.031  -0.600   2.303  0.00  0.00    +0.122 A 
ATOM     20  C   UNL     1      -1.400  -0.376   2.286  0.00  0.00    +0.045 A 
ATOM     21  C   UNL     1      -2.133  -0.502   3.450  0.00  0.00    +0.004 A 
ATOM     22  C   UNL     1      -1.504  -0.849   4.631  0.00  0.00    +0.000 A 
ATOM     23  C   UNL     1      -0.140  -1.072   4.651  0.00  0.00    +0.004 A 
ATOM     24  C   UNL     1       0.598  -0.954   3.489  0.00  0.00    +0.045 A 
ENDBRANCH  18  19
ENDBRANCH  17  18
ENDBRANCH  12  17
ENDBRANCH   1  14
BRANCH   9  25
ATOM     25  C   UNL     1      -2.186  -0.369  -7.250  0.00  0.00    +0.117 C 
BRANCH  25  26
ATOM     26  C   UNL     1      -3.136  -1.565  -7.328  0.00  0.00    +0.060 C 
BRANCH  26  27
ATOM     27  C   UNL     1      -4.381  -1.177  -8.127  0.00  0.00    +0.230 C 
BRANCH  27  28
ATOM     28  O   UNL     1      -5.268  -2.295  -8.201  0.00  0.00    -0.491 OA
BRANCH  28  29
ATOM     29  C   UNL     1      -6.431  -2.116  -8.882  0.00  0.00    +0.134 A 
ATOM     30  C   UNL     1      -6.709  -0.892  -9.472  0.00  0.00    +0.047 A 
ATOM     31  C   UNL     1      -7.892  -0.713 -10.163  0.00  0.00    +0.004 A 
ATOM     32  C   UNL     1      -8.798  -1.753 -10.267  0.00  0.00    +0.001 A 
ATOM     33  C   UNL     1      -8.523  -2.974  -9.681  0.00  0.00    +0.019 A 
ATOM     34  C   UNL     1      -7.339  -3.160  -8.992  0.00  0.00    +0.059 A 
ATOM     35 BR   UNL     1      -6.959  -4.833  -8.197  0.00  0.00    -0.047 Br
ENDBRANCH  28  29
ENDBRANCH  27  28
ENDBRANCH  26  27
ENDBRANCH  25  26
ENDBRANCH   9  25
TORSDOF 9
