REMARK  Name = ZINC06365064
REMARK  7 active torsions:
REMARK  status: ('A' for Active; 'I' for Inactive)
REMARK    1  A    between atoms: C_1  and  C_2
REMARK    2  A    between atoms: C_2  and  C_3
REMARK    3  A    between atoms: C_2  and  C_4
REMARK    4  A    between atoms: C_7  and  C_10
REMARK    5  A    between atoms: C_11  and  C_12
REMARK    6  A    between atoms: N_14  and  C_15
REMARK    7  A    between atoms: N_23  and  C_26
REMARK                            x       y       z     vdW  Elec       q    Type
REMARK                         _______ _______ _______ _____ _____    ______ ____
ROOT
ATOM      1  C   UNL     1       2.024  -1.703  -0.037  0.00  0.00    +0.047 A 
ATOM      2  C   UNL     1       3.273  -1.688  -0.660  0.00  0.00    +0.024 A 
ATOM      3  C   UNL     1       4.032  -0.536  -0.674  0.00  0.00    +0.003 A 
ATOM      4  C   UNL     1       3.566   0.624  -0.070  0.00  0.00    +0.014 A 
ATOM      5  C   UNL     1       2.330   0.630   0.553  0.00  0.00    +0.052 A 
ATOM      6  C   UNL     1       1.547  -0.545   0.572  0.00  0.00    +0.071 A 
ATOM      7  C   UNL     1       0.315  -0.197   1.302  0.00  0.00    +0.260 C 
ATOM      8  O   UNL     1      -0.611  -0.951   1.528  0.00  0.00    -0.269 OA
ATOM      9  N   UNL     1       0.386   1.092   1.677  0.00  0.00    -0.202 N 
ATOM     10  C   UNL     1       1.542   1.651   1.275  0.00  0.00    +0.258 C 
ATOM     11  O   UNL     1       1.881   2.800   1.471  0.00  0.00    -0.269 OA
ENDROOT
BRANCH   9  12
ATOM     12  C   UNL     1      -0.615   1.767   2.390  0.00  0.00    +0.045 A 
ATOM     13  C   UNL     1      -1.780   1.104   2.750  0.00  0.00    +0.024 A 
ATOM     14  C   UNL     1      -2.761   1.770   3.457  0.00  0.00    +0.002 A 
ATOM     15  C   UNL     1      -2.590   3.100   3.796  0.00  0.00    +0.000 A 
ATOM     16  C   UNL     1      -1.433   3.765   3.433  0.00  0.00    +0.002 A 
ATOM     17  C   UNL     1      -0.445   3.102   2.731  0.00  0.00    +0.024 A 
ENDBRANCH   9  12
BRANCH   1  20
ATOM     18  C   UNL     1       1.863  -4.066  -0.139  0.00  0.00    +0.241 C 
ATOM     19  O   UNL     1       3.078  -4.140  -0.151  0.00  0.00    -0.270 OA
ATOM     20  N   UNL     1       1.262  -2.865  -0.025  0.00  0.00    -0.281 N 
ATOM     21  H   UNL     1       0.298  -2.812   0.066  0.00  0.00    +0.155 HD
BRANCH  18  23
ATOM     22  C   UNL     1       1.657  -6.483  -0.361  0.00  0.00    +0.013 C 
ATOM     23  C   UNL     1       1.055  -5.282  -0.247  0.00  0.00    +0.068 C 
BRANCH  22  27
ATOM     24  C   UNL     1      -0.685 -10.006  -0.675  0.00  0.00    -0.045 A 
ATOM     25  C   UNL     1       0.696 -10.094  -0.690  0.00  0.00    +0.004 A 
ATOM     26  C   UNL     1       1.464  -8.954  -0.589  0.00  0.00    +0.008 A 
ATOM     27  C   UNL     1       0.844  -7.706  -0.471  0.00  0.00    -0.025 A 
ATOM     28  C   UNL     1      -0.552  -7.626  -0.451  0.00  0.00    +0.008 A 
ATOM     29  C   UNL     1      -1.306  -8.775  -0.558  0.00  0.00    +0.004 A 
BRANCH  24  31
ATOM     30  C   UNL     1      -2.394 -11.400   0.459  0.00  0.00    +0.012 C 
ATOM     31  C   UNL     1      -1.517 -11.258  -0.786  0.00  0.00    +0.013 C 
ATOM     32  C   UNL     1      -2.406 -11.170  -2.029  0.00  0.00    +0.012 C 
ENDBRANCH  24  31
ENDBRANCH  22  27
ENDBRANCH  18  23
ENDBRANCH   1  20
TORSDOF 5
