REMARK  Name = ZINC46568271
REMARK  10 active torsions:
REMARK  status: ('A' for Active; 'I' for Inactive)
REMARK    1  A    between atoms: C_1  and  N_2
REMARK    2  A    between atoms: N_2  and  C_3
REMARK    3  A    between atoms: N_2  and  S_4
REMARK    4  A    between atoms: S_4  and  C_7
REMARK    5  A    between atoms: C_10  and  S_16
REMARK    6  A    between atoms: C_11  and  N_13
REMARK    7  A    between atoms: S_16  and  N_19
REMARK    8  A    between atoms: N_19  and  C_20
REMARK    9  A    between atoms: N_19  and  C_21
REMARK   10  A    between atoms: C_21  and  C_22
REMARK                            x       y       z     vdW  Elec       q    Type
REMARK                         _______ _______ _______ _____ _____    ______ ____
ROOT
ATOM      1  C   UNL     1       1.461  -0.752  -2.104  0.00  0.00    +0.108 A 
ATOM      2  C   UNL     1       2.237   0.048  -2.923  0.00  0.00    +0.030 A 
ATOM      3  C   UNL     1       3.531  -0.328  -3.230  0.00  0.00    +0.033 A 
ATOM      4  C   UNL     1       4.050  -1.503  -2.720  0.00  0.00    +0.136 A 
ATOM      5  C   UNL     1       3.274  -2.303  -1.901  0.00  0.00    +0.154 A 
ATOM      6  C   UNL     1       1.981  -1.924  -1.590  0.00  0.00    +0.063 A 
ENDROOT
BRANCH   1   7
ATOM      7  S   UNL     1      -0.188  -0.272  -1.712  0.00  0.00    +0.060 S 
ATOM      8  O   UNL     1      -0.885  -1.461  -1.366  0.00  0.00    -0.153 OA
ATOM      9  O   UNL     1      -0.621   0.588  -2.757  0.00  0.00    -0.153 OA
BRANCH   7  11
ATOM     10  C   UNL     1       0.050   2.103  -0.440  0.00  0.00    +0.131 C 
ATOM     11  N   UNL     1      -0.117   0.651  -0.339  0.00  0.00    -0.183 NA
ATOM     12  C   UNL     1      -0.220   0.015   0.977  0.00  0.00    +0.131 C 
ENDBRANCH   7  11
ENDBRANCH   1   7
BRANCH   5  13
ATOM     13  N   UNL     1       3.829  -3.561  -1.355  0.00  0.00    +0.058 N 
ATOM     14  O   UNL     1       3.113  -4.325  -0.750  0.00  0.00    -0.126 OA
ATOM     15  O   UNL     1       4.998  -3.826  -1.513  0.00  0.00    -0.126 OA
ENDBRANCH   5  13
BRANCH   4  16
ATOM     16  S   UNL     1       5.699  -1.983  -3.113  0.00  0.00    +0.063 S 
ATOM     17  O   UNL     1       6.500  -1.642  -1.990  0.00  0.00    -0.153 OA
ATOM     18  O   UNL     1       5.626  -3.308  -3.622  0.00  0.00    -0.153 OA
BRANCH  16  19
ATOM     19  N   UNL     1       6.203  -1.022  -4.364  0.00  0.00    -0.175 NA
ATOM     20  C   UNL     1       6.910   0.230  -4.086  0.00  0.00    +0.132 C 
BRANCH  19  21
ATOM     21  C   UNL     1       5.942  -1.425  -5.748  0.00  0.00    +0.145 C 
BRANCH  21  22
ATOM     22  C   UNL     1       4.631  -0.838  -6.204  0.00  0.00    -0.018 A 
ATOM     23  C   UNL     1       4.529   0.519  -6.446  0.00  0.00    +0.006 A 
ATOM     24  C   UNL     1       3.327   1.058  -6.864  0.00  0.00    +0.000 A 
ATOM     25  C   UNL     1       2.227   0.241  -7.041  0.00  0.00    +0.001 A 
ATOM     26  C   UNL     1       2.328  -1.116  -6.798  0.00  0.00    +0.015 A 
ATOM     27  C   UNL     1       3.532  -1.657  -6.385  0.00  0.00    +0.022 A 
ATOM     28 BR   UNL     1       3.673  -3.514  -6.060  0.00  0.00    -0.050 Br
ENDBRANCH  21  22
ENDBRANCH  19  21
ENDBRANCH  16  19
ENDBRANCH   4  16
TORSDOF 7
