REMARK  Name = ZINC39920309
REMARK  6 active torsions:
REMARK  status: ('A' for Active; 'I' for Inactive)
REMARK    1  A    between atoms: N_9  and  N_20
REMARK    2  A    between atoms: C_10  and  C_13
REMARK    3  A    between atoms: C_16  and  O_19
REMARK    4  A    between atoms: C_21  and  C_23
REMARK    5  A    between atoms: C_23  and  O_24
REMARK    6  A    between atoms: O_24  and  C_25
REMARK                            x       y       z     vdW  Elec       q    Type
REMARK                         _______ _______ _______ _____ _____    ______ ____
ROOT
ATOM      1  C   UNL     1      -0.055   1.153  -0.060  0.00  0.00    +0.001 A 
ATOM      2  C   UNL     1       1.107   1.842  -0.371  0.00  0.00    +0.002 A 
ATOM      3  C   UNL     1       2.312   1.175  -0.484  0.00  0.00    +0.024 A 
ATOM      4  C   UNL     1       2.357  -0.194  -0.284  0.00  0.00    +0.041 A 
ATOM      5  C   UNL     1       1.181  -0.897   0.034  0.00  0.00    +0.059 A 
ATOM      6  C   UNL     1      -0.026  -0.212   0.143  0.00  0.00    +0.015 A 
ATOM      7  C   UNL     1       1.270  -2.352   0.250  0.00  0.00    +0.266 C 
ATOM      8  O   UNL     1       0.347  -2.955   0.764  0.00  0.00    -0.268 OA
ATOM      9  N   UNL     1       2.386  -3.008  -0.131  0.00  0.00    -0.191 N 
ATOM     10  C   UNL     1       3.472  -2.316  -0.824  0.00  0.00    +0.212 C 
ATOM     11  N   UNL     1       3.541  -0.915  -0.391  0.00  0.00    -0.320 N 
ATOM     12  H   UNL     1       4.394  -0.501  -0.184  0.00  0.00    +0.148 HD
ENDROOT
BRANCH  10  13
ATOM     13  C   UNL     1       3.228  -2.364  -2.310  0.00  0.00    -0.008 A 
ATOM     14  C   UNL     1       4.104  -3.048  -3.132  0.00  0.00    +0.011 A 
ATOM     15  C   UNL     1       3.882  -3.093  -4.495  0.00  0.00    +0.046 A 
ATOM     16  C   UNL     1       2.778  -2.452  -5.038  0.00  0.00    +0.117 A 
ATOM     17  C   UNL     1       1.900  -1.766  -4.211  0.00  0.00    +0.046 A 
ATOM     18  C   UNL     1       2.124  -1.729  -2.848  0.00  0.00    +0.011 A 
BRANCH  16  19
ATOM     19  O   UNL     1       2.558  -2.494  -6.378  0.00  0.00    -0.507 OA
ATOM     20  H   UNL     1       2.016  -3.243  -6.664  0.00  0.00    +0.292 HD
ENDBRANCH  16  19
ENDBRANCH  10  13
BRANCH   9  21
ATOM     21  N   UNL     1       2.506  -4.377   0.142  0.00  0.00    -0.227 N 
ATOM     22  C   UNL     1       1.832  -5.275  -0.603  0.00  0.00    +0.267 C 
ATOM     23  O   UNL     1       1.191  -4.906  -1.565  0.00  0.00    -0.271 OA
ATOM     24  H   UNL     1       3.075  -4.678   0.868  0.00  0.00    +0.173 HD
BRANCH  22  25
ATOM     25  C   UNL     1       1.874  -6.737  -0.242  0.00  0.00    +0.326 C 
BRANCH  25  26
ATOM     26  O   UNL     1       1.088  -7.481  -1.175  0.00  0.00    -0.481 OA
BRANCH  26  27
ATOM     27  C   UNL     1       1.020  -8.826  -0.990  0.00  0.00    +0.140 A 
ATOM     28  C   UNL     1       1.692  -9.417   0.070  0.00  0.00    +0.048 A 
ATOM     29  C   UNL     1       1.622 -10.784   0.256  0.00  0.00    +0.023 A 
ATOM     30  C   UNL     1       0.882 -11.565  -0.615  0.00  0.00    +0.043 A 
ATOM     31  C   UNL     1       0.211 -10.979  -1.673  0.00  0.00    +0.043 A 
ATOM     32  C   UNL     1       0.274  -9.610  -1.859  0.00  0.00    +0.084 A 
ATOM     33 CL   UNL     1      -0.574  -8.874  -3.183  0.00  0.00    -0.080 Cl
ATOM     34 CL   UNL     1       0.796 -13.283  -0.379  0.00  0.00    -0.083 Cl
ENDBRANCH  26  27
ENDBRANCH  25  26
ENDBRANCH  22  25
ENDBRANCH   9  21
TORSDOF 6
