REMARK  Name = ZINC32911845
REMARK  10 active torsions:
REMARK  status: ('A' for Active; 'I' for Inactive)
REMARK    1  A    between atoms: C_1  and  N_2
REMARK    2  A    between atoms: N_2  and  C_3
REMARK    3  A    between atoms: N_2  and  C_19
REMARK    4  A    between atoms: C_3  and  C_4
REMARK    5  A    between atoms: N_6  and  C_7
REMARK    6  A    between atoms: N_6  and  C_12
REMARK    7  A    between atoms: C_7  and  C_8
REMARK    8  A    between atoms: C_8  and  C_9
REMARK    9  A    between atoms: C_12  and  C_13
REMARK   10  A    between atoms: C_28  and  O_30
REMARK                            x       y       z     vdW  Elec       q    Type
REMARK                         _______ _______ _______ _____ _____    ______ ____
ROOT
ATOM      1  C   UNL     1      -1.023   3.366   2.667  0.00  0.00    +0.019 C 
ENDROOT
BRANCH   1   3
ATOM      2  C   UNL     1       0.867   4.277   3.875  0.00  0.00    -0.095 C 
ATOM      3  N   UNL     1      -0.503   4.523   3.408  0.00  0.00    +0.390 N 
ATOM      4  H   UNL     1      -0.477   5.381   2.720  0.00  0.00    -0.081 HD
BRANCH   3   5
ATOM      5  C   UNL     1      -1.387   4.871   4.529  0.00  0.00    -0.008 C 
ATOM      6  C   UNL     1      -0.834   6.060   5.285  0.00  0.00    -0.052 A 
ATOM      7  C   UNL     1       0.191   6.135   6.213  0.00  0.00    +0.022 A 
ATOM      8  C   UNL     1       0.528   7.349   6.781  0.00  0.00    +0.043 A 
ATOM      9  C   UNL     1      -0.160   8.494   6.422  0.00  0.00    +0.040 A 
ATOM     10  C   UNL     1      -1.183   8.421   5.495  0.00  0.00    +0.046 A 
ATOM     11  C   UNL     1      -1.521   7.204   4.925  0.00  0.00    -0.025 A 
ATOM     12  C   UNL     1      -2.584   6.862   3.903  0.00  0.00    +0.066 C 
ATOM     13  C   UNL     1      -2.764   5.329   4.003  0.00  0.00    +0.110 C 
ATOM     14 CL   UNL     1      -2.046   9.858   5.044  0.00  0.00    -0.083 Cl
ATOM     15 CL   UNL     1       1.814   7.437   7.945  0.00  0.00    -0.083 Cl
BRANCH  13  16
ATOM     16  O   UNL     1      -3.798   4.998   4.931  0.00  0.00    -0.393 OA
ATOM     17  H   UNL     1      -4.843   5.257   4.706  0.00  0.00    +0.210 HD
ENDBRANCH  13  16
ENDBRANCH   3   5
ENDBRANCH   1   3
BRANCH   1  18
ATOM     18  C   UNL     1      -0.236   3.190   1.394  0.00  0.00    +0.199 C 
ATOM     19  O   UNL     1       0.668   3.953   1.130  0.00  0.00    -0.278 OA
ATOM     20  N   UNL     1      -0.538   2.184   0.549  0.00  0.00    -0.298 N 
BRANCH  20  21
ATOM     21  C   UNL     1      -1.631   1.262   0.869  0.00  0.00    +0.117 C 
BRANCH  21  22
ATOM     22  C   UNL     1      -1.083   0.081   1.672  0.00  0.00    +0.114 C 
BRANCH  22  23
ATOM     23  C   UNL     1      -2.207  -0.868   2.001  0.00  0.00    +0.212 C 
ATOM     24  O   UNL     1      -3.335  -0.623   1.629  0.00  0.00    -0.276 OA
ATOM     25  N   UNL     1      -1.959  -1.988   2.708  0.00  0.00    -0.329 N 
ATOM     26  H   UNL     1      -2.779  -2.680   2.948  0.00  0.00    +0.145 HD
ATOM     27  H   UNL     1      -0.935  -2.209   3.045  0.00  0.00    +0.145 HD
ENDBRANCH  22  23
ENDBRANCH  21  22
ENDBRANCH  20  21
BRANCH  20  28
ATOM     28  C   UNL     1       0.227   2.013  -0.689  0.00  0.00    +0.142 C 
BRANCH  28  29
ATOM     29  C   UNL     1      -0.426   2.801  -1.795  0.00  0.00    -0.030 A 
ATOM     30  C   UNL     1      -1.391   2.211  -2.589  0.00  0.00    +0.005 A 
ATOM     31  C   UNL     1      -1.992   2.935  -3.601  0.00  0.00    +0.000 A 
ATOM     32  C   UNL     1      -1.622   4.248  -3.825  0.00  0.00    +0.000 A 
ATOM     33  C   UNL     1      -0.653   4.837  -3.035  0.00  0.00    +0.000 A 
ATOM     34  C   UNL     1      -0.054   4.114  -2.020  0.00  0.00    +0.005 A 
ENDBRANCH  28  29
ENDBRANCH  20  28
ENDBRANCH   1  18
TORSDOF 9
