REMARK  Name = ZINC16251124
REMARK  11 active torsions:
REMARK  status: ('A' for Active; 'I' for Inactive)
REMARK    1  A    between atoms: C_1  and  C_2
REMARK    2  A    between atoms: C_3  and  C_35
REMARK    3  A    between atoms: N_4  and  C_27
REMARK    4  A    between atoms: C_5  and  N_9
REMARK    5  A    between atoms: C_6  and  C_7
REMARK    6  A    between atoms: C_10  and  C_12
REMARK    7  A    between atoms: C_12  and  S_13
REMARK    8  A    between atoms: S_13  and  C_14
REMARK    9  A    between atoms: C_17  and  C_20
REMARK   10  A    between atoms: N_18  and  C_19
REMARK   11  A    between atoms: C_27  and  C_28
REMARK                            x       y       z     vdW  Elec       q    Type
REMARK                         _______ _______ _______ _____ _____    ______ ____
ROOT
ATOM      1  N   UNL     1       1.594   1.961   2.635  0.00  0.00    -0.270 N 
ATOM      2  C   UNL     1       1.898   2.789   3.654  0.00  0.00    +0.229 C 
ATOM      3  O   UNL     1       2.631   3.737   3.467  0.00  0.00    -0.275 OA
ATOM      4  H   UNL     1       1.066   1.164   2.798  0.00  0.00    +0.156 HD
ENDROOT
BRANCH   1   9
ATOM      5  C   UNL     1       4.505   2.731  -1.424  0.00  0.00    +0.047 C 
ATOM      6  C   UNL     1       3.323   2.603  -0.499  0.00  0.00    -0.011 A 
ATOM      7  C   UNL     1       2.033   2.811  -0.812  0.00  0.00    +0.022 A 
ATOM      8  N   UNL     1       1.258   2.595   0.296  0.00  0.00    -0.327 N 
ATOM      9  C   UNL     1       2.038   2.248   1.352  0.00  0.00    +0.124 A 
ATOM     10  C   UNL     1       3.356   2.227   0.920  0.00  0.00    +0.095 A 
ATOM     11  C   UNL     1       1.520   3.217  -2.169  0.00  0.00    +0.064 C 
BRANCH  10  12
ATOM     12  C   UNL     1       4.514   1.909   1.700  0.00  0.00    +0.103 C 
ATOM     13  N   UNL     1       5.433   1.657   2.319  0.00  0.00    -0.191 NA
ENDBRANCH  10  12
BRANCH   8  14
ATOM     14  C   UNL     1      -0.201   2.726   0.338  0.00  0.00    +0.158 C 
BRANCH  14  15
ATOM     15  C   UNL     1      -0.568   4.148   0.678  0.00  0.00    -0.028 A 
ATOM     16  C   UNL     1      -0.731   4.522   1.999  0.00  0.00    +0.008 A 
ATOM     17  C   UNL     1      -1.063   5.826   2.312  0.00  0.00    +0.038 A 
ATOM     18  C   UNL     1      -1.242   6.756   1.302  0.00  0.00    +0.123 A 
ATOM     19  C   UNL     1      -1.084   6.379  -0.021  0.00  0.00    +0.038 A 
ATOM     20  C   UNL     1      -0.747   5.075  -0.331  0.00  0.00    +0.008 A 
ATOM     21  F   UNL     1      -1.571   8.030   1.607  0.00  0.00    -0.205 F 
ENDBRANCH  14  15
ENDBRANCH   8  14
ENDBRANCH   1   9
BRANCH   2  22
ATOM     22  C   UNL     1       1.326   2.537   5.025  0.00  0.00    +0.173 C 
BRANCH  22  23
ATOM     23  S   UNL     1       1.915   3.812   6.168  0.00  0.00    -0.077 S 
BRANCH  23  24
ATOM     24  C   UNL     1       1.117   3.288   7.648  0.00  0.00    +0.192 A 
ATOM     25  N   UNL     1       0.325   2.248   7.781  0.00  0.00    -0.122 NA
ATOM     26  N   UNL     1      -0.082   2.155   8.997  0.00  0.00    -0.128 NA
ATOM     27  C   UNL     1       0.418   3.135   9.713  0.00  0.00    +0.167 A 
ATOM     28  N   UNL     1       1.201   3.891   8.871  0.00  0.00    -0.305 N 
ATOM     29  C   UNL     1       1.965   5.093   9.215  0.00  0.00    +0.153 C 
BRANCH  27  30
ATOM     30  C   UNL     1       0.183   3.381  11.151  0.00  0.00    +0.054 A 
ATOM     31  C   UNL     1      -0.019   4.681  11.617  0.00  0.00    +0.014 A 
ATOM     32  C   UNL     1      -0.237   4.903  12.960  0.00  0.00    +0.001 A 
ATOM     33  C   UNL     1      -0.258   3.841  13.848  0.00  0.00    +0.003 A 
ATOM     34  C   UNL     1      -0.059   2.550  13.395  0.00  0.00    +0.039 A 
ATOM     35  C   UNL     1       0.156   2.311  12.051  0.00  0.00    +0.134 A 
ATOM     36  F   UNL     1       0.344   1.049  11.608  0.00  0.00    -0.205 F 
ENDBRANCH  27  30
ENDBRANCH  23  24
ENDBRANCH  22  23
ENDBRANCH   2  22
TORSDOF 8
