REMARK  Name = ZINC32353178
REMARK  6 active torsions:
REMARK  status: ('A' for Active; 'I' for Inactive)
REMARK    1  A    between atoms: C_1  and  C_2
REMARK    2  A    between atoms: C_5  and  C_8
REMARK    3  A    between atoms: C_16  and  C_18
REMARK    4  A    between atoms: C_18  and  C_19
REMARK    5  A    between atoms: C_19  and  N_20
REMARK    6  A    between atoms: N_23  and  C_24
REMARK                            x       y       z     vdW  Elec       q    Type
REMARK                         _______ _______ _______ _____ _____    ______ ____
ROOT
ATOM      1  C   UNL     1      -4.302   3.047  -2.578  0.00  0.00    +0.114 C 
ENDROOT
BRANCH   1  10
ATOM      2  C   UNL     1      -1.121   0.694   2.155  0.00  0.00    +0.247 C 
ATOM      3  O   UNL     1      -0.327  -0.226   2.184  0.00  0.00    -0.270 OA
ATOM      4  N   UNL     1      -1.457   1.256   0.977  0.00  0.00    -0.295 N 
ATOM      5  C   UNL     1      -0.780   0.856  -0.264  0.00  0.00    +0.127 C 
ATOM      6  C   UNL     1      -1.836   0.408  -1.281  0.00  0.00    +0.126 C 
ATOM      7  N   UNL     1      -2.888   1.433  -1.347  0.00  0.00    -0.298 N 
ATOM      8  C   UNL     1      -3.569   1.831  -0.107  0.00  0.00    +0.126 C 
ATOM      9  C   UNL     1      -2.512   2.279   0.910  0.00  0.00    +0.127 C 
ATOM     10  C   UNL     1      -3.221   1.998  -2.525  0.00  0.00    +0.217 C 
ATOM     11  O   UNL     1      -2.652   1.661  -3.542  0.00  0.00    -0.276 OA
BRANCH   2  16
ATOM     12  C   UNL     1      -3.446   2.644   7.045  0.00  0.00    +0.044 C 
ATOM     13  C   UNL     1      -2.837   2.133   5.764  0.00  0.00    -0.050 A 
ATOM     14  C   UNL     1      -2.610   0.778   5.602  0.00  0.00    +0.004 A 
ATOM     15  C   UNL     1      -2.053   0.304   4.432  0.00  0.00    +0.013 A 
ATOM     16  C   UNL     1      -1.719   1.195   3.411  0.00  0.00    +0.037 A 
ATOM     17  C   UNL     1      -1.946   2.561   3.583  0.00  0.00    +0.013 A 
ATOM     18  C   UNL     1      -2.508   3.022   4.756  0.00  0.00    +0.004 A 
ENDBRANCH   2  16
ENDBRANCH   1  10
BRANCH   1  19
ATOM     19  C   UNL     1      -4.482   3.521  -4.021  0.00  0.00    +0.115 C 
BRANCH  19  20
ATOM     20  N   UNL     1      -5.532   4.541  -4.073  0.00  0.00    -0.299 N 
ATOM     21  C   UNL     1      -5.866   5.106  -5.250  0.00  0.00    +0.300 C 
ATOM     22  O   UNL     1      -5.295   4.769  -6.270  0.00  0.00    -0.253 OA
ATOM     23  N   UNL     1      -6.832   6.044  -5.298  0.00  0.00    -0.294 N 
ATOM     24  H   UNL     1      -6.049   4.846  -3.151  0.00  0.00    +0.150 HD
ATOM     25  H   UNL     1      -7.348   6.349  -4.375  0.00  0.00    +0.151 HD
BRANCH  23  26
ATOM     26  C   UNL     1      -7.195   6.658  -6.577  0.00  0.00    +0.037 C 
ATOM     27  C   UNL     1      -5.971   7.357  -7.173  0.00  0.00    +0.029 C 
ATOM     28  C   UNL     1      -6.349   7.999  -8.509  0.00  0.00    -0.008 C 
ATOM     29  C   UNL     1      -7.463   9.023  -8.286  0.00  0.00    +0.007 C 
ATOM     30  C   UNL     1      -8.687   8.324  -7.690  0.00  0.00    -0.008 C 
ATOM     31  C   UNL     1      -8.309   7.683  -6.354  0.00  0.00    +0.029 C 
ATOM     32  C   UNL     1      -9.176   7.242  -8.655  0.00  0.00    +0.007 C 
ATOM     33  C   UNL     1      -8.062   6.217  -8.879  0.00  0.00    -0.008 C 
ATOM     34  C   UNL     1      -6.838   6.916  -9.474  0.00  0.00    +0.007 C 
ATOM     35  C   UNL     1      -7.683   5.576  -7.542  0.00  0.00    +0.029 C 
ENDBRANCH  23  26
ENDBRANCH  19  20
ENDBRANCH   1  19
TORSDOF 5
