REMARK  Name = ZINC09712366
REMARK  9 active torsions:
REMARK  status: ('A' for Active; 'I' for Inactive)
REMARK    1  A    between atoms: C_1  and  N_2
REMARK    2  A    between atoms: N_2  and  C_3
REMARK    3  A    between atoms: N_2  and  C_4
REMARK    4  A    between atoms: C_7  and  C_10
REMARK    5  A    between atoms: C_10  and  C_12
REMARK    6  A    between atoms: C_10  and  C_28
REMARK    7  A    between atoms: C_12  and  N_13
REMARK    8  A    between atoms: C_14  and  C_16
REMARK    9  A    between atoms: C_16  and  N_17
REMARK                            x       y       z     vdW  Elec       q    Type
REMARK                         _______ _______ _______ _____ _____    ______ ____
ROOT
ATOM      1  C   UNL     1      -2.513   0.976   0.019  0.00  0.00    +0.068 C 
ENDROOT
BRANCH   1   2
ATOM      2  C   UNL     1      -3.314   1.335  -1.206  0.00  0.00    -0.013 A 
ATOM      3  C   UNL     1      -3.768   2.555  -1.534  0.00  0.00    +0.088 A 
ATOM      4  N   UNL     1      -4.452   2.496  -2.718  0.00  0.00    -0.360 N 
ATOM      5  H   UNL     1      -4.869   3.252  -3.159  0.00  0.00    +0.165 HD
ATOM      6  C   UNL     1      -4.464   1.202  -3.187  0.00  0.00    +0.047 A 
ATOM      7  C   UNL     1      -3.752   0.418  -2.261  0.00  0.00    +0.003 A 
ATOM      8  C   UNL     1      -3.600  -0.953  -2.479  0.00  0.00    +0.010 A 
ATOM      9  C   UNL     1      -4.144  -1.526  -3.594  0.00  0.00    +0.001 A 
ATOM     10  C   UNL     1      -4.848  -0.758  -4.510  0.00  0.00    +0.002 A 
ATOM     11  C   UNL     1      -5.010   0.597  -4.314  0.00  0.00    +0.026 A 
ENDBRANCH   1   2
BRANCH   1  15
ATOM     12  C   UNL     1       1.155   3.171   0.008  0.00  0.00    +0.029 A 
ATOM     13  C   UNL     1       1.174   1.782   0.000  0.00  0.00    +0.023 A 
ATOM     14  C   UNL     1      -0.013   1.076   0.008  0.00  0.00    +0.006 A 
ATOM     15  C   UNL     1      -1.220   1.750   0.017  0.00  0.00    -0.038 A 
ATOM     16  C   UNL     1      -1.243   3.133   0.031  0.00  0.00    +0.006 A 
ATOM     17  C   UNL     1      -0.060   3.845   0.023  0.00  0.00    +0.023 A 
BRANCH  12  19
ATOM     18  C   UNL     1       3.633   3.175  -0.017  0.00  0.00    +0.129 C 
ATOM     19  N   UNL     1       2.353   3.888   0.000  0.00  0.00    -0.336 N 
ATOM     20  C   UNL     1       2.330   5.353   0.008  0.00  0.00    +0.129 C 
ENDBRANCH  12  19
ENDBRANCH   1  15
BRANCH   1  21
ATOM     21  C   UNL     1      -3.315   1.326   1.274  0.00  0.00    +0.117 C 
BRANCH  21  22
ATOM     22  N   UNL     1      -4.515   0.488   1.336  0.00  0.00    -0.313 N 
ATOM     23  C   UNL     1      -5.378   0.621   2.363  0.00  0.00    +0.231 C 
ATOM     24  O   UNL     1      -5.161   1.436   3.235  0.00  0.00    -0.274 OA
ATOM     25  H   UNL     1      -4.688  -0.164   0.638  0.00  0.00    +0.149 HD
BRANCH  23  26
ATOM     26  C   UNL     1      -6.612  -0.241   2.427  0.00  0.00    +0.213 C 
BRANCH  26  27
ATOM     27  N   UNL     1      -7.380   0.093   3.628  0.00  0.00    -0.215 N 
ATOM     28  C   UNL     1      -8.346   1.036   3.674  0.00  0.00    +0.247 C 
ATOM     29  O   UNL     1      -8.729   1.741   2.765  0.00  0.00    -0.273 OA
ATOM     30  C   UNL     1      -8.845   1.026   5.096  0.00  0.00    +0.113 C 
ATOM     31  C   UNL     1     -10.341   0.687   5.153  0.00  0.00    +0.035 C 
ATOM     32  C   UNL     1     -10.873   1.538   6.335  0.00  0.00    +0.003 C 
ATOM     33  C   UNL     1     -10.064   2.853   6.204  0.00  0.00    +0.003 C 
ATOM     34  C   UNL     1      -8.658   2.392   5.761  0.00  0.00    +0.035 C 
ATOM     35  N   UNL     1      -8.044  -0.005   5.758  0.00  0.00    -0.285 N 
ATOM     36  C   UNL     1      -7.216  -0.501   4.817  0.00  0.00    +0.310 C 
ATOM     37  O   UNL     1      -6.409  -1.385   5.025  0.00  0.00    -0.252 OA
ATOM     38  H   UNL     1      -8.101  -0.280   6.687  0.00  0.00    +0.151 HD
ENDBRANCH  26  27
ENDBRANCH  23  26
ENDBRANCH  21  22
ENDBRANCH   1  21
TORSDOF 7
