REMARK  Name = ZINC39381108
REMARK  4 active torsions:
REMARK  status: ('A' for Active; 'I' for Inactive)
REMARK    1  A    between atoms: C_1  and  C_2
REMARK    2  A    between atoms: C_5  and  N_8
REMARK    3  A    between atoms: N_18  and  N_19
REMARK    4  A    between atoms: C_20  and  C_21
REMARK                            x       y       z     vdW  Elec       q    Type
REMARK                         _______ _______ _______ _____ _____    ______ ____
ROOT
ATOM      1  N   UNL     1      -2.041  -4.071  -0.306  0.00  0.00    -0.247 N 
ATOM      2  C   UNL     1      -2.260  -4.677   0.876  0.00  0.00    +0.268 A 
ATOM      3  O   UNL     1      -2.776  -4.067   1.797  0.00  0.00    -0.266 OA
ATOM      4  C   UNL     1      -1.878  -6.047   1.037  0.00  0.00    +0.076 A 
ATOM      5  C   UNL     1      -2.020  -6.894   2.222  0.00  0.00    -0.023 A 
ATOM      6  C   UNL     1      -1.579  -8.165   2.121  0.00  0.00    -0.004 A 
ATOM      7  S   UNL     1      -0.959  -8.308   0.467  0.00  0.00    -0.073 S 
ATOM      8  C   UNL     1      -1.293  -6.655  -0.086  0.00  0.00    +0.118 A 
ATOM      9  N   UNL     1      -1.104  -6.001  -1.226  0.00  0.00    -0.207 NA
ATOM     10  C   UNL     1      -1.469  -4.742  -1.350  0.00  0.00    +0.224 A 
ATOM     11  N   UNL     1      -1.266  -4.092  -2.543  0.00  0.00    -0.206 N 
ATOM     12  C   UNL     1      -1.609  -9.223   3.182  0.00  0.00    +0.043 C 
ATOM     13  C   UNL     1      -1.879  -8.546   4.534  0.00  0.00    +0.005 C 
ATOM     14  C   UNL     1      -3.057  -7.581   4.373  0.00  0.00    +0.005 C 
ATOM     15  C   UNL     1      -2.634  -6.383   3.522  0.00  0.00    +0.037 C 
ATOM     16  H   UNL     1      -1.520  -3.160  -2.637  0.00  0.00    +0.177 HD
ENDROOT
BRANCH   1  21
ATOM     17  C   UNL     1      -3.543   1.361  -0.969  0.00  0.00    +0.044 C 
ATOM     18  C   UNL     1      -3.144  -0.082  -0.793  0.00  0.00    -0.050 A 
ATOM     19  C   UNL     1      -4.116  -1.062  -0.719  0.00  0.00    +0.005 A 
ATOM     20  C   UNL     1      -3.754  -2.385  -0.557  0.00  0.00    +0.026 A 
ATOM     21  C   UNL     1      -2.412  -2.730  -0.470  0.00  0.00    +0.053 A 
ATOM     22  C   UNL     1      -1.438  -1.744  -0.546  0.00  0.00    +0.026 A 
ATOM     23  C   UNL     1      -1.806  -0.423  -0.712  0.00  0.00    +0.005 A 
ENDBRANCH   1  21
BRANCH  11  24
ATOM     24  N   UNL     1      -0.693  -4.774  -3.624  0.00  0.00    -0.188 NA
ATOM     25  C   UNL     1      -0.379  -4.129  -4.706  0.00  0.00    +0.138 C 
BRANCH  25  26
ATOM     26  C   UNL     1      -0.292  -2.657  -4.688  0.00  0.00    -0.005 A 
ATOM     27  C   UNL     1      -0.417  -1.932  -5.875  0.00  0.00    +0.009 A 
ATOM     28  C   UNL     1      -0.334  -0.555  -5.851  0.00  0.00    +0.001 A 
ATOM     29  C   UNL     1      -0.127   0.107  -4.654  0.00  0.00    +0.000 A 
ATOM     30  C   UNL     1      -0.002  -0.605  -3.474  0.00  0.00    +0.001 A 
ATOM     31  C   UNL     1      -0.089  -1.981  -3.482  0.00  0.00    +0.009 A 
ENDBRANCH  25  26
ENDBRANCH  11  24
TORSDOF 3
