REMARK  Name = ZINC67293996
REMARK  7 active torsions:
REMARK  status: ('A' for Active; 'I' for Inactive)
REMARK    1  A    between atoms: C_1  and  O_2
REMARK    2  A    between atoms: O_2  and  C_3
REMARK    3  A    between atoms: N_11  and  C_12
REMARK    4  A    between atoms: C_17  and  C_18
REMARK    5  A    between atoms: C_22  and  C_24
REMARK    6  A    between atoms: N_26  and  C_27
REMARK    7  A    between atoms: C_27  and  C_28
REMARK                            x       y       z     vdW  Elec       q    Type
REMARK                         _______ _______ _______ _____ _____    ______ ____
ROOT
ATOM      1  C   UNL     1      -0.300  -0.548  -1.711  0.00  0.00    +0.163 A 
ATOM      2  C   UNL     1       0.009   0.170  -2.853  0.00  0.00    +0.049 A 
ATOM      3  C   UNL     1       0.604  -0.455  -3.940  0.00  0.00    +0.004 A 
ATOM      4  C   UNL     1       0.893  -1.800  -3.899  0.00  0.00    +0.012 A 
ATOM      5  C   UNL     1       0.584  -2.542  -2.752  0.00  0.00    +0.022 A 
ATOM      6  C   UNL     1      -0.010  -1.907  -1.646  0.00  0.00    +0.179 A 
ATOM      7  O   UNL     1      -0.296  -2.622  -0.530  0.00  0.00    -0.435 OA
ATOM      8  C   UNL     1      -0.535  -3.948  -0.693  0.00  0.00    +0.212 A 
ATOM      9  N   UNL     1      -1.496  -4.551  -0.026  0.00  0.00    -0.325 N 
ATOM     10  C   UNL     1       0.318  -4.694  -1.640  0.00  0.00    +0.097 A 
ATOM     11  C   UNL     1       0.875  -3.976  -2.686  0.00  0.00    +0.030 A 
ATOM     12  H   UNL     1      -1.702  -5.481  -0.207  0.00  0.00    +0.169 HD
ENDROOT
BRANCH   9  13
ATOM     13  C   UNL     1      -2.204  -3.865   0.922  0.00  0.00    +0.054 A 
ATOM     14  C   UNL     1      -1.534  -3.131   1.904  0.00  0.00    +0.026 A 
ATOM     15  C   UNL     1      -2.254  -2.442   2.857  0.00  0.00    +0.002 A 
ATOM     16  C   UNL     1      -3.638  -2.477   2.843  0.00  0.00    +0.001 A 
ATOM     17  C   UNL     1      -4.308  -3.202   1.873  0.00  0.00    +0.014 A 
ATOM     18  C   UNL     1      -3.600  -3.891   0.910  0.00  0.00    +0.078 A 
BRANCH  18  19
ATOM     19  C   UNL     1      -4.332  -4.674  -0.149  0.00  0.00    +0.419 C 
ATOM     20  F   UNL     1      -5.712  -4.548   0.047  0.00  0.00    -0.166 F 
ATOM     21  F   UNL     1      -3.994  -4.180  -1.413  0.00  0.00    -0.166 F 
ATOM     22  F   UNL     1      -3.971  -6.023  -0.064  0.00  0.00    -0.166 F 
ENDBRANCH  18  19
ENDBRANCH   9  13
BRANCH  10  23
ATOM     23  C   UNL     1       0.555  -6.140  -1.486  0.00  0.00    +0.249 C 
ATOM     24  O   UNL     1      -0.001  -6.756  -0.597  0.00  0.00    -0.270 OA
ATOM     25  N   UNL     1       1.388  -6.779  -2.330  0.00  0.00    -0.309 N 
ATOM     26  H   UNL     1       1.775  -6.305  -3.082  0.00  0.00    +0.149 HD
BRANCH  25  27
ATOM     27  C   UNL     1       1.711  -8.192  -2.110  0.00  0.00    +0.136 C 
BRANCH  27  28
ATOM     28  C   UNL     1       2.670  -8.671  -3.202  0.00  0.00    +0.135 C 
ATOM     29  C   UNL     1       2.997 -10.173  -3.009  0.00  0.00    +0.035 C 
ATOM     30  C   UNL     1       3.382 -10.580  -4.457  0.00  0.00    +0.031 C 
ATOM     31  C   UNL     1       2.447  -9.692  -5.306  0.00  0.00    +0.160 C 
ATOM     32  O   UNL     1       2.042  -8.585  -4.491  0.00  0.00    -0.375 OA
ENDBRANCH  27  28
ENDBRANCH  25  27
ENDBRANCH  10  23
BRANCH   1  34
ATOM     33  C   UNL     1      -1.151   1.472  -0.788  0.00  0.00    +0.277 C 
ATOM     34  O   UNL     1      -0.882   0.076  -0.651  0.00  0.00    -0.491 OA
ENDBRANCH   1  34
TORSDOF 6
