REMARK  Name = ZINC41150829
REMARK  4 active torsions:
REMARK  status: ('A' for Active; 'I' for Inactive)
REMARK    1  A    between atoms: C_2  and  C_3
REMARK    2  A    between atoms: C_3  and  N_4
REMARK    3  A    between atoms: N_18  and  S_21
REMARK    4  A    between atoms: S_21  and  C_24
REMARK                            x       y       z     vdW  Elec       q    Type
REMARK                         _______ _______ _______ _____ _____    ______ ____
ROOT
ATOM      1  N   UNL     1       1.205  -2.030   0.869  0.00  0.00    -0.325 N 
ATOM      2  C   UNL     1       2.400  -2.643   1.181  0.00  0.00    +0.132 A 
ATOM      3  C   UNL     1       2.545  -3.383   2.381  0.00  0.00    +0.038 A 
ATOM      4  C   UNL     1       1.497  -3.526   3.296  0.00  0.00    +0.013 A 
ATOM      5  C   UNL     1       1.693  -4.250   4.435  0.00  0.00    +0.001 A 
ATOM      6  C   UNL     1       2.922  -4.848   4.700  0.00  0.00    +0.002 A 
ATOM      7  C   UNL     1       3.964  -4.726   3.829  0.00  0.00    +0.026 A 
ATOM      8  C   UNL     1       3.796  -3.990   2.648  0.00  0.00    +0.052 A 
ATOM      9  N   UNL     1       4.789  -3.841   1.758  0.00  0.00    -0.327 N 
ATOM     10  C   UNL     1       4.600  -3.141   0.656  0.00  0.00    +0.198 A 
ATOM     11  N   UNL     1       3.439  -2.559   0.364  0.00  0.00    -0.201 NA
ATOM     12  N   UNL     1       5.649  -3.011  -0.235  0.00  0.00    -0.299 N 
ATOM     13  C   UNL     1       6.904  -3.747  -0.025  0.00  0.00    +0.125 C 
ATOM     14  C   UNL     1       7.205  -4.570  -1.284  0.00  0.00    +0.128 C 
ATOM     15  N   UNL     1       7.086  -3.694  -2.458  0.00  0.00    -0.174 NA
ATOM     16  C   UNL     1       5.831  -2.958  -2.667  0.00  0.00    +0.128 C 
ATOM     17  C   UNL     1       5.527  -2.139  -1.412  0.00  0.00    +0.125 C 
ATOM     18  H   UNL     1       0.452  -2.099   1.476  0.00  0.00    +0.148 HD
ATOM     19  H   UNL     1       5.652  -4.251   1.926  0.00  0.00    +0.169 HD
ENDROOT
BRANCH  15  20
ATOM     20  S   UNL     1       8.342  -3.538  -3.525  0.00  0.00    +0.061 S 
ATOM     21  O   UNL     1       8.172  -2.285  -4.173  0.00  0.00    -0.153 OA
ATOM     22  O   UNL     1       9.525  -3.872  -2.811  0.00  0.00    -0.153 OA
BRANCH  20  23
ATOM     23  C   UNL     1       8.133  -4.777  -4.760  0.00  0.00    +0.106 A 
ATOM     24  C   UNL     1       8.697  -6.027  -4.587  0.00  0.00    +0.030 A 
ATOM     25  C   UNL     1       8.533  -6.999  -5.556  0.00  0.00    +0.022 A 
ATOM     26  C   UNL     1       7.805  -6.721  -6.699  0.00  0.00    +0.041 A 
ATOM     27  C   UNL     1       7.241  -5.469  -6.872  0.00  0.00    +0.022 A 
ATOM     28  C   UNL     1       7.401  -4.500  -5.899  0.00  0.00    +0.030 A 
ATOM     29 CL   UNL     1       7.600  -7.941  -7.917  0.00  0.00    -0.084 Cl
ENDBRANCH  20  23
ENDBRANCH  15  20
BRANCH   1  30
ATOM     30  C   UNL     1       1.073  -1.274  -0.380  0.00  0.00    +0.130 C 
BRANCH  30  32
ATOM     31  C   UNL     1      -0.493   0.577  -0.660  0.00  0.00    +0.005 C 
ATOM     32  C   UNL     1      -0.320  -0.709  -0.480  0.00  0.00    -0.016 C 
ENDBRANCH  30  32
ENDBRANCH   1  30
TORSDOF 4
