REMARK  Name = ZINC28789426
REMARK  7 active torsions:
REMARK  status: ('A' for Active; 'I' for Inactive)
REMARK    1  A    between atoms: C_1  and  C_2
REMARK    2  A    between atoms: C_6  and  N_8
REMARK    3  A    between atoms: N_11  and  C_14
REMARK    4  A    between atoms: C_14  and  N_15
REMARK    5  A    between atoms: N_18  and  C_26
REMARK    6  A    between atoms: C_19  and  C_21
REMARK    7  A    between atoms: C_26  and  C_27
REMARK                            x       y       z     vdW  Elec       q    Type
REMARK                         _______ _______ _______ _____ _____    ______ ____
ROOT
ATOM      1  C   UNL     1       0.431   9.302  -1.014  0.00  0.00    +0.072 C 
ENDROOT
BRANCH   1   5
ATOM      2  N   UNL     1      -0.069   5.239   0.030  0.00  0.00    -0.333 N 
ATOM      3  C   UNL     1      -0.850   5.761  -1.099  0.00  0.00    +0.086 C 
ATOM      4  C   UNL     1      -0.913   7.288  -1.011  0.00  0.00    -0.057 C 
ATOM      5  N   UNL     1       0.451   7.833  -1.021  0.00  0.00    +0.395 N 
ATOM      6  C   UNL     1       1.233   7.311   0.108  0.00  0.00    -0.057 C 
ATOM      7  C   UNL     1       1.296   5.784   0.020  0.00  0.00    +0.086 C 
ATOM      8  H   UNL     1       0.940   7.508  -1.952  0.00  0.00    -0.079 HD
BRANCH   2  14
ATOM      9  C   UNL     1      -2.514   0.976   0.019  0.00  0.00    +0.044 C 
ATOM     10  C   UNL     1      -1.220   1.749   0.017  0.00  0.00    -0.049 A 
ATOM     11  C   UNL     1      -0.013   1.076   0.008  0.00  0.00    +0.003 A 
ATOM     12  C   UNL     1       1.176   1.782   0.000  0.00  0.00    +0.002 A 
ATOM     13  C   UNL     1       1.161   3.163   0.008  0.00  0.00    +0.023 A 
ATOM     14  C   UNL     1      -0.050   3.842   0.023  0.00  0.00    +0.030 A 
ATOM     15  C   UNL     1      -1.243   3.130   0.031  0.00  0.00    +0.026 A 
ENDBRANCH   2  14
ENDBRANCH   1   5
BRANCH   1  16
ATOM     16  N   UNL     1      -0.145   9.789  -2.270  0.00  0.00    -0.257 N 
ATOM     17  C   UNL     1      -1.449  10.038  -2.504  0.00  0.00    +0.177 A 
ATOM     18  S   UNL     1      -2.732   9.842  -1.387  0.00  0.00    -0.011 S 
ATOM     19  N   UNL     1      -1.562  10.469  -3.776  0.00  0.00    -0.297 N 
ATOM     20  C   UNL     1      -0.300  10.487  -4.341  0.00  0.00    +0.198 A 
ATOM     21  N   UNL     1       0.560  10.086  -3.444  0.00  0.00    -0.149 NA
BRANCH  20  22
ATOM     22  C   UNL     1       0.020  10.896  -5.719  0.00  0.00    +0.172 A 
ATOM     23  C   UNL     1       1.260  11.196  -6.196  0.00  0.00    +0.053 A 
ATOM     24  C   UNL     1       1.101  11.528  -7.555  0.00  0.00    +0.042 A 
ATOM     25  C   UNL     1      -0.213  11.425  -7.837  0.00  0.00    +0.196 A 
ATOM     26  O   UNL     1      -0.863  11.043  -6.726  0.00  0.00    -0.460 OA
ENDBRANCH  20  22
BRANCH  19  27
ATOM     27  C   UNL     1      -2.808  10.852  -4.445  0.00  0.00    +0.152 C 
BRANCH  27  28
ATOM     28  C   UNL     1      -3.058  12.324  -4.237  0.00  0.00    -0.013 C 
ATOM     29  C   UNL     1      -3.240  13.110  -5.269  0.00  0.00    +0.005 C 
ENDBRANCH  27  28
ENDBRANCH  19  27
ENDBRANCH   1  16
TORSDOF 6
