REMARK  Name = ZINC20877025
REMARK  11 active torsions:
REMARK  status: ('A' for Active; 'I' for Inactive)
REMARK    1  A    between atoms: C_1  and  O_2
REMARK    2  A    between atoms: O_2  and  C_3
REMARK    3  A    between atoms: C_5  and  C_24
REMARK    4  A    between atoms: C_8  and  O_9
REMARK    5  A    between atoms: O_9  and  C_10
REMARK    6  A    between atoms: C_10  and  C_11
REMARK    7  A    between atoms: C_11  and  C_13
REMARK    8  A    between atoms: C_11  and  O_22
REMARK    9  A    between atoms: C_24  and  N_25
REMARK   10  A    between atoms: N_25  and  C_26
REMARK   11  A    between atoms: C_26  and  C_27
REMARK                            x       y       z     vdW  Elec       q    Type
REMARK                         _______ _______ _______ _____ _____    ______ ____
ROOT
ATOM      1  C   UNL     1      -3.700   2.449  -2.227  0.00  0.00    +0.163 A 
ATOM      2  C   UNL     1      -4.503   2.802  -3.299  0.00  0.00    +0.051 A 
ATOM      3  C   UNL     1      -4.466   2.061  -4.465  0.00  0.00    -0.060 A 
ATOM      4  C   UNL     1      -3.624   0.970  -4.567  0.00  0.00    +0.021 A 
ATOM      5  C   UNL     1      -2.815   0.614  -3.503  0.00  0.00    +0.063 A 
ATOM      6  C   UNL     1      -2.848   1.354  -2.330  0.00  0.00    +0.176 A 
ATOM      7 BR   UNL     1      -1.665  -0.879  -3.647  0.00  0.00    -0.046 Br
ENDROOT
BRANCH   1   9
ATOM      8  C   UNL     1      -4.638   4.285  -1.042  0.00  0.00    +0.277 C 
ATOM      9  O   UNL     1      -3.740   3.174  -1.077  0.00  0.00    -0.491 OA
ENDBRANCH   1   9
BRANCH   6  10
ATOM     10  O   UNL     1      -2.054   1.005  -1.282  0.00  0.00    -0.484 OA
BRANCH  10  11
ATOM     11  C   UNL     1      -0.753   1.593  -1.232  0.00  0.00    +0.265 C 
BRANCH  11  12
ATOM     12  C   UNL     1      -0.013   1.086   0.008  0.00  0.00    +0.182 C 
BRANCH  12  13
ATOM     13  C   UNL     1       1.401   1.607  -0.003  0.00  0.00    -0.012 A 
ATOM     14  C   UNL     1       1.676   2.865   0.503  0.00  0.00    +0.010 A 
ATOM     15  C   UNL     1       2.972   3.346   0.499  0.00  0.00    +0.050 A 
ATOM     16  C   UNL     1       3.998   2.572  -0.020  0.00  0.00    +0.166 A 
ATOM     17  C   UNL     1       3.720   1.308  -0.534  0.00  0.00    +0.167 A 
ATOM     18  C   UNL     1       2.419   0.830  -0.523  0.00  0.00    +0.055 A 
ATOM     19  O   UNL     1       4.884   0.753  -0.981  0.00  0.00    -0.453 OA
ATOM     20  C   UNL     1       5.936   1.519  -0.366  0.00  0.00    +0.466 C 
ATOM     21  O   UNL     1       5.336   2.809  -0.146  0.00  0.00    -0.453 OA
ENDBRANCH  12  13
BRANCH  12  22
ATOM     22  O   UNL     1      -0.682   1.547   1.184  0.00  0.00    -0.384 OA
ATOM     23  H   UNL     1      -0.293   1.281   2.178  0.00  0.00    +0.210 HD
ENDBRANCH  12  22
ENDBRANCH  11  12
ENDBRANCH  10  11
ENDBRANCH   6  10
BRANCH   3  24
ATOM     24  C   UNL     1      -5.345   2.444  -5.628  0.00  0.00    -0.046 C 
BRANCH  24  25
ATOM     25  N   UNL     1      -6.634   1.748  -5.517  0.00  0.00    +0.385 N 
ATOM     26  H   UNL     1      -6.466   0.661  -5.527  0.00  0.00    -0.085 HD
ATOM     27  H   UNL     1      -7.126   2.035  -4.576  0.00  0.00    -0.085 HD
BRANCH  25  28
ATOM     28  C   UNL     1      -7.519   2.099  -6.636  0.00  0.00    -0.039 C 
BRANCH  28  29
ATOM     29  C   UNL     1      -8.828   1.367  -6.489  0.00  0.00    -0.027 A 
ATOM     30  C   UNL     1      -9.955   1.756  -5.844  0.00  0.00    +0.009 A 
ATOM     31  C   UNL     1     -11.051   0.914  -5.842  0.00  0.00    +0.008 A 
ATOM     32  C   UNL     1     -10.963  -0.280  -6.477  0.00  0.00    +0.045 A 
ATOM     33  S   UNL     1      -9.296  -0.239  -7.113  0.00  0.00    -0.104 S 
ENDBRANCH  28  29
ENDBRANCH  25  28
ENDBRANCH  24  25
ENDBRANCH   3  24
TORSDOF 10
