REMARK  Name = ZINC14117593
REMARK  8 active torsions:
REMARK  status: ('A' for Active; 'I' for Inactive)
REMARK    1  A    between atoms: C_1  and  C_2
REMARK    2  A    between atoms: C_2  and  C_3
REMARK    3  A    between atoms: C_3  and  C_31
REMARK    4  A    between atoms: N_6  and  N_10
REMARK    5  A    between atoms: C_11  and  C_13
REMARK    6  A    between atoms: C_13  and  N_14
REMARK    7  A    between atoms: C_21  and  C_25
REMARK    8  A    between atoms: C_22  and  C_24
REMARK                            x       y       z     vdW  Elec       q    Type
REMARK                         _______ _______ _______ _____ _____    ______ ____
ROOT
ATOM      1  N   UNL     1       3.284   6.808   3.148  0.00  0.00    -0.290 N 
ATOM      2  C   UNL     1       3.665   7.388   1.981  0.00  0.00    +0.203 A 
ATOM      3  N   UNL     1       4.919   7.666   1.744  0.00  0.00    -0.230 NA
ATOM      4  C   UNL     1       5.864   7.390   2.639  0.00  0.00    +0.116 A 
ATOM      5  C   UNL     1       5.564   6.791   3.873  0.00  0.00    +0.080 A 
ATOM      6  C   UNL     1       4.181   6.504   4.104  0.00  0.00    +0.263 A 
ATOM      7  O   UNL     1       3.822   5.988   5.149  0.00  0.00    -0.267 OA
ATOM      8  C   UNL     1       6.713   6.556   4.741  0.00  0.00    +0.007 A 
ATOM      9  C   UNL     1       7.943   6.921   4.306  0.00  0.00    -0.003 A 
ATOM     10  S   UNL     1       7.624   7.607   2.692  0.00  0.00    -0.073 S 
ATOM     11  C   UNL     1       9.265   6.781   5.016  0.00  0.00    +0.052 C 
ENDROOT
BRANCH   8  12
ATOM     12  C   UNL     1       6.537   5.931   6.073  0.00  0.00    -0.016 A 
ATOM     13  C   UNL     1       5.822   6.595   7.069  0.00  0.00    +0.008 A 
ATOM     14  C   UNL     1       5.658   6.005   8.306  0.00  0.00    +0.001 A 
ATOM     15  C   UNL     1       6.210   4.763   8.562  0.00  0.00    +0.000 A 
ATOM     16  C   UNL     1       6.925   4.102   7.579  0.00  0.00    +0.001 A 
ATOM     17  C   UNL     1       7.091   4.679   6.337  0.00  0.00    +0.008 A 
ENDBRANCH   8  12
BRANCH   1  18
ATOM     18  C   UNL     1       1.867   6.512   3.374  0.00  0.00    +0.223 C 
BRANCH  18  20
ATOM     19  N   UNL     1       0.304   4.637   2.974  0.00  0.00    -0.222 N 
ATOM     20  C   UNL     1       1.556   5.127   2.870  0.00  0.00    +0.250 C 
ATOM     21  O   UNL     1       2.432   4.452   2.372  0.00  0.00    -0.272 OA
ATOM     22  H   UNL     1      -0.396   5.176   3.373  0.00  0.00    +0.174 HD
BRANCH  19  26
ATOM     23  C   UNL     1      -0.729   1.579   1.267  0.00  0.00    +0.111 C 
ATOM     24  C   UNL     1      -0.654   3.090   1.365  0.00  0.00    +0.263 C 
ATOM     25  O   UNL     1      -1.103   3.898   0.580  0.00  0.00    -0.271 OA
ATOM     26  N   UNL     1       0.015   3.349   2.506  0.00  0.00    -0.137 N 
ATOM     27  C   UNL     1       0.371   2.223   3.135  0.00  0.00    +0.326 C 
ATOM     28  O   UNL     1       0.984   2.200   4.184  0.00  0.00    -0.251 OA
ATOM     29  N   UNL     1      -0.026   1.119   2.477  0.00  0.00    -0.284 N 
ATOM     30  C   UNL     1      -0.013   1.086   0.008  0.00  0.00    +0.041 C 
ATOM     31  H   UNL     1       0.121   0.199   2.746  0.00  0.00    +0.151 HD
BRANCH  23  33
ATOM     32  C   UNL     1      -2.224  -0.420   1.358  0.00  0.00    +0.006 C 
ATOM     33  C   UNL     1      -2.184   1.107   1.276  0.00  0.00    +0.032 C 
ENDBRANCH  23  33
ENDBRANCH  19  26
ENDBRANCH  18  20
ENDBRANCH   1  18
TORSDOF 5
