REMARK  Name = ZINC62565497
REMARK  7 active torsions:
REMARK  status: ('A' for Active; 'I' for Inactive)
REMARK    1  A    between atoms: C_1  and  O_2
REMARK    2  A    between atoms: O_2  and  C_3
REMARK    3  A    between atoms: C_7  and  C_20
REMARK    4  A    between atoms: C_8  and  O_9
REMARK    5  A    between atoms: O_9  and  C_10
REMARK    6  A    between atoms: C_10  and  C_11
REMARK    7  A    between atoms: C_14  and  N_17
REMARK                            x       y       z     vdW  Elec       q    Type
REMARK                         _______ _______ _______ _____ _____    ______ ____
ROOT
ATOM      1  C   UNL     1       0.606  -0.608  -1.056  0.00  0.00    +0.162 A 
ATOM      2  C   UNL     1       1.172   0.160  -2.061  0.00  0.00    +0.049 A 
ATOM      3  C   UNL     1       1.789  -0.448  -3.142  0.00  0.00    +0.004 A 
ATOM      4  C   UNL     1       1.846  -1.822  -3.228  0.00  0.00    +0.015 A 
ATOM      5  C   UNL     1       1.279  -2.610  -2.223  0.00  0.00    +0.058 A 
ATOM      6  C   UNL     1       0.661  -1.996  -1.128  0.00  0.00    +0.173 A 
ENDROOT
BRANCH   5   7
ATOM      7  C   UNL     1       1.338  -4.083  -2.312  0.00  0.00    +0.103 C 
ATOM      8  N   UNL     1       0.814  -4.877  -1.392  0.00  0.00    -0.371 N 
ATOM      9  C   UNL     1       1.041  -6.279  -1.776  0.00  0.00    +0.132 C 
ATOM     10  C   UNL     1       1.807  -6.167  -3.110  0.00  0.00    +0.124 C 
ATOM     11  N   UNL     1       1.915  -4.715  -3.322  0.00  0.00    -0.329 N 
ATOM     12  H   UNL     1       2.343  -4.289  -4.081  0.00  0.00    +0.147 HD
ATOM     13  H   UNL     1       0.353  -4.581  -0.592  0.00  0.00    +0.161 HD
ENDBRANCH   5   7
BRANCH   1  15
ATOM     14  C   UNL     1      -0.017   1.425   0.010  0.00  0.00    +0.277 C 
ATOM     15  O   UNL     1       0.002  -0.004   0.002  0.00  0.00    -0.491 OA
ENDBRANCH   1  15
BRANCH   6  16
ATOM     16  O   UNL     1       0.112  -2.752  -0.142  0.00  0.00    -0.483 OA
BRANCH  16  17
ATOM     17  C   UNL     1      -1.258  -3.124  -0.297  0.00  0.00    +0.264 C 
BRANCH  17  18
ATOM     18  C   UNL     1      -1.690  -3.954   0.884  0.00  0.00    -0.010 A 
ATOM     19  C   UNL     1      -1.547  -5.329   0.852  0.00  0.00    +0.009 A 
ATOM     20  C   UNL     1      -1.943  -6.090   1.936  0.00  0.00    +0.033 A 
ATOM     21  C   UNL     1      -2.482  -5.477   3.052  0.00  0.00    +0.126 A 
ATOM     22  C   UNL     1      -2.624  -4.102   3.084  0.00  0.00    +0.033 A 
ATOM     23  C   UNL     1      -2.224  -3.341   2.002  0.00  0.00    +0.009 A 
BRANCH  21  24
ATOM     24  N   UNL     1      -2.907  -6.292   4.212  0.00  0.00    +0.056 N 
ATOM     25  O   UNL     1      -2.783  -7.494   4.184  0.00  0.00    -0.126 OA
ATOM     26  O   UNL     1      -3.378  -5.756   5.188  0.00  0.00    -0.126 OA
ENDBRANCH  21  24
ENDBRANCH  17  18
ENDBRANCH  16  17
ENDBRANCH   6  16
TORSDOF 6
