REMARK  Name = ZINC06382308
REMARK  10 active torsions:
REMARK  status: ('A' for Active; 'I' for Inactive)
REMARK    1  A    between atoms: C_1  and  C_2
REMARK    2  A    between atoms: C_2  and  N_69
REMARK    3  A    between atoms: C_3  and  C_4
REMARK    4  A    between atoms: C_3  and  N_69
REMARK    5  A    between atoms: C_5  and  C_6
REMARK    6  A    between atoms: C_5  and  N_69
REMARK    7  A    between atoms: C_6  and  O_7
REMARK    8  A    between atoms: O_7  and  C_8
REMARK    9  A    between atoms: C_12  and  C_31
REMARK   10  A    between atoms: C_17  and  C_30
REMARK                            x       y       z     vdW  Elec       q    Type
REMARK                         _______ _______ _______ _____ _____    ______ ____
ROOT
ATOM      1  C   UNL     1       0.066   3.252   1.565  0.00  0.00    +0.122 C 
ATOM      2  C   UNL     1      -1.230   3.733   0.919  0.00  0.00    +0.033 C 
ATOM      3  C   UNL     1      -1.968   2.589   0.230  0.00  0.00    +0.014 C 
ATOM      4  C   UNL     1      -1.062   1.936  -0.824  0.00  0.00    -0.008 C 
ATOM      5  C   UNL     1      -1.759   1.919  -2.165  0.00  0.00    +0.003 C 
ATOM      6  C   UNL     1      -1.523   0.676  -3.002  0.00  0.00    +0.005 C 
ATOM      7  C   UNL     1      -2.402   0.690  -4.270  0.00  0.00    +0.015 C 
ATOM      8  C   UNL     1      -2.103   1.924  -5.080  0.00  0.00    +0.029 C 
ATOM      9  C   UNL     1      -2.266   3.184  -4.212  0.00  0.00    +0.006 C 
ATOM     10  C   UNL     1      -1.433   3.195  -2.968  0.00  0.00    +0.001 C 
ATOM     11  C   UNL     1       0.073   3.242  -3.204  0.00  0.00    +0.031 C 
ATOM     12  C   UNL     1       0.758   3.264  -1.861  0.00  0.00    -0.027 C 
ATOM     13  C   UNL     1       0.253   2.672  -0.825  0.00  0.00    -0.065 C 
ATOM     14  C   UNL     1       1.017   2.721   0.488  0.00  0.00    +0.062 C 
ATOM     15  C   UNL     1      -2.067   4.295  -5.251  0.00  0.00    +0.012 C 
ATOM     16  C   UNL     1      -2.853   3.731  -6.471  0.00  0.00    +0.075 C 
ATOM     17  C   UNL     1      -3.089   2.248  -6.190  0.00  0.00    +0.139 C 
ATOM     18  O   UNL     1      -3.864   1.498  -6.713  0.00  0.00    -0.297 OA
ATOM     19  C   UNL     1      -0.738   1.809  -5.752  0.00  0.00    +0.019 C 
ATOM     20  C   UNL     1      -0.796   0.503  -0.354  0.00  0.00    +0.016 C 
ENDROOT
BRANCH   1  21
ATOM     21  O   UNL     1      -0.223   2.216   2.507  0.00  0.00    -0.378 OA
BRANCH  21  22
ATOM     22  C   UNL     1       0.636   2.211   3.648  0.00  0.00    +0.142 C 
BRANCH  22  23
ATOM     23  C   UNL     1       0.162   1.145   4.639  0.00  0.00    -0.050 C 
BRANCH  23  24
ATOM     24  N   UNL     1       0.207  -0.174   3.973  0.00  0.00    +0.381 N 
ATOM     25  H   UNL     1      -0.148  -0.076   3.015  0.00  0.00    -0.082 HD
BRANCH  24  27
ATOM     26  C   UNL     1       1.650  -1.913   3.037  0.00  0.00    -0.017 C 
ATOM     27  C   UNL     1       1.600  -0.665   3.921  0.00  0.00    -0.082 C 
ENDBRANCH  24  27
BRANCH  24  28
ATOM     28  C   UNL     1      -0.642  -1.138   4.705  0.00  0.00    -0.082 C 
ATOM     29  C   UNL     1      -2.106  -0.865   4.355  0.00  0.00    -0.017 C 
ENDBRANCH  24  28
ENDBRANCH  23  24
ENDBRANCH  22  23
ENDBRANCH  21  22
ENDBRANCH   1  21
TORSDOF 6
