REMARK  Name = ZINC18198577
REMARK  12 active torsions:
REMARK  status: ('A' for Active; 'I' for Inactive)
REMARK    1  A    between atoms: C_1  and  C_2
REMARK    2  A    between atoms: C_2  and  C_3
REMARK    3  A    between atoms: C_2  and  C_4
REMARK    4  A    between atoms: C_7  and  C_10
REMARK    5  A    between atoms: C_17  and  O_18
REMARK    6  A    between atoms: C_25  and  C_28
REMARK    7  A    between atoms: C_30  and  O_38
REMARK    8  A    between atoms: C_31  and  O_36
REMARK    9  A    between atoms: C_32  and  O_34
REMARK   10  A    between atoms: O_34  and  C_35
REMARK   11  A    between atoms: O_36  and  C_37
REMARK   12  A    between atoms: O_38  and  C_39
REMARK                            x       y       z     vdW  Elec       q    Type
REMARK                         _______ _______ _______ _____ _____    ______ ____
ROOT
ATOM      1  C   UNL     1       5.288  -4.431   7.095  0.00  0.00    +0.092 C 
ATOM      2  C   UNL     1       4.958  -5.894   7.185  0.00  0.00    +0.067 A 
ATOM      3  C   UNL     1       4.315  -6.565   6.178  0.00  0.00    +0.126 A 
ATOM      4  N   UNL     1       4.176  -7.848   6.562  0.00  0.00    -0.260 N 
ATOM      5  H   UNL     1       3.745  -8.578   6.032  0.00  0.00    +0.190 HD
ATOM      6  N   UNL     1       4.744  -7.976   7.840  0.00  0.00    -0.134 NA
ATOM      7  C   UNL     1       5.211  -6.803   8.208  0.00  0.00    +0.237 A 
ATOM      8  N   UNL     1       3.925  -5.918   5.012  0.00  0.00    -0.303 N 
ATOM      9  C   UNL     1       3.914  -4.546   4.996  0.00  0.00    +0.017 C 
ATOM     10  C   UNL     1       4.521  -3.807   5.950  0.00  0.00    +0.024 C 
ATOM     11  C   UNL     1       4.468  -2.402   5.916  0.00  0.00    +0.162 C 
ATOM     12  O   UNL     1       5.030  -1.766   6.785  0.00  0.00    -0.292 OA
ATOM     13  C   UNL     1       3.732  -1.668   4.830  0.00  0.00    +0.088 C 
ATOM     14  C   UNL     1       2.591  -2.553   4.317  0.00  0.00    +0.032 C 
ATOM     15  C   UNL     1       3.187  -3.882   3.849  0.00  0.00    +0.059 C 
ATOM     16  H   UNL     1       3.665  -6.425   4.226  0.00  0.00    +0.153 HD
ENDROOT
BRANCH   1  20
ATOM     17  C   UNL     1       9.480  -3.956   6.427  0.00  0.00    -0.045 A 
ATOM     18  C   UNL     1       8.894  -3.415   7.556  0.00  0.00    +0.004 A 
ATOM     19  C   UNL     1       7.538  -3.568   7.772  0.00  0.00    +0.005 A 
ATOM     20  C   UNL     1       6.767  -4.264   6.859  0.00  0.00    -0.035 A 
ATOM     21  C   UNL     1       7.353  -4.810   5.733  0.00  0.00    +0.005 A 
ATOM     22  C   UNL     1       8.709  -4.652   5.514  0.00  0.00    +0.004 A 
BRANCH  17  24
ATOM     23  C   UNL     1      11.623  -5.165   6.118  0.00  0.00    +0.012 C 
ATOM     24  C   UNL     1      10.959  -3.788   6.191  0.00  0.00    +0.013 C 
ATOM     25  C   UNL     1      11.184  -3.043   4.874  0.00  0.00    +0.012 C 
ENDBRANCH  17  24
ENDBRANCH   1  20
BRANCH  14  26
ATOM     26  C   UNL     1       1.899  -1.873   3.164  0.00  0.00    -0.036 A 
ATOM     27  C   UNL     1       0.551  -1.578   3.245  0.00  0.00    +0.053 A 
ATOM     28  C   UNL     1      -0.089  -0.952   2.187  0.00  0.00    +0.165 A 
ATOM     29  C   UNL     1       0.627  -0.619   1.043  0.00  0.00    +0.204 A 
ATOM     30  C   UNL     1       1.981  -0.922   0.963  0.00  0.00    +0.165 A 
ATOM     31  C   UNL     1       2.615  -1.544   2.028  0.00  0.00    +0.053 A 
BRANCH  30  32
ATOM     32  O   UNL     1       2.684  -0.604  -0.157  0.00  0.00    -0.491 OA
ATOM     33  C   UNL     1       4.072  -0.945  -0.170  0.00  0.00    +0.277 C 
ENDBRANCH  30  32
BRANCH  29  34
ATOM     34  O   UNL     1       0.002  -0.004   0.002  0.00  0.00    -0.488 OA
ATOM     35  C   UNL     1      -0.017   1.425   0.010  0.00  0.00    +0.277 C 
ENDBRANCH  29  34
BRANCH  28  36
ATOM     36  O   UNL     1      -1.415  -0.663   2.268  0.00  0.00    -0.491 OA
ATOM     37  C   UNL     1      -2.087  -1.033   3.474  0.00  0.00    +0.277 C 
ENDBRANCH  28  36
ENDBRANCH  14  26
BRANCH   7  38
ATOM     38  O   UNL     1       5.835  -6.527   9.384  0.00  0.00    -0.491 OA
ATOM     39  H   UNL     1       5.886  -7.358   9.938  0.00  0.00    +0.294 HD
ENDBRANCH   7  38
TORSDOF 7
