REMARK  Name = ZINC40799162
REMARK  7 active torsions:
REMARK  status: ('A' for Active; 'I' for Inactive)
REMARK    1  A    between atoms: C_1  and  C_2
REMARK    2  A    between atoms: C_2  and  N_3
REMARK    3  A    between atoms: C_4  and  C_6
REMARK    4  A    between atoms: C_10  and  N_11
REMARK    5  A    between atoms: C_12  and  C_14
REMARK    6  A    between atoms: N_18  and  C_19
REMARK    7  A    between atoms: C_19  and  C_20
REMARK                            x       y       z     vdW  Elec       q    Type
REMARK                         _______ _______ _______ _____ _____    ______ ____
ROOT
ATOM      1  N   UNL     1      -0.539  -2.373  -4.041  0.00  0.00    -0.274 N 
ATOM      2  C   UNL     1      -1.045  -2.656  -5.257  0.00  0.00    +0.265 C 
ATOM      3  O   UNL     1      -0.300  -2.951  -6.173  0.00  0.00    -0.268 OA
ATOM      4  H   UNL     1      -1.124  -2.066  -3.331  0.00  0.00    +0.156 HD
ENDROOT
BRANCH   1   9
ATOM      5  C   UNL     1       1.509  -2.281  -2.627  0.00  0.00    +0.069 A 
ATOM      6  C   UNL     1       2.942  -2.522  -2.637  0.00  0.00    -0.023 A 
ATOM      7  C   UNL     1       3.421  -2.953  -3.823  0.00  0.00    -0.004 A 
ATOM      8  S   UNL     1       2.003  -3.032  -4.878  0.00  0.00    -0.077 S 
ATOM      9  C   UNL     1       0.818  -2.522  -3.804  0.00  0.00    +0.085 A 
ATOM     10  C   UNL     1       4.844  -3.285  -4.152  0.00  0.00    +0.043 C 
ATOM     11  C   UNL     1       5.741  -2.703  -3.050  0.00  0.00    +0.005 C 
ATOM     12  C   UNL     1       5.161  -3.085  -1.685  0.00  0.00    +0.005 C 
ATOM     13  C   UNL     1       3.859  -2.319  -1.440  0.00  0.00    +0.037 C 
BRANCH   5  15
ATOM     14  N   UNL     1       0.686  -0.487  -1.197  0.00  0.00    -0.312 N 
ATOM     15  C   UNL     1       0.823  -1.809  -1.421  0.00  0.00    +0.247 C 
ATOM     16  O   UNL     1       0.376  -2.611  -0.621  0.00  0.00    -0.270 OA
ATOM     17  H   UNL     1       1.042   0.152  -1.834  0.00  0.00    +0.149 HD
BRANCH  14  19
ATOM     18  C   UNL     1      -0.018   1.515   0.019  0.00  0.00    +0.024 C 
ATOM     19  C   UNL     1      -0.000  -0.015   0.009  0.00  0.00    +0.101 C 
ENDBRANCH  14  19
ENDBRANCH   5  15
ENDBRANCH   1   9
BRANCH   2  20
ATOM     20  C   UNL     1      -2.492  -2.607  -5.477  0.00  0.00    +0.107 A 
ATOM     21  C   UNL     1      -3.433  -2.193  -4.559  0.00  0.00    +0.048 A 
ATOM     22  C   UNL     1      -4.675  -2.301  -5.164  0.00  0.00    +0.038 A 
ATOM     23  C   UNL     1      -4.515  -2.785  -6.468  0.00  0.00    +0.057 A 
ATOM     24  N   UNL     1      -3.144  -2.963  -6.639  0.00  0.00    -0.331 N 
ATOM     25  C   UNL     1      -5.694  -2.948  -7.208  0.00  0.00    +0.034 A 
ATOM     26  C   UNL     1      -6.888  -2.644  -6.656  0.00  0.00    +0.048 A 
ATOM     27  S   UNL     1      -6.432  -2.094  -5.020  0.00  0.00    -0.095 S 
BRANCH  24  28
ATOM     28  C   UNL     1      -2.497  -3.452  -7.859  0.00  0.00    +0.157 C 
BRANCH  28  29
ATOM     29  C   UNL     1      -2.503  -4.959  -7.861  0.00  0.00    -0.025 A 
ATOM     30  C   UNL     1      -1.405  -5.655  -7.389  0.00  0.00    +0.005 A 
ATOM     31  C   UNL     1      -1.408  -7.037  -7.390  0.00  0.00    +0.003 A 
ATOM     32  C   UNL     1      -2.509  -7.725  -7.863  0.00  0.00    +0.038 A 
ATOM     33  C   UNL     1      -3.609  -7.030  -8.335  0.00  0.00    +0.124 A 
ATOM     34  C   UNL     1      -3.607  -5.645  -8.328  0.00  0.00    +0.043 A 
ATOM     35  F   UNL     1      -4.686  -7.702  -8.798  0.00  0.00    -0.205 F 
ENDBRANCH  28  29
ENDBRANCH  24  28
ENDBRANCH   2  20
TORSDOF 6
