REMARK  Name = ZINC00151873
REMARK  6 active torsions:
REMARK  status: ('A' for Active; 'I' for Inactive)
REMARK    1  A    between atoms: C_1  and  C_2
REMARK    2  A    between atoms: C_2  and  S_3
REMARK    3  A    between atoms: S_3  and  C_4
REMARK    4  A    between atoms: C_8  and  C_24
REMARK    5  A    between atoms: C_9  and  C_21
REMARK    6  A    between atoms: C_10  and  C_14
REMARK                            x       y       z     vdW  Elec       q    Type
REMARK                         _______ _______ _______ _____ _____    ______ ____
ROOT
ATOM      1  C   UNL     1       1.277  -2.224  -1.855  0.00  0.00    +0.196 C 
ATOM      2  N   UNL     1       0.786  -2.684  -0.719  0.00  0.00    -0.190 NA
ATOM      3  C   UNL     1       0.667  -4.017  -0.768  0.00  0.00    +0.217 C 
ATOM      4  N   UNL     1       0.228  -4.896   0.123  0.00  0.00    -0.330 N 
ATOM      5  C   UNL     1       0.169  -6.203  -0.070  0.00  0.00    +0.026 C 
ATOM      6  C   UNL     1       0.568  -6.780  -1.244  0.00  0.00    +0.059 C 
ATOM      7  C   UNL     1       1.088  -5.856  -2.331  0.00  0.00    +0.166 C 
ATOM      8  N   UNL     1       1.108  -4.425  -2.005  0.00  0.00    -0.187 N 
ATOM      9  N   UNL     1       1.493  -3.277  -2.703  0.00  0.00    -0.118 NA
ATOM     10  C   UNL     1      -0.353  -7.083   1.036  0.00  0.00    +0.064 C 
ATOM     11  H   UNL     1      -0.071  -4.554   0.981  0.00  0.00    +0.168 HD
ENDROOT
BRANCH   7  12
ATOM     12  C   UNL     1       0.230  -6.042  -3.556  0.00  0.00    -0.021 A 
ATOM     13  C   UNL     1      -1.071  -5.574  -3.567  0.00  0.00    +0.007 A 
ATOM     14  C   UNL     1      -1.858  -5.745  -4.690  0.00  0.00    +0.020 A 
ATOM     15  C   UNL     1      -1.343  -6.384  -5.804  0.00  0.00    +0.041 A 
ATOM     16  C   UNL     1      -0.041  -6.851  -5.793  0.00  0.00    +0.020 A 
ATOM     17  C   UNL     1       0.747  -6.675  -4.671  0.00  0.00    +0.007 A 
ATOM     18 CL   UNL     1      -2.331  -6.599  -7.215  0.00  0.00    -0.084 Cl
ENDBRANCH   7  12
BRANCH   6  19
ATOM     19  C   UNL     1       0.500  -8.171  -1.437  0.00  0.00    +0.241 C 
ATOM     20  O   UNL     1      -0.027  -8.878  -0.595  0.00  0.00    -0.271 OA
ATOM     21  N   UNL     1       1.017  -8.723  -2.552  0.00  0.00    -0.325 N 
ATOM     22  H   UNL     1       1.503  -8.172  -3.186  0.00  0.00    +0.145 HD
ATOM     23  H   UNL     1       0.903  -9.671  -2.722  0.00  0.00    +0.145 HD
ENDBRANCH   6  19
BRANCH   1  24
ATOM     24  S   UNL     1       1.596  -0.531  -2.224  0.00  0.00    -0.087 S 
BRANCH  24  26
ATOM     25  C   UNL     1       1.335   1.848  -0.898  0.00  0.00    +0.016 C 
ATOM     26  C   UNL     1       1.107   0.346  -0.713  0.00  0.00    +0.074 C 
ENDBRANCH  24  26
ENDBRANCH   1  24
TORSDOF 4
