REMARK  Name = ZINC67236967
REMARK  10 active torsions:
REMARK  status: ('A' for Active; 'I' for Inactive)
REMARK    1  A    between atoms: C_1  and  C_2
REMARK    2  A    between atoms: C_2  and  C_3
REMARK    3  A    between atoms: C_2  and  C_4
REMARK    4  A    between atoms: C_2  and  O_5
REMARK    5  A    between atoms: O_5  and  C_6
REMARK    6  A    between atoms: C_13  and  C_15
REMARK    7  A    between atoms: N_17  and  N_18
REMARK    8  A    between atoms: N_21  and  C_22
REMARK    9  A    between atoms: C_22  and  C_23
REMARK   10  A    between atoms: C_23  and  C_24
REMARK                            x       y       z     vdW  Elec       q    Type
REMARK                         _______ _______ _______ _____ _____    ______ ____
ROOT
ATOM      1  C   UNL     1       4.468   0.820  -1.490  0.00  0.00    +0.250 C 
ATOM      2  O   UNL     1       3.991   0.623  -0.393  0.00  0.00    -0.272 OA
ATOM      3  N   UNL     1       5.415   1.766  -1.653  0.00  0.00    -0.232 N 
ATOM      4  H   UNL     1       5.796   1.924  -2.530  0.00  0.00    +0.173 HD
ENDROOT
BRANCH   1  12
ATOM      5  C   UNL     1       1.974   1.333  -2.319  0.00  0.00    +0.404 C 
ATOM      6  O   UNL     1       2.542   1.925  -1.423  0.00  0.00    -0.226 OA
ATOM      7  N   UNL     1       2.601   0.335  -2.971  0.00  0.00    -0.256 N 
ATOM      8  C   UNL     1       1.899  -0.445  -4.000  0.00  0.00    +0.112 C 
ATOM      9  C   UNL     1       2.018  -1.933  -3.657  0.00  0.00    +0.019 C 
ATOM     10  C   UNL     1       3.495  -2.298  -3.491  0.00  0.00    +0.004 C 
ATOM     11  C   UNL     1       4.096  -1.488  -2.340  0.00  0.00    +0.032 C 
ATOM     12  C   UNL     1       4.002   0.009  -2.672  0.00  0.00    +0.167 C 
BRANCH   5  13
ATOM     13  O   UNL     1       0.717   1.675  -2.660  0.00  0.00    -0.445 OA
BRANCH  13  15
ATOM     14  C   UNL     1       0.946   4.014  -2.098  0.00  0.00    +0.055 C 
ATOM     15  C   UNL     1       0.113   2.742  -1.926  0.00  0.00    +0.107 C 
ATOM     16  C   UNL     1       0.050   2.370  -0.443  0.00  0.00    +0.055 C 
ATOM     17  C   UNL     1      -1.304   2.985  -2.452  0.00  0.00    +0.055 C 
ENDBRANCH  13  15
ENDBRANCH   5  13
ENDBRANCH   1  12
BRANCH   3  18
ATOM     18  N   UNL     1       5.848   2.520  -0.554  0.00  0.00    -0.218 N 
ATOM     19  C   UNL     1       6.795   3.465  -0.717  0.00  0.00    +0.316 C 
ATOM     20  O   UNL     1       7.170   4.120   0.236  0.00  0.00    -0.251 OA
ATOM     21  N   UNL     1       7.325   3.685  -1.937  0.00  0.00    -0.298 N 
ATOM     22  H   UNL     1       5.466   2.362   0.323  0.00  0.00    +0.174 HD
ATOM     23  H   UNL     1       7.025   3.163  -2.697  0.00  0.00    +0.150 HD
BRANCH  21  24
ATOM     24  C   UNL     1       8.354   4.712  -2.114  0.00  0.00    +0.111 C 
BRANCH  24  25
ATOM     25  C   UNL     1       8.782   4.757  -3.582  0.00  0.00    +0.061 C 
BRANCH  25  26
ATOM     26  C   UNL     1       9.841   5.814  -3.764  0.00  0.00    -0.009 A 
ATOM     27  C   UNL     1      11.189   5.697  -3.676  0.00  0.00    +0.011 A 
ATOM     28  C   UNL     1      11.974   6.815  -3.885  0.00  0.00    +0.008 A 
ATOM     29  C   UNL     1      11.373   7.996  -4.171  0.00  0.00    +0.045 A 
ATOM     30  S   UNL     1       9.646   7.545  -4.159  0.00  0.00    -0.102 S 
ENDBRANCH  25  26
ENDBRANCH  24  25
ENDBRANCH  21  24
ENDBRANCH   3  18
TORSDOF 7
