REMARK  Name = ZINC40605277
REMARK  7 active torsions:
REMARK  status: ('A' for Active; 'I' for Inactive)
REMARK    1  A    between atoms: C_1  and  C_2
REMARK    2  A    between atoms: C_2  and  C_3
REMARK    3  A    between atoms: C_2  and  C_4
REMARK    4  A    between atoms: C_2  and  C_5
REMARK    5  A    between atoms: C_5  and  N_6
REMARK    6  A    between atoms: C_11  and  O_19
REMARK    7  A    between atoms: C_14  and  C_16
REMARK                            x       y       z     vdW  Elec       q    Type
REMARK                         _______ _______ _______ _____ _____    ______ ____
ROOT
ATOM      1  N   UNL     1       2.093   0.010  -1.267  0.00  0.00    -0.299 N 
ATOM      2  C   UNL     1       2.917  -0.299  -2.288  0.00  0.00    +0.303 C 
ATOM      3  O   UNL     1       2.520  -0.999  -3.200  0.00  0.00    -0.253 OA
ATOM      4  N   UNL     1       4.182   0.167  -2.297  0.00  0.00    -0.269 N 
ATOM      5  C   UNL     1       4.792   1.016  -1.258  0.00  0.00    +0.141 C 
ATOM      6  C   UNL     1       6.315   0.761  -1.382  0.00  0.00    +0.134 C 
ATOM      7  C   UNL     1       6.484   0.621  -2.918  0.00  0.00    +0.067 C 
ATOM      8  C   UNL     1       5.182  -0.091  -3.343  0.00  0.00    +0.193 C 
ATOM      9  H   UNL     1       2.409   0.568  -0.540  0.00  0.00    +0.150 HD
ENDROOT
BRANCH   8  10
ATOM     10  C   UNL     1       4.703   0.465  -4.659  0.00  0.00    +0.376 C 
ATOM     11  O   UNL     1       3.703   1.161  -4.699  0.00  0.00    -0.244 OA
ATOM     12  O   UNL     1       5.316   0.218  -5.684  0.00  0.00    -0.244 OA
ENDBRANCH   8  10
BRANCH   6  13
ATOM     13  O   UNL     1       7.063   1.871  -0.882  0.00  0.00    -0.390 OA
ATOM     14  H   UNL     1       6.913   2.057   0.055  0.00  0.00    +0.210 HD
ENDBRANCH   6  13
BRANCH   1  15
ATOM     15  C   UNL     1       0.718  -0.497  -1.257  0.00  0.00    +0.111 C 
BRANCH  15  17
ATOM     16  C   UNL     1      -0.019   1.526   0.010  0.00  0.00    +0.012 C 
ATOM     17  C   UNL     1       0.002  -0.004   0.002  0.00  0.00    -0.022 C 
ATOM     18  C   UNL     1       0.742  -0.511   1.242  0.00  0.00    +0.012 C 
ATOM     19  C   UNL     1      -1.433  -0.534   0.013  0.00  0.00    +0.012 C 
ENDBRANCH  15  17
ENDBRANCH   1  15
TORSDOF 4
