REMARK  Name = ZINC15674384
REMARK  6 active torsions:
REMARK  status: ('A' for Active; 'I' for Inactive)
REMARK    1  A    between atoms: C_1  and  N_2
REMARK    2  A    between atoms: C_5  and  C_7
REMARK    3  A    between atoms: N_9  and  C_10
REMARK    4  A    between atoms: N_9  and  C_16
REMARK    5  A    between atoms: C_10  and  C_11
REMARK    6  A    between atoms: C_16  and  C_17
REMARK                            x       y       z     vdW  Elec       q    Type
REMARK                         _______ _______ _______ _____ _____    ______ ____
ROOT
ATOM      1  C   UNL     1      -1.852   2.379   3.849  0.00  0.00    +0.268 C 
ATOM      2  O   UNL     1      -1.697   1.973   4.984  0.00  0.00    -0.268 OA
ATOM      3  N   UNL     1      -2.877   1.921   3.104  0.00  0.00    -0.286 N 
ENDROOT
BRANCH   1   8
ATOM      4  C   UNL     1       0.338   5.401   0.634  0.00  0.00    +0.173 C 
ATOM      5  N   UNL     1       0.042   4.694   1.882  0.00  0.00    -0.266 N 
ATOM      6  C   UNL     1       0.718   4.841   3.033  0.00  0.00    +0.079 A 
ATOM      7  C   UNL     1       0.121   4.011   3.963  0.00  0.00    +0.047 A 
ATOM      8  C   UNL     1      -0.916   3.374   3.286  0.00  0.00    +0.154 A 
ATOM      9  N   UNL     1      -0.909   3.833   2.043  0.00  0.00    -0.166 NA
ATOM     10  C   UNL     1       0.626   3.922   5.374  0.00  0.00    +0.269 C 
ATOM     11  O   UNL     1       2.012   4.276   5.402  0.00  0.00    -0.487 OA
ATOM     12  C   UNL     1       2.468   5.327   4.678  0.00  0.00    +0.130 A 
ATOM     13  C   UNL     1       1.876   5.657   3.443  0.00  0.00    +0.042 A 
ATOM     14  C   UNL     1       2.373   6.699   2.678  0.00  0.00    +0.013 A 
ATOM     15  C   UNL     1       3.453   7.429   3.139  0.00  0.00    +0.001 A 
ATOM     16  C   UNL     1       4.029   7.119   4.358  0.00  0.00    +0.004 A 
ATOM     17  C   UNL     1       3.543   6.077   5.125  0.00  0.00    +0.046 A 
ENDBRANCH   1   8
BRANCH   3  18
ATOM     18  C   UNL     1      -3.873   1.026   3.699  0.00  0.00    +0.182 C 
BRANCH  18  19
ATOM     19  C   UNL     1      -3.377  -0.395   3.628  0.00  0.00    +0.122 A 
ATOM     20  C   UNL     1      -2.637  -1.017   4.564  0.00  0.00    +0.046 A 
ATOM     21  C   UNL     1      -2.402  -2.330   4.093  0.00  0.00    +0.041 A 
ATOM     22  C   UNL     1      -3.005  -2.428   2.895  0.00  0.00    +0.195 A 
ATOM     23  O   UNL     1      -3.594  -1.253   2.618  0.00  0.00    -0.466 OA
ENDBRANCH  18  19
ENDBRANCH   3  18
BRANCH   3  24
ATOM     24  C   UNL     1      -2.996   2.318   1.698  0.00  0.00    +0.140 C 
BRANCH  24  25
ATOM     25  C   UNL     1      -2.151   1.382   0.831  0.00  0.00    +0.136 C 
ATOM     26  C   UNL     1      -2.262   1.783  -0.657  0.00  0.00    +0.035 C 
ATOM     27  C   UNL     1      -0.843   1.539  -1.217  0.00  0.00    +0.031 C 
ATOM     28  C   UNL     1      -0.043   1.020  -0.002  0.00  0.00    +0.160 C 
ATOM     29  O   UNL     1      -0.748   1.529   1.151  0.00  0.00    -0.375 OA
ENDBRANCH  24  25
ENDBRANCH   3  24
TORSDOF 5
