REMARK  Name = ZINC39393545
REMARK  4 active torsions:
REMARK  status: ('A' for Active; 'I' for Inactive)
REMARK    1  A    between atoms: C_5  and  C_7
REMARK    2  A    between atoms: C_9  and  C_12
REMARK    3  A    between atoms: C_23  and  C_25
REMARK    4  A    between atoms: C_25  and  C_26
REMARK                            x       y       z     vdW  Elec       q    Type
REMARK                         _______ _______ _______ _____ _____    ______ ____
ROOT
ATOM      1  C   UNL     1      -0.899  -4.543   0.362  0.00  0.00    +0.058 A 
ATOM      2  C   UNL     1      -0.225  -5.706  -0.039  0.00  0.00    +0.018 A 
ATOM      3  C   UNL     1      -0.951  -6.852  -0.222  0.00  0.00    +0.044 A 
ATOM      4  C   UNL     1      -2.328  -6.830  -0.007  0.00  0.00    +0.121 A 
ATOM      5  N   UNL     1      -2.940  -5.717   0.371  0.00  0.00    -0.240 NA
ATOM      6  C   UNL     1      -2.278  -4.595   0.564  0.00  0.00    +0.126 A 
ATOM      7  N   UNL     1      -3.067  -7.988  -0.193  0.00  0.00    -0.312 N 
ATOM      8  C   UNL     1      -3.210  -8.579  -1.530  0.00  0.00    +0.107 C 
ATOM      9  C   UNL     1      -4.701  -8.768  -1.829  0.00  0.00    +0.019 C 
ATOM     10  C   UNL     1      -5.342  -9.588  -0.708  0.00  0.00    +0.003 C 
ATOM     11  C   UNL     1      -5.207  -8.836   0.618  0.00  0.00    +0.023 C 
ATOM     12  C   UNL     1      -3.717  -8.652   0.946  0.00  0.00    +0.084 C 
ENDROOT
BRANCH   1  15
ATOM     13  C   UNL     1       0.284  -1.207   1.042  0.00  0.00    +0.205 A 
ATOM     14  N   UNL     1      -0.678  -2.138   0.950  0.00  0.00    -0.187 NA
ATOM     15  C   UNL     1      -0.158  -3.283   0.572  0.00  0.00    +0.260 A 
ATOM     16  O   UNL     1       1.166  -3.111   0.411  0.00  0.00    -0.332 OA
ATOM     17  N   UNL     1       1.432  -1.750   0.716  0.00  0.00    -0.056 NA
BRANCH  13  22
ATOM     18  C   UNL     1      -1.379   1.984   2.133  0.00  0.00    +0.001 A 
ATOM     19  C   UNL     1      -0.300   2.849   2.184  0.00  0.00    +0.003 A 
ATOM     20  C   UNL     1       0.968   2.401   1.864  0.00  0.00    +0.039 A 
ATOM     21  C   UNL     1       1.165   1.084   1.492  0.00  0.00    +0.134 A 
ATOM     22  C   UNL     1       0.080   0.208   1.440  0.00  0.00    +0.058 A 
ATOM     23  C   UNL     1      -1.195   0.667   1.764  0.00  0.00    +0.014 A 
ATOM     24  F   UNL     1       2.405   0.646   1.180  0.00  0.00    -0.205 F 
ENDBRANCH  13  22
ENDBRANCH   1  15
BRANCH  12  25
ATOM     25  C   UNL     1      -3.569  -7.784   2.198  0.00  0.00    +0.118 C 
BRANCH  25  26
ATOM     26  C   UNL     1      -2.115  -7.709   2.587  0.00  0.00    +0.212 C 
ATOM     27  O   UNL     1      -1.297  -8.396   2.013  0.00  0.00    -0.276 OA
ATOM     28  N   UNL     1      -1.724  -6.877   3.572  0.00  0.00    -0.329 N 
ATOM     29  H   UNL     1      -2.378  -6.327   4.031  0.00  0.00    +0.145 HD
ATOM     30  H   UNL     1      -0.788  -6.828   3.823  0.00  0.00    +0.145 HD
ENDBRANCH  25  26
ENDBRANCH  12  25
TORSDOF 4
