REMARK  Name = ZINC39007101
REMARK  5 active torsions:
REMARK  status: ('A' for Active; 'I' for Inactive)
REMARK    1  A    between atoms: C_4  and  N_24
REMARK    2  A    between atoms: C_5  and  C_7
REMARK    3  A    between atoms: C_8  and  C_9
REMARK    4  A    between atoms: N_10  and  N_11
REMARK    5  A    between atoms: C_12  and  C_18
REMARK                            x       y       z     vdW  Elec       q    Type
REMARK                         _______ _______ _______ _____ _____    ______ ____
ROOT
ATOM      1  N   UNL     1      -0.814  -5.979   1.491  0.00  0.00    -0.173 N 
ATOM      2  C   UNL     1      -1.956  -6.859   1.797  0.00  0.00    +0.264 C 
ATOM      3  N   UNL     1      -1.330  -8.153   2.108  0.00  0.00    -0.189 NA
ATOM      4  N   UNL     1      -0.108  -8.024   1.999  0.00  0.00    -0.219 N 
ATOM      5  C   UNL     1       0.272  -6.771   1.633  0.00  0.00    +0.174 C 
ATOM      6  S   UNL     1       1.891  -6.268   1.390  0.00  0.00    -0.015 S 
ATOM      7  H   UNL     1       0.520  -8.746   2.156  0.00  0.00    +0.176 HD
ENDROOT
BRANCH   2   8
ATOM      8  C   UNL     1      -2.865  -6.982   0.601  0.00  0.00    +0.001 A 
ATOM      9  C   UNL     1      -2.980  -5.944  -0.312  0.00  0.00    +0.025 A 
ATOM     10  C   UNL     1      -3.824  -6.093  -1.397  0.00  0.00    +0.083 A 
ATOM     11  N   UNL     1      -4.513  -7.204  -1.568  0.00  0.00    -0.367 N 
ATOM     12  C   UNL     1      -4.428  -8.210  -0.720  0.00  0.00    +0.083 A 
ATOM     13  C   UNL     1      -3.601  -8.136   0.384  0.00  0.00    +0.025 A 
ATOM     14  H   UNL     1      -5.099  -7.282  -2.337  0.00  0.00    +0.165 HD
ENDBRANCH   2   8
BRANCH   1  16
ATOM     15  C   UNL     1       0.265  -3.955   1.011  0.00  0.00    +0.131 C 
ATOM     16  N   UNL     1      -0.847  -4.626   1.129  0.00  0.00    -0.184 NA
BRANCH  15  18
ATOM     17  C   UNL     1       1.393  -1.933   0.394  0.00  0.00    +0.012 C 
ATOM     18  C   UNL     1       0.243  -2.628   0.516  0.00  0.00    +0.022 C 
BRANCH  17  23
ATOM     19  C   UNL     1       0.162   1.463  -0.614  0.00  0.00    +0.001 A 
ATOM     20  C   UNL     1       1.327   2.039  -1.091  0.00  0.00    +0.002 A 
ATOM     21  C   UNL     1       2.513   1.326  -1.086  0.00  0.00    +0.033 A 
ATOM     22  C   UNL     1       2.543   0.034  -0.604  0.00  0.00    +0.133 A 
ATOM     23  C   UNL     1       1.370  -0.555  -0.121  0.00  0.00    +0.005 A 
ATOM     24  C   UNL     1       0.176   0.172  -0.129  0.00  0.00    +0.010 A 
BRANCH  22  25
ATOM     25  N   UNL     1       3.816  -0.729  -0.600  0.00  0.00    +0.057 N 
ATOM     26  O   UNL     1       4.857  -0.167  -0.353  0.00  0.00    -0.126 OA
ATOM     27  O   UNL     1       3.812  -1.913  -0.844  0.00  0.00    -0.126 OA
ENDBRANCH  22  25
ENDBRANCH  17  23
ENDBRANCH  15  18
ENDBRANCH   1  16
TORSDOF 5
