REMARK  Name = ZINC09503930
REMARK  7 active torsions:
REMARK  status: ('A' for Active; 'I' for Inactive)
REMARK    1  A    between atoms: C_1  and  C_2
REMARK    2  A    between atoms: C_2  and  C_3
REMARK    3  A    between atoms: C_6  and  N_9
REMARK    4  A    between atoms: C_19  and  S_20
REMARK    5  A    between atoms: S_20  and  C_21
REMARK    6  A    between atoms: C_21  and  C_22
REMARK    7  A    between atoms: C_22  and  C_24
REMARK                            x       y       z     vdW  Elec       q    Type
REMARK                         _______ _______ _______ _____ _____    ______ ____
ROOT
ATOM      1  N   UNL     1       3.965   8.083   0.006  0.00  0.00    -0.255 N 
ATOM      2  C   UNL     1       5.144   8.512  -0.495  0.00  0.00    +0.270 A 
ATOM      3  O   UNL     1       5.261   9.642  -0.937  0.00  0.00    -0.266 OA
ATOM      4  C   UNL     1       6.242   7.615  -0.493  0.00  0.00    +0.103 A 
ATOM      5  C   UNL     1       7.583   7.703  -0.919  0.00  0.00    +0.149 A 
ATOM      6  N   UNL     1       8.166   6.563  -0.678  0.00  0.00    -0.180 NA
ATOM      7  N   UNL     1       7.250   5.682  -0.091  0.00  0.00    -0.260 N 
ATOM      8  H   UNL     1       7.440   4.742   0.193  0.00  0.00    +0.191 HD
ATOM      9  C   UNL     1       6.057   6.324   0.028  0.00  0.00    +0.164 A 
ATOM     10  N   UNL     1       4.858   5.973   0.512  0.00  0.00    -0.204 NA
ATOM     11  C   UNL     1       3.847   6.813   0.499  0.00  0.00    +0.179 A 
ENDROOT
BRANCH   1  15
ATOM     12  C   UNL     1       0.675  10.641   0.049  0.00  0.00    -0.047 A 
ATOM     13  C   UNL     1       1.540  10.612   1.127  0.00  0.00    +0.005 A 
ATOM     14  C   UNL     1       2.631   9.765   1.116  0.00  0.00    +0.026 A 
ATOM     15  C   UNL     1       2.859   8.943   0.021  0.00  0.00    +0.052 A 
ATOM     16  C   UNL     1       1.991   8.978  -1.062  0.00  0.00    +0.026 A 
ATOM     17  C   UNL     1       0.898   9.823  -1.043  0.00  0.00    +0.005 A 
BRANCH  12  19
ATOM     18  C   UNL     1      -0.121  12.914  -0.541  0.00  0.00    +0.009 C 
ATOM     19  C   UNL     1      -0.515  11.566   0.065  0.00  0.00    +0.032 C 
ENDBRANCH  12  19
ENDBRANCH   1  15
BRANCH  11  20
ATOM     20  S   UNL     1       2.293   6.290   1.146  0.00  0.00    -0.079 S 
BRANCH  20  21
ATOM     21  C   UNL     1       2.711   4.597   1.634  0.00  0.00    +0.157 C 
BRANCH  21  22
ATOM     22  C   UNL     1       1.497   3.933   2.231  0.00  0.00    +0.173 C 
ATOM     23  O   UNL     1       0.453   4.543   2.318  0.00  0.00    -0.291 OA
BRANCH  22  24
ATOM     24  C   UNL     1       1.579   2.544   2.709  0.00  0.00    +0.018 A 
ATOM     25  C   UNL     1       0.454   1.924   3.264  0.00  0.00    +0.013 A 
ATOM     26  C   UNL     1       0.538   0.623   3.708  0.00  0.00    +0.020 A 
ATOM     27  C   UNL     1       1.733  -0.072   3.608  0.00  0.00    +0.041 A 
ATOM     28  C   UNL     1       2.851   0.536   3.059  0.00  0.00    +0.020 A 
ATOM     29  C   UNL     1       2.782   1.837   2.611  0.00  0.00    +0.013 A 
ATOM     30 CL   UNL     1       1.830  -1.711   4.171  0.00  0.00    -0.084 Cl
ENDBRANCH  22  24
ENDBRANCH  21  22
ENDBRANCH  20  21
ENDBRANCH  11  20
TORSDOF 6
