REMARK  Name = ZINC14161215
REMARK  9 active torsions:
REMARK  status: ('A' for Active; 'I' for Inactive)
REMARK    1  A    between atoms: C_1  and  C_2
REMARK    2  A    between atoms: C_4  and  C_36
REMARK    3  A    between atoms: C_6  and  N_8
REMARK    4  A    between atoms: N_10  and  C_11
REMARK    5  A    between atoms: C_11  and  N_13
REMARK    6  A    between atoms: N_13  and  C_14
REMARK    7  A    between atoms: C_14  and  C_15
REMARK    8  A    between atoms: C_24  and  C_27
REMARK    9  A    between atoms: C_24  and  N_30
REMARK                            x       y       z     vdW  Elec       q    Type
REMARK                         _______ _______ _______ _____ _____    ______ ____
ROOT
ATOM      1  N   UNL     1      -1.219  -2.371   2.323  0.00  0.00    -0.181 NA
ATOM      2  C   UNL     1      -0.740  -1.786   3.399  0.00  0.00    +0.192 C 
ATOM      3  N   UNL     1      -0.356  -2.545   4.480  0.00  0.00    -0.269 N 
ATOM      4  N   UNL     1      -0.622  -0.424   3.443  0.00  0.00    -0.303 N 
ATOM      5  C   UNL     1      -1.721   0.406   3.957  0.00  0.00    +0.107 C 
ATOM      6  C   UNL     1      -1.175   1.319   5.059  0.00  0.00    +0.016 C 
ATOM      7  C   UNL     1       0.013   2.116   4.514  0.00  0.00    +0.015 C 
ATOM      8  C   UNL     1       1.124   1.153   4.090  0.00  0.00    +0.016 C 
ATOM      9  C   UNL     1       0.607   0.237   2.983  0.00  0.00    +0.107 C 
ATOM     10  H   UNL     1       0.029  -2.116   5.261  0.00  0.00    +0.156 HD
ENDROOT
BRANCH   1  16
ATOM     11  C   UNL     1      -1.368   1.919   0.229  0.00  0.00    +0.066 C 
ATOM     12  C   UNL     1      -1.636   0.437   0.207  0.00  0.00    +0.044 A 
ATOM     13  C   UNL     1      -2.217  -0.154  -0.905  0.00  0.00    +0.046 A 
ATOM     14  C   UNL     1      -2.449  -1.522  -0.887  0.00  0.00    +0.044 A 
ATOM     15  N   UNL     1      -2.111  -2.220   0.184  0.00  0.00    -0.216 NA
ATOM     16  C   UNL     1      -1.555  -1.624   1.235  0.00  0.00    +0.253 A 
ATOM     17  N   UNL     1      -1.316  -0.316   1.245  0.00  0.00    -0.216 NA
ATOM     18  C   UNL     1      -3.078  -2.204  -2.074  0.00  0.00    +0.066 C 
ENDBRANCH   1  16
BRANCH   7  19
ATOM     19  N   UNL     1       0.518   3.017   5.558  0.00  0.00    +0.389 N 
ATOM     20  C   UNL     1      -0.554   3.928   5.978  0.00  0.00    -0.077 C 
ATOM     21  C   UNL     1      -0.058   4.814   7.122  0.00  0.00    -0.019 C 
ATOM     22  C   UNL     1       1.147   5.629   6.642  0.00  0.00    -0.004 C 
ATOM     23  C   UNL     1       2.231   4.671   6.138  0.00  0.00    -0.019 C 
ATOM     24  C   UNL     1       1.649   3.790   5.031  0.00  0.00    -0.077 C 
ATOM     25  H   UNL     1       0.824   2.474   6.351  0.00  0.00    -0.080 HD
ENDBRANCH   7  19
BRANCH   7  26
ATOM     26  C   UNL     1      -0.430   2.926   3.323  0.00  0.00    +0.200 C 
ATOM     27  O   UNL     1      -1.611   3.134   3.136  0.00  0.00    -0.278 OA
ATOM     28  N   UNL     1       0.485   3.421   2.466  0.00  0.00    -0.330 N 
ATOM     29  H   UNL     1       1.422   3.192   2.572  0.00  0.00    +0.145 HD
ATOM     30  H   UNL     1       0.207   4.005   1.744  0.00  0.00    +0.145 HD
ENDBRANCH   7  26
BRANCH   3  31
ATOM     31  C   UNL     1      -0.515  -3.883   4.455  0.00  0.00    +0.137 C 
ATOM     32  S   UNL     1      -1.194  -4.638   3.077  0.00  0.00    -0.018 S 
BRANCH  31  33
ATOM     33  N   UNL     1      -0.139  -4.626   5.515  0.00  0.00    -0.324 N 
ATOM     34  H   UNL     1       0.245  -4.198   6.295  0.00  0.00    +0.148 HD
BRANCH  33  35
ATOM     35  C   UNL     1      -0.312  -6.080   5.487  0.00  0.00    +0.134 C 
BRANCH  35  36
ATOM     36  C   UNL     1       0.190  -6.678   6.803  0.00  0.00    +0.135 C 
ATOM     37  C   UNL     1       0.125  -8.219   6.737  0.00  0.00    +0.035 C 
ATOM     38  C   UNL     1      -0.351  -8.591   8.168  0.00  0.00    +0.031 C 
ATOM     39  C   UNL     1      -1.283  -7.395   8.488  0.00  0.00    +0.160 C 
ATOM     40  O   UNL     1      -0.650  -6.254   7.882  0.00  0.00    -0.375 OA
ENDBRANCH  35  36
ENDBRANCH  33  35
ENDBRANCH  31  33
ENDBRANCH   3  31
TORSDOF 7
