REMARK  Name = ZINC14732987
REMARK  9 active torsions:
REMARK  status: ('A' for Active; 'I' for Inactive)
REMARK    1  A    between atoms: C_1  and  N_2
REMARK    2  A    between atoms: N_2  and  C_3
REMARK    3  A    between atoms: C_4  and  C_6
REMARK    4  A    between atoms: N_9  and  C_11
REMARK    5  A    between atoms: C_11  and  C_12
REMARK    6  A    between atoms: C_16  and  N_65
REMARK    7  A    between atoms: C_21  and  C_24
REMARK    8  A    between atoms: C_21  and  O_34
REMARK    9  A    between atoms: C_28  and  C_30
REMARK                            x       y       z     vdW  Elec       q    Type
REMARK                         _______ _______ _______ _____ _____    ______ ____
ROOT
ATOM      1  C   UNL     1      -0.198   0.944  -2.401  0.00  0.00    -0.075 C 
ATOM      2  C   UNL     1      -1.053   1.361  -3.600  0.00  0.00    +0.021 C 
ATOM      3  C   UNL     1      -1.023   2.886  -3.736  0.00  0.00    +0.088 C 
ATOM      4  C   UNL     1      -1.529   3.517  -2.436  0.00  0.00    +0.021 C 
ATOM      5  C   UNL     1      -0.660   3.037  -1.271  0.00  0.00    -0.075 C 
ATOM      6  N   UNL     1      -0.751   1.564  -1.179  0.00  0.00    +0.382 N 
ATOM      7  H   UNL     1      -1.739   1.296  -1.087  0.00  0.00    -0.081 HD
ENDROOT
BRANCH   6  15
ATOM      8  C   UNL     1      -0.286   1.110   3.821  0.00  0.00    +0.151 A 
ATOM      9  C   UNL     1       0.072   1.208   2.466  0.00  0.00    +0.004 A 
ATOM     10  C   UNL     1       1.410   0.997   2.418  0.00  0.00    +0.043 A 
ATOM     11  N   UNL     1       1.825   0.782   3.677  0.00  0.00    -0.264 N 
ATOM     12  N   UNL     1       0.826   0.851   4.488  0.00  0.00    -0.166 NA
ATOM     13  C   UNL     1       2.218   1.017   1.146  0.00  0.00    +0.054 C 
ATOM     14  C   UNL     1       1.386   1.706   0.056  0.00  0.00    -0.009 C 
ATOM     15  C   UNL     1      -0.013   1.086   0.008  0.00  0.00    -0.064 C 
ATOM     16  C   UNL     1      -0.793   1.484   1.268  0.00  0.00    +0.024 C 
BRANCH   8  20
ATOM     17  C   UNL     1      -3.175   1.296   6.283  0.00  0.00    +0.132 C 
ATOM     18  N   UNL     1      -1.831   1.143   5.718  0.00  0.00    -0.302 N 
ATOM     19  C   UNL     1      -0.696   0.856   6.599  0.00  0.00    +0.132 C 
ATOM     20  C   UNL     1      -1.640   1.265   4.390  0.00  0.00    +0.267 C 
ATOM     21  O   UNL     1      -2.582   1.503   3.660  0.00  0.00    -0.268 OA
ENDBRANCH   8  20
BRANCH  11  22
ATOM     22  C   UNL     1       3.209   0.509   4.071  0.00  0.00    +0.170 C 
BRANCH  22  23
ATOM     23  C   UNL     1       3.912   1.808   4.369  0.00  0.00    -0.012 C 
ATOM     24  C   UNL     1       4.498   1.986   5.527  0.00  0.00    +0.006 C 
ENDBRANCH  22  23
ENDBRANCH  11  22
ENDBRANCH   6  15
BRANCH   3  25
ATOM     25  C   UNL     1      -1.911   3.307  -4.878  0.00  0.00    -0.016 A 
ATOM     26  C   UNL     1      -3.248   3.579  -4.651  0.00  0.00    +0.006 A 
ATOM     27  C   UNL     1      -4.062   3.966  -5.699  0.00  0.00    +0.001 A 
ATOM     28  C   UNL     1      -3.541   4.081  -6.974  0.00  0.00    +0.012 A 
ATOM     29  C   UNL     1      -2.204   3.809  -7.201  0.00  0.00    +0.055 A 
ATOM     30  C   UNL     1      -1.389   3.427  -6.152  0.00  0.00    +0.018 A 
BRANCH  29  31
ATOM     31  C   UNL     1      -1.636   3.935  -8.591  0.00  0.00    +0.417 C 
ATOM     32  F   UNL     1      -2.644   4.337  -9.473  0.00  0.00    -0.166 F 
ATOM     33  F   UNL     1      -0.610   4.886  -8.591  0.00  0.00    -0.166 F 
ATOM     34  F   UNL     1      -1.125   2.698  -8.999  0.00  0.00    -0.166 F 
ENDBRANCH  29  31
ENDBRANCH   3  25
BRANCH   3  35
ATOM     35  O   UNL     1       0.316   3.317  -3.987  0.00  0.00    -0.384 OA
ATOM     36  H   UNL     1       0.700   2.955  -4.797  0.00  0.00    +0.211 HD
ENDBRANCH   3  35
TORSDOF 7
