REMARK  Name = ZINC55739187
REMARK  5 active torsions:
REMARK  status: ('A' for Active; 'I' for Inactive)
REMARK    1  A    between atoms: C_1  and  N_2
REMARK    2  A    between atoms: N_2  and  C_3
REMARK    3  A    between atoms: C_3  and  C_4
REMARK    4  A    between atoms: N_6  and  C_7
REMARK    5  A    between atoms: C_18  and  C_20
REMARK                            x       y       z     vdW  Elec       q    Type
REMARK                         _______ _______ _______ _____ _____    ______ ____
ROOT
ATOM      1  C   UNL     1      -1.232  -1.048   1.826  0.00  0.00    +0.231 C 
ATOM      2  O   UNL     1      -2.229  -0.690   1.236  0.00  0.00    -0.274 OA
ATOM      3  N   UNL     1      -1.343  -1.723   2.987  0.00  0.00    -0.307 N 
ATOM      4  H   UNL     1      -0.545  -2.010   3.459  0.00  0.00    +0.149 HD
ENDROOT
BRANCH   3   5
ATOM      5  C   UNL     1      -2.667  -2.025   3.537  0.00  0.00    +0.104 C 
ATOM      6  C   UNL     1      -2.578  -2.243   5.062  0.00  0.00    +0.032 C 
ATOM      7  C   UNL     1      -2.384  -3.771   5.167  0.00  0.00    +0.037 C 
ATOM      8  C   UNL     1      -3.019  -4.338   3.915  0.00  0.00    -0.041 A 
ATOM      9  C   UNL     1      -3.183  -3.333   2.976  0.00  0.00    -0.024 A 
ATOM     10  C   UNL     1      -3.749  -3.621   1.746  0.00  0.00    +0.007 A 
ATOM     11  C   UNL     1      -4.152  -4.908   1.450  0.00  0.00    +0.020 A 
ATOM     12  C   UNL     1      -3.990  -5.914   2.385  0.00  0.00    +0.041 A 
ATOM     13  C   UNL     1      -3.423  -5.628   3.620  0.00  0.00    +0.024 A 
ATOM     14 CL   UNL     1      -4.496  -7.533   2.017  0.00  0.00    -0.084 Cl
ENDBRANCH   3   5
BRANCH   1  15
ATOM     15  C   UNL     1       0.130  -0.738   1.261  0.00  0.00    +0.203 C 
BRANCH  15  17
ATOM     16  C   UNL     1      -0.078   1.461   0.013  0.00  0.00    +0.133 C 
ATOM     17  N   UNL     1      -0.019  -0.003   0.003  0.00  0.00    -0.291 N 
ATOM     18  C   UNL     1      -0.102  -0.673  -1.163  0.00  0.00    +0.253 C 
ATOM     19  O   UNL     1      -0.158  -1.889  -1.164  0.00  0.00    -0.269 OA
BRANCH  18  20
ATOM     20  C   UNL     1      -0.124   0.062  -2.431  0.00  0.00    +0.074 A 
ATOM     21  C   UNL     1      -0.322  -0.418  -3.717  0.00  0.00    +0.021 A 
ATOM     22  C   UNL     1      -0.288   0.524  -4.717  0.00  0.00    +0.008 A 
ATOM     23  C   UNL     1      -0.069   1.822  -4.394  0.00  0.00    +0.046 A 
ATOM     24  S   UNL     1       0.089   1.808  -2.721  0.00  0.00    -0.092 S 
ENDBRANCH  18  20
ENDBRANCH  15  17
ENDBRANCH   1  15
TORSDOF 4
