REMARK  Name = ZINC34870928
REMARK  7 active torsions:
REMARK  status: ('A' for Active; 'I' for Inactive)
REMARK    1  A    between atoms: C_1  and  C_2
REMARK    2  A    between atoms: C_2  and  C_4
REMARK    3  A    between atoms: C_2  and  N_11
REMARK    4  A    between atoms: C_12  and  C_14
REMARK    5  A    between atoms: C_26  and  C_28
REMARK    6  A    between atoms: C_33  and  O_34
REMARK    7  A    between atoms: O_34  and  C_35
REMARK                            x       y       z     vdW  Elec       q    Type
REMARK                         _______ _______ _______ _____ _____    ______ ____
ROOT
ATOM      1  C   UNL     1       2.861  -0.990   3.080  0.00  0.00    +0.163 C 
ATOM      2  C   UNL     1       2.813  -2.493   3.433  0.00  0.00    +0.037 C 
ATOM      3  C   UNL     1       4.308  -2.824   3.727  0.00  0.00    +0.012 C 
ATOM      4  C   UNL     1       4.595  -2.327   5.145  0.00  0.00    +0.005 C 
ATOM      5  C   UNL     1       6.099  -2.218   5.384  0.00  0.00    +0.000 C 
ATOM      6  C   UNL     1       6.679  -1.191   4.405  0.00  0.00    +0.002 C 
ATOM      7  C   UNL     1       6.471  -1.709   2.982  0.00  0.00    +0.023 C 
ATOM      8  C   UNL     1       5.003  -1.940   2.675  0.00  0.00    +0.080 C 
ATOM      9  N   UNL     1       4.236  -0.687   2.640  0.00  0.00    -0.283 N 
ATOM     10  C   UNL     1       4.702   0.522   2.272  0.00  0.00    +0.251 C 
ATOM     11  O   UNL     1       5.878   0.664   2.002  0.00  0.00    -0.270 OA
ENDROOT
BRANCH  10  12
ATOM     12  C   UNL     1       3.783   1.675   2.197  0.00  0.00    +0.078 A 
ATOM     13  C   UNL     1       2.917   1.954   3.257  0.00  0.00    +0.017 A 
ATOM     14  C   UNL     1       2.063   3.032   3.181  0.00  0.00    +0.001 A 
ATOM     15  C   UNL     1       2.058   3.842   2.057  0.00  0.00    +0.004 A 
ATOM     16  C   UNL     1       2.908   3.578   1.002  0.00  0.00    +0.046 A 
ATOM     17  C   UNL     1       3.779   2.500   1.064  0.00  0.00    +0.132 A 
BRANCH  17  18
ATOM     18  O   UNL     1       4.619   2.242   0.031  0.00  0.00    -0.494 OA
ATOM     19  C   UNL     1       4.559   3.126  -1.090  0.00  0.00    +0.277 C 
ENDBRANCH  17  18
ENDBRANCH  10  12
BRANCH   1  21
ATOM     20  N   UNL     1       0.579  -0.540   2.239  0.00  0.00    -0.307 N 
ATOM     21  C   UNL     1       1.890  -0.693   1.966  0.00  0.00    +0.234 C 
ATOM     22  O   UNL     1       2.288  -0.593   0.825  0.00  0.00    -0.274 OA
ATOM     23  H   UNL     1       0.261  -0.620   3.152  0.00  0.00    +0.149 HD
BRANCH  20  25
ATOM     24  C   UNL     1      -0.394   1.256   0.893  0.00  0.00    +0.033 C 
ATOM     25  C   UNL     1      -0.365  -0.251   1.157  0.00  0.00    +0.103 C 
BRANCH  25  26
ATOM     26  C   UNL     1      -1.742  -0.718   1.554  0.00  0.00    +0.008 A 
ATOM     27  C   UNL     1      -2.079  -0.819   2.891  0.00  0.00    +0.008 A 
ATOM     28  C   UNL     1      -3.342  -1.247   3.255  0.00  0.00    +0.000 A 
ATOM     29  C   UNL     1      -4.269  -1.574   2.283  0.00  0.00    +0.003 A 
ATOM     30  C   UNL     1      -3.935  -1.474   0.947  0.00  0.00    +0.039 A 
ATOM     31  C   UNL     1      -2.672  -1.040   0.580  0.00  0.00    +0.128 A 
ATOM     32  F   UNL     1      -2.345  -0.937  -0.727  0.00  0.00    -0.205 F 
ENDBRANCH  25  26
ENDBRANCH  20  25
ENDBRANCH   1  21
TORSDOF 5
