REMARK  Name = ZINC17653540
REMARK  9 active torsions:
REMARK  status: ('A' for Active; 'I' for Inactive)
REMARK    1  A    between atoms: C_1  and  C_2
REMARK    2  A    between atoms: C_5  and  C_8
REMARK    3  A    between atoms: C_8  and  C_10
REMARK    4  A    between atoms: C_8  and  N_15
REMARK    5  A    between atoms: C_16  and  C_18
REMARK    6  A    between atoms: C_18  and  S_19
REMARK    7  A    between atoms: S_19  and  C_20
REMARK    8  A    between atoms: C_23  and  C_26
REMARK    9  A    between atoms: N_24  and  N_25
REMARK                            x       y       z     vdW  Elec       q    Type
REMARK                         _______ _______ _______ _____ _____    ______ ____
ROOT
ATOM      1  N   UNL     1      -0.117   1.069  -1.875  0.00  0.00    -0.303 N 
ATOM      2  C   UNL     1      -1.271   0.469  -2.231  0.00  0.00    +0.224 C 
ATOM      3  O   UNL     1      -1.610  -0.563  -1.692  0.00  0.00    -0.275 OA
ATOM      4  H   UNL     1       0.153   1.894  -2.307  0.00  0.00    +0.150 HD
ENDROOT
BRANCH   1   5
ATOM      5  C   UNL     1       0.727   0.473  -0.837  0.00  0.00    +0.140 C 
BRANCH   5  10
ATOM      6  C   UNL     1       6.197   2.175  -1.595  0.00  0.00    +0.044 C 
ATOM      7  C   UNL     1       4.771   1.732  -1.397  0.00  0.00    -0.050 A 
ATOM      8  C   UNL     1       4.497   0.428  -1.026  0.00  0.00    +0.004 A 
ATOM      9  C   UNL     1       3.189   0.021  -0.845  0.00  0.00    +0.006 A 
ATOM     10  C   UNL     1       2.154   0.917  -1.034  0.00  0.00    -0.022 A 
ATOM     11  C   UNL     1       2.427   2.219  -1.409  0.00  0.00    +0.006 A 
ATOM     12  C   UNL     1       3.736   2.628  -1.586  0.00  0.00    +0.004 A 
ENDBRANCH   5  10
BRANCH   5  13
ATOM     13  C   UNL     1       0.245   0.919   0.519  0.00  0.00    +0.014 A 
ATOM     14  C   UNL     1       0.144   0.205   1.667  0.00  0.00    +0.013 A 
ATOM     15  C   UNL     1      -0.330   0.829   2.805  0.00  0.00    +0.008 A 
ATOM     16  C   UNL     1      -0.679   2.137   2.741  0.00  0.00    +0.045 A 
ATOM     17  S   UNL     1      -0.333   2.528   1.034  0.00  0.00    -0.099 S 
ENDBRANCH   5  13
ENDBRANCH   1   5
BRANCH   2  18
ATOM     18  C   UNL     1      -2.140   1.082  -3.300  0.00  0.00    +0.173 C 
BRANCH  18  19
ATOM     19  S   UNL     1      -3.606   0.050  -3.549  0.00  0.00    -0.075 S 
BRANCH  19  20
ATOM     20  C   UNL     1      -4.418   0.973  -4.811  0.00  0.00    +0.209 A 
ATOM     21  N   UNL     1      -3.996   2.095  -5.351  0.00  0.00    -0.121 NA
ATOM     22  N   UNL     1      -4.829   2.496  -6.244  0.00  0.00    -0.127 NA
ATOM     23  C   UNL     1      -5.839   1.661  -6.322  0.00  0.00    +0.183 A 
ATOM     24  N   UNL     1      -5.607   0.660  -5.407  0.00  0.00    -0.224 N 
BRANCH  23  25
ATOM     25  C   UNL     1      -7.005   1.775  -7.223  0.00  0.00    +0.039 A 
ATOM     26  C   UNL     1      -8.297   1.595  -6.723  0.00  0.00    +0.013 A 
ATOM     27  C   UNL     1      -9.381   1.704  -7.569  0.00  0.00    +0.001 A 
ATOM     28  C   UNL     1      -9.192   1.989  -8.910  0.00  0.00    +0.001 A 
ATOM     29  C   UNL     1      -7.915   2.168  -9.412  0.00  0.00    +0.021 A 
ATOM     30  C   UNL     1      -6.821   2.067  -8.576  0.00  0.00    +0.052 A 
ATOM     31 CL   UNL     1      -5.220   2.299  -9.206  0.00  0.00    -0.083 Cl
ENDBRANCH  23  25
BRANCH  24  32
ATOM     32  N   UNL     1      -6.400  -0.421  -5.147  0.00  0.00    -0.295 N 
ATOM     33  H   UNL     1      -7.124  -0.188  -4.484  0.00  0.00    +0.163 HD
ATOM     34  H   UNL     1      -6.796  -0.792  -5.998  0.00  0.00    +0.163 HD
ENDBRANCH  24  32
ENDBRANCH  19  20
ENDBRANCH  18  19
ENDBRANCH   2  18
TORSDOF 8
