REMARK  Name = ZINC16534139
REMARK  6 active torsions:
REMARK  status: ('A' for Active; 'I' for Inactive)
REMARK    1  A    between atoms: C_4  and  C_7
REMARK    2  A    between atoms: C_8  and  C_19
REMARK    3  A    between atoms: C_9  and  O_18
REMARK    4  A    between atoms: N_10  and  C_12
REMARK    5  A    between atoms: N_23  and  C_27
REMARK    6  A    between atoms: C_27  and  C_28
REMARK                            x       y       z     vdW  Elec       q    Type
REMARK                         _______ _______ _______ _____ _____    ______ ____
ROOT
ATOM      1  C   UNL     1       3.212   2.457  -0.636  0.00  0.00    +0.104 A 
ATOM      2  C   UNL     1       1.954   1.881  -1.130  0.00  0.00    +0.066 A 
ATOM      3  C   UNL     1       1.218   1.530  -0.001  0.00  0.00    +0.224 A 
ATOM      4  N   UNL     1       1.950   1.864   1.082  0.00  0.00    -0.200 N 
ATOM      5  N   UNL     1       3.164   2.423   0.676  0.00  0.00    -0.163 NA
ENDROOT
BRANCH   2   6
ATOM      6  C   UNL     1       1.555   1.711  -2.526  0.00  0.00    +0.044 C 
ATOM      7  C   UNL     1       1.092   0.506  -2.960  0.00  0.00    +0.099 C 
ATOM      8  C   UNL     1       0.666   0.176  -4.274  0.00  0.00    +0.269 C 
ATOM      9  O   UNL     1       0.646   0.922  -5.236  0.00  0.00    -0.268 OA
ATOM     10  N   UNL     1       0.290  -1.117  -4.255  0.00  0.00    -0.216 N 
ATOM     11  C   UNL     1       0.453  -1.616  -3.018  0.00  0.00    +0.313 C 
ATOM     12  O   UNL     1       0.200  -2.759  -2.687  0.00  0.00    -0.252 OA
ATOM     13  N   UNL     1       0.943  -0.665  -2.200  0.00  0.00    -0.265 N 
ATOM     14  H   UNL     1       1.153  -0.770  -1.259  0.00  0.00    +0.157 HD
BRANCH  10  15
ATOM     15  C   UNL     1      -0.217  -1.866  -5.407  0.00  0.00    +0.153 C 
BRANCH  15  16
ATOM     16  C   UNL     1       0.934  -2.512  -6.133  0.00  0.00    -0.028 A 
ATOM     17  C   UNL     1       1.346  -3.784  -5.781  0.00  0.00    +0.005 A 
ATOM     18  C   UNL     1       2.402  -4.378  -6.446  0.00  0.00    +0.002 A 
ATOM     19  C   UNL     1       3.047  -3.701  -7.464  0.00  0.00    +0.020 A 
ATOM     20  C   UNL     1       2.635  -2.428  -7.816  0.00  0.00    +0.041 A 
ATOM     21  C   UNL     1       1.575  -1.836  -7.154  0.00  0.00    +0.025 A 
ATOM     22 CL   UNL     1       3.445  -1.577  -9.095  0.00  0.00    -0.084 Cl
ENDBRANCH  15  16
ENDBRANCH  10  15
ENDBRANCH   2   6
BRANCH   1  26
ATOM     23  C   UNL     1       6.405   3.956  -3.008  0.00  0.00    +0.000 A 
ATOM     24  C   UNL     1       6.100   4.561  -1.802  0.00  0.00    +0.001 A 
ATOM     25  C   UNL     1       5.064   4.079  -1.028  0.00  0.00    +0.010 A 
ATOM     26  C   UNL     1       4.325   2.980  -1.463  0.00  0.00    +0.003 A 
ATOM     27  C   UNL     1       4.641   2.371  -2.677  0.00  0.00    +0.010 A 
ATOM     28  C   UNL     1       5.676   2.865  -3.445  0.00  0.00    +0.001 A 
ENDBRANCH   1  26
BRANCH   4  29
ATOM     29  C   UNL     1       1.554   1.676   2.413  0.00  0.00    +0.069 A 
ATOM     30  C   UNL     1       0.220   1.823   2.769  0.00  0.00    +0.028 A 
ATOM     31  C   UNL     1      -0.169   1.631   4.080  0.00  0.00    +0.002 A 
ATOM     32  C   UNL     1       0.771   1.304   5.040  0.00  0.00    +0.000 A 
ATOM     33  C   UNL     1       2.101   1.163   4.690  0.00  0.00    +0.002 A 
ATOM     34  C   UNL     1       2.495   1.348   3.379  0.00  0.00    +0.028 A 
ENDBRANCH   4  29
BRANCH   3  35
ATOM     35  O   UNL     1      -0.011   0.963   0.007  0.00  0.00    -0.492 OA
ATOM     36  H   UNL     1       0.002  -0.004   0.002  0.00  0.00    +0.294 HD
ENDBRANCH   3  35
TORSDOF 6
