REMARK  Name = ZINC00976960
REMARK  17 active torsions:
REMARK  status: ('A' for Active; 'I' for Inactive)
REMARK    1  A    between atoms: C_1  and  C_2
REMARK    2  A    between atoms: C_2  and  C_3
REMARK    3  A    between atoms: C_3  and  C_5
REMARK    4  A    between atoms: C_3  and  O_6
REMARK    5  A    between atoms: O_6  and  C_7
REMARK    6  A    between atoms: C_7  and  C_9
REMARK    7  A    between atoms: C_10  and  C_42
REMARK    8  A    between atoms: C_14  and  C_16
REMARK    9  A    between atoms: C_19  and  O_25
REMARK   10  A    between atoms: C_20  and  O_22
REMARK   11  A    between atoms: O_22  and  C_23
REMARK   12  A    between atoms: C_23  and  C_24
REMARK   13  A    between atoms: C_29  and  C_32
REMARK   14  A    between atoms: C_35  and  O_40
REMARK   15  A    between atoms: C_36  and  O_38
REMARK   16  A    between atoms: O_38  and  C_39
REMARK   17  A    between atoms: O_40  and  C_41
REMARK                            x       y       z     vdW  Elec       q    Type
REMARK                         _______ _______ _______ _____ _____    ______ ____
ROOT
ATOM      1  C   UNL     1      -4.127   0.256   2.418  0.00  0.00    +0.065 C 
ATOM      2  C   UNL     1      -5.404   0.664   2.327  0.00  0.00    +0.016 C 
ATOM      3  N   UNL     1      -6.056   1.151   3.426  0.00  0.00    -0.321 N 
ATOM      4  C   UNL     1      -5.353   1.602   4.511  0.00  0.00    +0.016 C 
ATOM      5  C   UNL     1      -4.067   1.236   4.695  0.00  0.00    +0.024 C 
ATOM      6  C   UNL     1      -3.384   0.307   3.720  0.00  0.00    +0.092 C 
ATOM      7  C   UNL     1      -3.329   1.706   5.796  0.00  0.00    +0.162 C 
ATOM      8  O   UNL     1      -2.176   1.351   5.936  0.00  0.00    -0.292 OA
ATOM      9  C   UNL     1      -3.942   2.639   6.804  0.00  0.00    +0.088 C 
ATOM     10  C   UNL     1      -5.033   3.468   6.117  0.00  0.00    +0.032 C 
ATOM     11  C   UNL     1      -6.050   2.511   5.493  0.00  0.00    +0.059 C 
ATOM     12  C   UNL     1      -6.123   0.585   1.005  0.00  0.00    +0.061 C 
ATOM     13  H   UNL     1      -7.025   1.176   3.437  0.00  0.00    +0.152 HD
ENDROOT
BRANCH   6  14
ATOM     14  C   UNL     1      -3.322  -1.079   4.310  0.00  0.00    -0.032 A 
ATOM     15  C   UNL     1      -4.492  -1.754   4.607  0.00  0.00    +0.008 A 
ATOM     16  C   UNL     1      -4.441  -3.025   5.149  0.00  0.00    +0.049 A 
ATOM     17  C   UNL     1      -3.216  -3.625   5.394  0.00  0.00    +0.158 A 
ATOM     18  C   UNL     1      -2.039  -2.946   5.094  0.00  0.00    +0.162 A 
ATOM     19  C   UNL     1      -2.097  -1.674   4.547  0.00  0.00    +0.054 A 
BRANCH  17  20
ATOM     20  O   UNL     1      -3.164  -4.875   5.926  0.00  0.00    -0.503 OA
ATOM     21  H   UNL     1      -3.157  -5.583   5.268  0.00  0.00    +0.292 HD
ENDBRANCH  17  20
BRANCH  18  22
ATOM     22  O   UNL     1      -0.835  -3.530   5.333  0.00  0.00    -0.489 OA
BRANCH  22  23
ATOM     23  C   UNL     1       0.331  -2.774   5.001  0.00  0.00    +0.226 C 
ATOM     24  C   UNL     1       1.581  -3.589   5.337  0.00  0.00    +0.048 C 
ENDBRANCH  22  23
ENDBRANCH  18  22
ENDBRANCH   6  14
BRANCH  10  25
ATOM     25  C   UNL     1      -5.716   4.346   7.134  0.00  0.00    -0.040 A 
ATOM     26  C   UNL     1      -6.358   3.776   8.218  0.00  0.00    +0.008 A 
ATOM     27  C   UNL     1      -6.986   4.577   9.153  0.00  0.00    +0.049 A 
ATOM     28  C   UNL     1      -6.973   5.955   9.005  0.00  0.00    +0.161 A 
ATOM     29  C   UNL     1      -6.327   6.529   7.915  0.00  0.00    +0.162 A 
ATOM     30  C   UNL     1      -5.695   5.720   6.984  0.00  0.00    +0.053 A 
BRANCH  29  31
ATOM     31  O   UNL     1      -6.312   7.881   7.765  0.00  0.00    -0.491 OA
ATOM     32  C   UNL     1      -5.630   8.399   6.622  0.00  0.00    +0.277 C 
ENDBRANCH  29  31
BRANCH  28  33
ATOM     33  O   UNL     1      -7.591   6.745   9.924  0.00  0.00    -0.491 OA
ATOM     34  C   UNL     1      -8.234   6.087  11.017  0.00  0.00    +0.277 C 
ENDBRANCH  28  33
ENDBRANCH  10  25
BRANCH   1  35
ATOM     35  C   UNL     1      -3.472  -0.237   1.265  0.00  0.00    +0.338 C 
ATOM     36  O   UNL     1      -2.638   0.445   0.700  0.00  0.00    -0.245 OA
BRANCH  35  37
ATOM     37  O   UNL     1      -3.773  -1.464   0.791  0.00  0.00    -0.458 OA
BRANCH  37  38
ATOM     38  C   UNL     1      -3.074  -1.898  -0.377  0.00  0.00    +0.173 C 
ATOM     39  C   UNL     1      -3.855  -1.480  -1.624  0.00  0.00    +0.052 C 
BRANCH  38  41
ATOM     40  C   UNL     1      -2.046  -3.831   0.827  0.00  0.00    +0.007 C 
ATOM     41  C   UNL     1      -2.933  -3.421  -0.351  0.00  0.00    +0.041 C 
ENDBRANCH  38  41
ENDBRANCH  37  38
ENDBRANCH  35  37
ENDBRANCH   1  35
TORSDOF 11
