REMARK  Name = ZINC39223212
REMARK  10 active torsions:
REMARK  status: ('A' for Active; 'I' for Inactive)
REMARK    1  A    between atoms: C_1  and  C_2
REMARK    2  A    between atoms: C_2  and  C_3
REMARK    3  A    between atoms: C_2  and  C_4
REMARK    4  A    between atoms: C_2  and  C_5
REMARK    5  A    between atoms: C_8  and  C_10
REMARK    6  A    between atoms: C_12  and  C_37
REMARK    7  A    between atoms: C_13  and  N_36
REMARK    8  A    between atoms: N_14  and  N_22
REMARK    9  A    between atoms: N_22  and  C_23
REMARK   10  A    between atoms: C_24  and  C_30
REMARK                            x       y       z     vdW  Elec       q    Type
REMARK                         _______ _______ _______ _____ _____    ______ ____
ROOT
ATOM      1  C   UNL     1       1.947  -2.716  -4.735  0.00  0.00    +0.104 C 
ATOM      2  C   UNL     1       0.984  -1.976  -5.617  0.00  0.00    +0.079 C 
ATOM      3  C   UNL     1      -0.171  -2.555  -6.035  0.00  0.00    +0.119 C 
ATOM      4  N   UNL     1      -0.472  -3.843  -5.660  0.00  0.00    -0.211 N 
ATOM      5  C   UNL     1       0.511  -4.688  -5.222  0.00  0.00    +0.039 C 
ATOM      6  C   UNL     1       1.685  -4.200  -4.770  0.00  0.00    +0.027 C 
ATOM      7  C   UNL     1       2.699  -5.061  -4.315  0.00  0.00    +0.162 C 
ATOM      8  O   UNL     1       3.751  -4.592  -3.928  0.00  0.00    -0.292 OA
ATOM      9  C   UNL     1       2.506  -6.553  -4.300  0.00  0.00    +0.080 C 
ATOM     10  C   UNL     1       1.014  -6.861  -4.132  0.00  0.00    +0.014 C 
ATOM     11  C   UNL     1       0.250  -6.174  -5.262  0.00  0.00    +0.053 C 
ENDROOT
BRANCH   1  15
ATOM     12  C   UNL     1       1.095  -1.490  -0.821  0.00  0.00    -0.005 A 
ATOM     13  C   UNL     1       2.361  -1.250  -1.243  0.00  0.00    +0.012 A 
ATOM     14  C   UNL     1       2.723  -1.625  -2.524  0.00  0.00    +0.012 A 
ATOM     15  C   UNL     1       1.801  -2.221  -3.319  0.00  0.00    +0.003 A 
ATOM     16  S   UNL     1       0.371  -2.273  -2.252  0.00  0.00    -0.097 S 
BRANCH  12  18
ATOM     17  C   UNL     1       0.514   0.329   0.762  0.00  0.00    +0.016 C 
ATOM     18  C   UNL     1       0.465  -1.180   0.513  0.00  0.00    -0.006 C 
ATOM     19  C   UNL     1       1.233  -1.905   1.620  0.00  0.00    +0.016 C 
ATOM     20  C   UNL     1      -0.991  -1.650   0.510  0.00  0.00    +0.016 C 
ENDBRANCH  12  18
ENDBRANCH   1  15
BRANCH   3  21
ATOM     21  N   UNL     1      -1.040  -1.853  -6.835  0.00  0.00    -0.344 N 
ATOM     22  H   UNL     1      -0.829  -0.944  -7.100  0.00  0.00    +0.144 HD
ATOM     23  H   UNL     1      -1.865  -2.266  -7.134  0.00  0.00    +0.144 HD
ENDBRANCH   3  21
BRANCH   4  24
ATOM     24  N   UNL     1      -1.797  -4.294  -5.726  0.00  0.00    -0.260 N 
ATOM     25  H   UNL     1      -2.328  -4.360  -4.917  0.00  0.00    +0.170 HD
BRANCH  24  26
ATOM     26  C   UNL     1      -2.334  -4.637  -6.916  0.00  0.00    +0.059 C 
ATOM     27  C   UNL     1      -3.676  -4.989  -7.042  0.00  0.00    +0.110 C 
ATOM     28  N   UNL     1      -4.190  -5.324  -8.217  0.00  0.00    -0.155 NA
ATOM     29  N   UNL     1      -3.560  -5.365  -9.326  0.00  0.00    -0.080 NA
ATOM     30  C   UNL     1      -2.258  -5.067  -9.448  0.00  0.00    +0.260 C 
ATOM     31  O   UNL     1      -1.699  -5.120 -10.525  0.00  0.00    -0.272 OA
ATOM     32  C   UNL     1      -1.510  -4.654  -8.193  0.00  0.00    +0.153 C 
BRANCH  27  33
ATOM     33  C   UNL     1      -4.544  -4.990  -5.840  0.00  0.00    +0.003 A 
ATOM     34  C   UNL     1      -4.551  -3.892  -4.980  0.00  0.00    +0.010 A 
ATOM     35  C   UNL     1      -5.361  -3.899  -3.863  0.00  0.00    +0.001 A 
ATOM     36  C   UNL     1      -6.166  -4.992  -3.596  0.00  0.00    +0.000 A 
ATOM     37  C   UNL     1      -6.164  -6.084  -4.445  0.00  0.00    +0.001 A 
ATOM     38  C   UNL     1      -5.361  -6.086  -5.568  0.00  0.00    +0.010 A 
ENDBRANCH  27  33
ENDBRANCH  24  26
ENDBRANCH   4  24
BRANCH   2  39
ATOM     39  C   UNL     1       1.288  -0.637  -6.023  0.00  0.00    +0.099 C 
ATOM     40  N   UNL     1       1.529   0.426  -6.345  0.00  0.00    -0.191 NA
ENDBRANCH   2  39
TORSDOF 7
