REMARK  Name = ZINC44852607
REMARK  9 active torsions:
REMARK  status: ('A' for Active; 'I' for Inactive)
REMARK    1  A    between atoms: C_1  and  C_2
REMARK    2  A    between atoms: C_7  and  O_8
REMARK    3  A    between atoms: O_8  and  C_9
REMARK    4  A    between atoms: C_9  and  C_10
REMARK    5  A    between atoms: C_10  and  C_12
REMARK    6  A    between atoms: C_10  and  N_13
REMARK    7  A    between atoms: C_14  and  C_16
REMARK    8  A    between atoms: N_19  and  C_22
REMARK    9  A    between atoms: C_22  and  C_23
REMARK                            x       y       z     vdW  Elec       q    Type
REMARK                         _______ _______ _______ _____ _____    ______ ____
ROOT
ATOM      1  C   UNL     1      -2.971   2.083   6.069  0.00  0.00    +0.071 C 
ATOM      2  C   UNL     1      -2.861   3.337   5.197  0.00  0.00    -0.006 C 
ATOM      3  C   UNL     1      -4.152   4.149   5.316  0.00  0.00    -0.078 C 
ATOM      4  N   UNL     1      -4.361   4.541   6.715  0.00  0.00    +0.382 N 
ATOM      5  C   UNL     1      -4.540   3.345   7.546  0.00  0.00    -0.078 C 
ATOM      6  C   UNL     1      -3.263   2.501   7.513  0.00  0.00    -0.006 C 
ATOM      7  H   UNL     1      -3.559   5.060   7.041  0.00  0.00    -0.081 HD
ENDROOT
BRANCH   1   9
ATOM      8  N   UNL     1      -1.214   0.848   4.843  0.00  0.00    -0.309 N 
ATOM      9  C   UNL     1      -1.674   1.318   6.019  0.00  0.00    +0.216 C 
ATOM     10  O   UNL     1      -1.043   1.126   7.037  0.00  0.00    -0.276 OA
ATOM     11  H   UNL     1      -1.719   1.001   4.028  0.00  0.00    +0.149 HD
BRANCH   8  12
ATOM     12  C   UNL     1       0.047   0.104   4.793  0.00  0.00    +0.107 C 
ATOM     13  C   UNL     1       1.215   1.087   4.689  0.00  0.00    +0.031 C 
BRANCH  12  14
ATOM     14  C   UNL     1       0.048  -0.820   3.574  0.00  0.00    +0.251 C 
BRANCH  14  15
ATOM     15  O   UNL     1       0.025  -0.033   2.381  0.00  0.00    -0.490 OA
BRANCH  15  22
ATOM     16  C   UNL     1      -0.018   1.503   0.010  0.00  0.00    +0.047 C 
ATOM     17  C   UNL     1       0.002  -0.004   0.002  0.00  0.00    -0.009 A 
ATOM     18  C   UNL     1       0.006  -0.689  -1.198  0.00  0.00    +0.007 A 
ATOM     19  C   UNL     1       0.024  -2.071  -1.206  0.00  0.00    +0.000 A 
ATOM     20  C   UNL     1       0.039  -2.772  -0.014  0.00  0.00    +0.004 A 
ATOM     21  C   UNL     1       0.036  -2.092   1.188  0.00  0.00    +0.046 A 
ATOM     22  C   UNL     1       0.023  -0.705   1.199  0.00  0.00    +0.123 A 
ENDBRANCH  15  22
ENDBRANCH  14  15
ENDBRANCH  12  14
ENDBRANCH   8  12
ENDBRANCH   1   9
BRANCH   4  23
ATOM     23  C   UNL     1      -5.559   5.386   6.811  0.00  0.00    -0.042 C 
BRANCH  23  24
ATOM     24  C   UNL     1      -5.706   5.890   8.224  0.00  0.00    -0.056 A 
ATOM     25  C   UNL     1      -6.574   5.284   9.080  0.00  0.00    +0.002 A 
ATOM     26  C   UNL     1      -6.723   5.735  10.389  0.00  0.00    +0.001 A 
ATOM     27  C   UNL     1      -6.006   6.796  10.851  0.00  0.00    +0.008 A 
ATOM     28  C   UNL     1      -5.100   7.447   9.996  0.00  0.00    -0.018 A 
ATOM     29  C   UNL     1      -4.944   6.984   8.666  0.00  0.00    -0.017 A 
ATOM     30  C   UNL     1      -4.034   7.632   7.813  0.00  0.00    +0.009 A 
ATOM     31  C   UNL     1      -3.312   8.689   8.277  0.00  0.00    +0.001 A 
ATOM     32  C   UNL     1      -3.461   9.140   9.587  0.00  0.00    +0.001 A 
ATOM     33  C   UNL     1      -4.343   8.546  10.437  0.00  0.00    +0.008 A 
ENDBRANCH  23  24
ENDBRANCH   4  23
TORSDOF 7
