REMARK  Name = ZINC10440292
REMARK  9 active torsions:
REMARK  status: ('A' for Active; 'I' for Inactive)
REMARK    1  A    between atoms: C_1  and  C_2
REMARK    2  A    between atoms: C_2  and  C_3
REMARK    3  A    between atoms: C_10  and  C_12
REMARK    4  A    between atoms: C_15  and  S_18
REMARK    5  A    between atoms: N_16  and  C_17
REMARK    6  A    between atoms: S_18  and  C_19
REMARK    7  A    between atoms: C_19  and  C_20
REMARK    8  A    between atoms: N_22  and  C_23
REMARK    9  A    between atoms: C_23  and  C_29
REMARK                            x       y       z     vdW  Elec       q    Type
REMARK                         _______ _______ _______ _____ _____    ______ ____
ROOT
ATOM      1  C   UNL     1      -4.451   5.745   0.053  0.00  0.00    +0.171 A 
ATOM      2  N   UNL     1      -4.814   4.481   0.048  0.00  0.00    -0.128 NA
ATOM      3  N   UNL     1      -3.774   3.726   0.034  0.00  0.00    -0.122 NA
ATOM      4  C   UNL     1      -2.683   4.458   0.039  0.00  0.00    +0.192 A 
ATOM      5  N   UNL     1      -3.074   5.769   0.048  0.00  0.00    -0.305 N 
ATOM      6  C   UNL     1      -2.209   6.951   0.051  0.00  0.00    +0.153 C 
ENDROOT
BRANCH   1  13
ATOM      7  C   UNL     1      -9.135   9.821  -0.718  0.00  0.00    -0.007 C 
ATOM      8  C   UNL     1      -8.592  10.700   0.412  0.00  0.00    +0.009 C 
ATOM      9  C   UNL     1      -7.057  10.695   0.347  0.00  0.00    +0.043 C 
ATOM     10  C   UNL     1      -6.598   9.280   0.202  0.00  0.00    -0.006 A 
ATOM     11  C   UNL     1      -7.349   8.194  -0.138  0.00  0.00    -0.036 A 
ATOM     12  C   UNL     1      -6.687   6.975  -0.211  0.00  0.00    +0.023 A 
ATOM     13  C   UNL     1      -5.347   6.912   0.064  0.00  0.00    +0.057 A 
ATOM     14  S   UNL     1      -4.968   8.620   0.430  0.00  0.00    -0.090 S 
ATOM     15  C   UNL     1      -8.840   8.350  -0.424  0.00  0.00    +0.039 C 
BRANCH   7  17
ATOM     16  C   UNL     1     -11.171   9.253  -2.050  0.00  0.00    +0.004 C 
ATOM     17  C   UNL     1     -10.647  10.022  -0.836  0.00  0.00    +0.000 C 
ENDBRANCH   7  17
ENDBRANCH   1  13
BRANCH   4  18
ATOM     18  S   UNL     1      -1.025   3.863   0.028  0.00  0.00    -0.077 S 
BRANCH  18  19
ATOM     19  C   UNL     1      -1.331   2.079   0.020  0.00  0.00    +0.173 C 
BRANCH  19  20
ATOM     20  C   UNL     1      -0.016   1.344   0.009  0.00  0.00    +0.224 C 
ATOM     21  O   UNL     1       1.026   1.964   0.003  0.00  0.00    -0.275 OA
ATOM     22  N   UNL     1       0.002  -0.004   0.002  0.00  0.00    -0.297 N 
ATOM     23  H   UNL     1      -0.831  -0.500   0.007  0.00  0.00    +0.150 HD
BRANCH  22  24
ATOM     24  C   UNL     1       1.281  -0.719  -0.014  0.00  0.00    +0.121 C 
ATOM     25  C   UNL     1       2.066  -0.332  -1.269  0.00  0.00    +0.041 C 
ATOM     26  C   UNL     1       3.401  -1.079  -1.286  0.00  0.00    +0.003 C 
ATOM     27  C   UNL     1       3.142  -2.587  -1.291  0.00  0.00    +0.000 C 
ATOM     28  C   UNL     1       2.357  -2.974  -0.036  0.00  0.00    +0.003 C 
ATOM     29  C   UNL     1       1.021  -2.227  -0.020  0.00  0.00    +0.041 C 
BRANCH  24  30
ATOM     30  C   UNL     1       2.059  -0.360   1.182  0.00  0.00    +0.088 C 
ATOM     31  N   UNL     1       2.660  -0.082   2.106  0.00  0.00    -0.194 NA
ENDBRANCH  24  30
ENDBRANCH  22  24
ENDBRANCH  19  20
ENDBRANCH  18  19
ENDBRANCH   4  18
TORSDOF 7
