REMARK  Name = ZINC66344697
REMARK  7 active torsions:
REMARK  status: ('A' for Active; 'I' for Inactive)
REMARK    1  A    between atoms: C_1  and  C_2
REMARK    2  A    between atoms: C_2  and  C_3
REMARK    3  A    between atoms: C_3  and  N_4
REMARK    4  A    between atoms: C_5  and  C_7
REMARK    5  A    between atoms: N_15  and  C_16
REMARK    6  A    between atoms: C_16  and  C_17
REMARK    7  A    between atoms: N_21  and  C_23
REMARK                            x       y       z     vdW  Elec       q    Type
REMARK                         _______ _______ _______ _____ _____    ______ ____
ROOT
ATOM      1  C   UNL     1       1.343  -4.129  -2.289  0.00  0.00    +0.078 C 
ATOM      2  C   UNL     1       2.078  -4.640  -1.048  0.00  0.00    +0.032 C 
ATOM      3  C   UNL     1       2.066  -6.172  -1.046  0.00  0.00    +0.110 C 
ATOM      4  N   UNL     1       2.625  -6.650  -2.318  0.00  0.00    -0.286 N 
ATOM      5  C   UNL     1       2.050  -6.150  -3.575  0.00  0.00    +0.110 C 
ATOM      6  C   UNL     1       2.062  -4.619  -3.548  0.00  0.00    +0.032 C 
ATOM      7  C   UNL     1       3.646  -7.530  -2.332  0.00  0.00    +0.302 C 
ATOM      8  O   UNL     1       4.175  -7.863  -1.290  0.00  0.00    -0.253 OA
ATOM      9  N   UNL     1       4.079  -8.041  -3.502  0.00  0.00    -0.299 N 
ATOM     10  H   UNL     1       3.706  -7.722  -4.338  0.00  0.00    +0.150 HD
ENDROOT
BRANCH   1  12
ATOM     11  N   UNL     1       0.737  -1.965  -1.255  0.00  0.00    -0.315 N 
ATOM     12  C   UNL     1       1.323  -2.622  -2.276  0.00  0.00    +0.216 C 
ATOM     13  O   UNL     1       1.833  -2.001  -3.184  0.00  0.00    -0.276 OA
ATOM     14  H   UNL     1       0.328  -2.462  -0.529  0.00  0.00    +0.149 HD
BRANCH  11  15
ATOM     15  C   UNL     1       0.718  -0.500  -1.243  0.00  0.00    +0.104 C 
BRANCH  15  17
ATOM     16  C   UNL     1      -0.022   1.520   0.029  0.00  0.00    +0.005 C 
ATOM     17  C   UNL     1      -0.002  -0.010   0.016  0.00  0.00    +0.015 C 
ENDBRANCH  15  17
ENDBRANCH  11  15
ENDBRANCH   1  12
BRANCH   9  18
ATOM     18  C   UNL     1       5.114  -9.078  -3.509  0.00  0.00    +0.110 C 
BRANCH  18  19
ATOM     19  C   UNL     1       5.421  -9.481  -4.953  0.00  0.00    +0.025 C 
ATOM     20  C   UNL     1       4.231 -10.253  -5.580  0.00  0.00    +0.025 C 
ATOM     21  C   UNL     1       4.913 -11.124  -6.656  0.00  0.00    +0.105 C 
ATOM     22  N   UNL     1       6.325 -11.265  -6.273  0.00  0.00    -0.330 N 
ATOM     23  C   UNL     1       6.546 -10.545  -5.004  0.00  0.00    +0.110 C 
BRANCH  22  24
ATOM     24  C   UNL     1       7.299 -11.964  -6.992  0.00  0.00    +0.030 A 
ATOM     25  C   UNL     1       8.603 -12.027  -6.518  0.00  0.00    +0.026 A 
ATOM     26  C   UNL     1       9.563 -12.719  -7.229  0.00  0.00    +0.040 A 
ATOM     27  C   UNL     1       9.227 -13.350  -8.415  0.00  0.00    +0.124 A 
ATOM     28  C   UNL     1       7.927 -13.289  -8.890  0.00  0.00    +0.040 A 
ATOM     29  C   UNL     1       6.963 -12.602  -8.179  0.00  0.00    +0.026 A 
ATOM     30  F   UNL     1      10.168 -14.027  -9.110  0.00  0.00    -0.205 F 
ENDBRANCH  22  24
ENDBRANCH  18  19
ENDBRANCH   9  18
TORSDOF 6
