REMARK  Name = ZINC40080962
REMARK  11 active torsions:
REMARK  status: ('A' for Active; 'I' for Inactive)
REMARK    1  A    between atoms: C_1  and  C_2
REMARK    2  A    between atoms: C_2  and  C_3
REMARK    3  A    between atoms: C_4  and  C_25
REMARK    4  A    between atoms: C_6  and  C_8
REMARK    5  A    between atoms: N_10  and  C_11
REMARK    6  A    between atoms: C_11  and  C_12
REMARK    7  A    between atoms: N_14  and  C_15
REMARK    8  A    between atoms: C_15  and  C_17
REMARK    9  A    between atoms: C_15  and  C_18
REMARK   10  A    between atoms: C_20  and  C_24
REMARK   11  A    between atoms: C_22  and  C_23
REMARK                            x       y       z     vdW  Elec       q    Type
REMARK                         _______ _______ _______ _____ _____    ______ ____
ROOT
ATOM      1  C   UNL     1      -6.542  -2.431   2.959  0.00  0.00    +0.200 C 
ENDROOT
BRANCH   1   4
ATOM      2  C   UNL     1      -5.111  -1.895   1.061  0.00  0.00    +0.251 C 
ATOM      3  O   UNL     1      -6.019  -2.228   0.321  0.00  0.00    -0.270 OA
ATOM      4  N   UNL     1      -5.273  -1.960   2.397  0.00  0.00    -0.302 N 
ATOM      5  H   UNL     1      -4.550  -1.695   2.987  0.00  0.00    +0.150 HD
BRANCH   2   9
ATOM      6  C   UNL     1      -1.412  -0.526   0.013  0.00  0.00    -0.007 A 
ATOM      7  C   UNL     1      -2.201  -0.814  -1.051  0.00  0.00    -0.040 A 
ATOM      8  C   UNL     1      -3.474  -1.284  -0.831  0.00  0.00    +0.024 A 
ATOM      9  C   UNL     1      -3.842  -1.425   0.498  0.00  0.00    +0.074 A 
ATOM     10  S   UNL     1      -2.367  -0.891   1.345  0.00  0.00    -0.088 S 
ATOM     11  C   UNL     1      -1.692  -0.620  -2.456  0.00  0.00    +0.044 C 
BRANCH   6  13
ATOM     12  C   UNL     1      -0.019   1.526   0.010  0.00  0.00    +0.009 C 
ATOM     13  C   UNL     1       0.002  -0.004   0.002  0.00  0.00    +0.039 C 
ENDBRANCH   6  13
ENDBRANCH   2   9
ENDBRANCH   1   4
BRANCH   1  14
ATOM     14  C   UNL     1      -6.464  -2.407   4.464  0.00  0.00    +0.231 C 
ATOM     15  O   UNL     1      -5.449  -2.035   5.013  0.00  0.00    -0.274 OA
ATOM     16  N   UNL     1      -7.522  -2.801   5.200  0.00  0.00    -0.307 N 
ATOM     17  H   UNL     1      -8.334  -3.099   4.761  0.00  0.00    +0.149 HD
BRANCH  16  18
ATOM     18  C   UNL     1      -7.447  -2.778   6.663  0.00  0.00    +0.101 C 
ATOM     19  C   UNL     1      -6.805  -4.075   7.160  0.00  0.00    +0.033 C 
BRANCH  18  20
ATOM     20  C   UNL     1      -8.835  -2.653   7.236  0.00  0.00    -0.017 A 
ATOM     21  C   UNL     1      -9.932  -3.087   6.516  0.00  0.00    +0.016 A 
ATOM     22  C   UNL     1     -11.167  -2.960   7.061  0.00  0.00    -0.013 A 
ATOM     23  S   UNL     1     -10.800  -2.206   8.637  0.00  0.00    -0.098 S 
ATOM     24  C   UNL     1      -9.025  -2.118   8.466  0.00  0.00    -0.008 A 
ATOM     25  C   UNL     1      -8.004  -1.584   9.438  0.00  0.00    +0.052 C 
ATOM     26  C   UNL     1     -12.504  -3.352   6.484  0.00  0.00    +0.051 C 
ENDBRANCH  18  20
ENDBRANCH  16  18
ENDBRANCH   1  14
TORSDOF 6
