REMARK  Name = ZINC39380374
REMARK  9 active torsions:
REMARK  status: ('A' for Active; 'I' for Inactive)
REMARK    1  A    between atoms: C_1  and  O_2
REMARK    2  A    between atoms: O_2  and  C_3
REMARK    3  A    between atoms: C_6  and  N_9
REMARK    4  A    between atoms: C_11  and  C_23
REMARK    5  A    between atoms: C_13  and  C_16
REMARK    6  A    between atoms: C_23  and  N_24
REMARK    7  A    between atoms: N_24  and  C_25
REMARK    8  A    between atoms: C_25  and  C_26
REMARK    9  A    between atoms: C_26  and  C_27
REMARK                            x       y       z     vdW  Elec       q    Type
REMARK                         _______ _______ _______ _____ _____    ______ ____
ROOT
ATOM      1  N   UNL     1      -4.887  -2.457   0.116  0.00  0.00    -0.266 N 
ATOM      2  C   UNL     1      -5.030  -3.915  -0.023  0.00  0.00    +0.127 C 
ATOM      3  C   UNL     1      -6.553  -4.185   0.012  0.00  0.00    +0.014 C 
ATOM      4  C   UNL     1      -7.073  -2.885   0.683  0.00  0.00    +0.107 C 
ATOM      5  N   UNL     1      -6.126  -1.871   0.160  0.00  0.00    -0.232 NA
ATOM      6  H   UNL     1      -6.409  -1.554  -0.755  0.00  0.00    +0.145 HD
ENDROOT
BRANCH   4   7
ATOM      7  C   UNL     1      -8.485  -2.582   0.251  0.00  0.00    -0.010 A 
ATOM      8  C   UNL     1      -8.715  -1.733  -0.815  0.00  0.00    +0.006 A 
ATOM      9  C   UNL     1     -10.009  -1.456  -1.212  0.00  0.00    +0.000 A 
ATOM     10  C   UNL     1     -11.075  -2.027  -0.542  0.00  0.00    +0.001 A 
ATOM     11  C   UNL     1     -10.847  -2.876   0.524  0.00  0.00    +0.020 A 
ATOM     12  C   UNL     1      -9.551  -3.159   0.918  0.00  0.00    +0.046 A 
ATOM     13 CL   UNL     1      -9.263  -4.231   2.253  0.00  0.00    -0.083 Cl
ENDBRANCH   4   7
BRANCH   1  17
ATOM     14  C   UNL     1      -1.261  -0.416   0.360  0.00  0.00    +0.120 A 
ATOM     15  C   UNL     1      -2.456   0.285   0.415  0.00  0.00    +0.047 A 
ATOM     16  C   UNL     1      -3.658  -0.390   0.334  0.00  0.00    +0.028 A 
ATOM     17  C   UNL     1      -3.670  -1.772   0.198  0.00  0.00    +0.045 A 
ATOM     18  C   UNL     1      -2.473  -2.473   0.143  0.00  0.00    +0.028 A 
ATOM     19  C   UNL     1      -1.272  -1.796   0.218  0.00  0.00    +0.047 A 
BRANCH  14  21
ATOM     20  C   UNL     1      -0.141   1.670   0.585  0.00  0.00    +0.277 C 
ATOM     21  O   UNL     1      -0.078   0.250   0.440  0.00  0.00    -0.495 OA
ENDBRANCH  14  21
ENDBRANCH   1  17
BRANCH   3  22
ATOM     22  C   UNL     1      -7.117  -4.339  -1.402  0.00  0.00    -0.076 C 
BRANCH  22  23
ATOM     23  N   UNL     1      -6.570  -5.555  -2.018  0.00  0.00    +0.380 N 
ATOM     24  H   UNL     1      -5.565  -5.487  -2.062  0.00  0.00    -0.086 HD
ATOM     25  H   UNL     1      -6.828  -6.358  -1.463  0.00  0.00    -0.086 HD
BRANCH  23  26
ATOM     26  C   UNL     1      -7.112  -5.703  -3.375  0.00  0.00    -0.078 C 
BRANCH  26  27
ATOM     27  C   UNL     1      -6.543  -6.970  -4.016  0.00  0.00    +0.015 C 
BRANCH  27  28
ATOM     28  C   UNL     1      -7.098  -7.122  -5.409  0.00  0.00    -0.029 C 
ATOM     29  C   UNL     1      -6.548  -6.733  -6.561  0.00  0.00    +0.135 C 
ATOM     30  N   UNL     1      -7.349  -7.043  -7.605  0.00  0.00    -0.162 NA
ATOM     31  N   UNL     1      -8.400  -7.607  -7.293  0.00  0.00    -0.183 NA
ATOM     32  C   UNL     1      -8.412  -7.758  -5.828  0.00  0.00    +0.198 C 
ENDBRANCH  27  28
ENDBRANCH  26  27
ENDBRANCH  23  26
ENDBRANCH  22  23
ENDBRANCH   3  22
TORSDOF 8
