REMARK  Name = ZINC22000864
REMARK  8 active torsions:
REMARK  status: ('A' for Active; 'I' for Inactive)
REMARK    1  A    between atoms: C_1  and  C_2
REMARK    2  A    between atoms: C_2  and  O_3
REMARK    3  A    between atoms: O_3  and  C_4
REMARK    4  A    between atoms: C_4  and  C_6
REMARK    5  A    between atoms: C_6  and  C_31
REMARK    6  A    between atoms: C_7  and  C_21
REMARK    7  A    between atoms: C_16  and  C_19
REMARK    8  A    between atoms: C_17  and  N_18
REMARK                            x       y       z     vdW  Elec       q    Type
REMARK                         _______ _______ _______ _____ _____    ______ ____
ROOT
ATOM      1  C   UNL     1      -0.086  -3.690  -1.318  0.00  0.00    +0.199 C 
ATOM      2  C   UNL     1       0.022  -2.898  -0.015  0.00  0.00    +0.064 C 
ATOM      3  C   UNL     1       0.047  -3.877   1.160  0.00  0.00    +0.030 C 
ATOM      4  C   UNL     1      -0.098  -3.170   2.487  0.00  0.00    +0.009 C 
ATOM      5  C   UNL     1       1.252  -2.966   3.174  0.00  0.00    +0.005 C 
ATOM      6  C   UNL     1       1.897  -4.341   3.389  0.00  0.00    +0.027 C 
ATOM      7  C   UNL     1       2.106  -4.969   2.035  0.00  0.00    -0.022 C 
ATOM      8  C   UNL     1       1.276  -4.728   1.039  0.00  0.00    -0.029 C 
ATOM      9  C   UNL     1       1.582  -5.281  -0.307  0.00  0.00    +0.073 C 
ATOM     10  C   UNL     1       0.944  -4.776  -1.393  0.00  0.00    +0.051 C 
ENDROOT
BRANCH   2  11
ATOM     11  C   UNL     1       1.292  -2.086  -0.022  0.00  0.00    -0.034 A 
ATOM     12  C   UNL     1       2.443  -2.622  -0.513  0.00  0.00    +0.004 A 
ATOM     13  C   UNL     1       3.627  -1.886  -0.528  0.00  0.00    +0.001 A 
ATOM     14  C   UNL     1       3.666  -0.611  -0.053  0.00  0.00    +0.008 A 
ATOM     15  C   UNL     1       2.497  -0.025   0.462  0.00  0.00    -0.018 A 
ATOM     16  C   UNL     1       1.293  -0.773   0.477  0.00  0.00    -0.014 A 
ATOM     17  C   UNL     1       0.124  -0.186   0.991  0.00  0.00    +0.009 A 
ATOM     18  C   UNL     1       0.163   1.089   1.466  0.00  0.00    +0.001 A 
ATOM     19  C   UNL     1       1.347   1.824   1.451  0.00  0.00    +0.001 A 
ATOM     20  C   UNL     1       2.498   1.289   0.961  0.00  0.00    +0.008 A 
ENDBRANCH   2  11
BRANCH  10  21
ATOM     21  N   UNL     1       1.259  -5.284  -2.622  0.00  0.00    -0.359 N 
ATOM     22  H   UNL     1       2.012  -6.082  -2.711  0.00  0.00    +0.142 HD
ATOM     23  H   UNL     1       0.760  -4.896  -3.522  0.00  0.00    +0.142 HD
ENDBRANCH  10  21
BRANCH   1  24
ATOM     24  C   UNL     1      -1.458  -4.308  -1.405  0.00  0.00    +0.334 C 
ATOM     25  O   UNL     1      -2.258  -4.130  -0.518  0.00  0.00    -0.249 OA
BRANCH  24  26
ATOM     26  O   UNL     1      -1.791  -5.055  -2.469  0.00  0.00    -0.464 OA
BRANCH  26  28
ATOM     27  C   UNL     1      -3.324  -6.433  -3.767  0.00  0.00    +0.048 C 
ATOM     28  C   UNL     1      -3.130  -5.619  -2.486  0.00  0.00    +0.229 C 
ENDBRANCH  26  28
ENDBRANCH  24  26
ENDBRANCH   1  24
BRANCH   9  29
ATOM     29  C   UNL     1       2.539  -6.335  -0.456  0.00  0.00    +0.101 C 
ATOM     30  N   UNL     1       3.299  -7.171  -0.574  0.00  0.00    -0.191 NA
ENDBRANCH   9  29
BRANCH   1  31
ATOM     31  C   UNL     1       0.099  -2.773  -2.454  0.00  0.00    +0.087 C 
ATOM     32  N   UNL     1       0.241  -2.065  -3.331  0.00  0.00    -0.195 NA
ENDBRANCH   1  31
TORSDOF 7
