REMARK  Name = ZINC36597833
REMARK  13 active torsions:
REMARK  status: ('A' for Active; 'I' for Inactive)
REMARK    1  A    between atoms: C_1  and  C_2
REMARK    2  A    between atoms: C_5  and  C_7
REMARK    3  A    between atoms: C_7  and  N_8
REMARK    4  A    between atoms: N_8  and  C_9
REMARK    5  A    between atoms: C_9  and  C_11
REMARK    6  A    between atoms: C_9  and  C_20
REMARK    7  A    between atoms: C_14  and  N_17
REMARK    8  A    between atoms: N_17  and  C_18
REMARK    9  A    between atoms: N_17  and  C_19
REMARK   10  A    between atoms: N_22  and  C_23
REMARK   11  A    between atoms: C_29  and  C_31
REMARK   12  A    between atoms: C_35  and  O_38
REMARK   13  A    between atoms: C_36  and  O_37
REMARK                            x       y       z     vdW  Elec       q    Type
REMARK                         _______ _______ _______ _____ _____    ______ ____
ROOT
ATOM      1  N   UNL     1       2.442  -2.350  -3.386  0.00  0.00    -0.275 N 
ATOM      2  C   UNL     1       1.377  -3.053  -2.951  0.00  0.00    +0.252 C 
ATOM      3  O   UNL     1       0.699  -2.625  -2.038  0.00  0.00    -0.270 OA
ENDROOT
BRANCH   2   4
ATOM      4  C   UNL     1       1.036  -4.341  -3.584  0.00  0.00    +0.082 A 
ATOM      5  C   UNL     1       1.973  -5.378  -3.619  0.00  0.00    +0.017 A 
ATOM      6  C   UNL     1       1.650  -6.579  -4.210  0.00  0.00    +0.005 A 
ATOM      7  C   UNL     1       0.398  -6.769  -4.771  0.00  0.00    +0.049 A 
ATOM      8  C   UNL     1      -0.541  -5.752  -4.745  0.00  0.00    +0.159 A 
ATOM      9  C   UNL     1      -0.232  -4.535  -4.146  0.00  0.00    +0.171 A 
BRANCH   9  10
ATOM     10  O   UNL     1      -1.152  -3.537  -4.112  0.00  0.00    -0.503 OA
ATOM     11  H   UNL     1      -1.121  -2.947  -4.878  0.00  0.00    +0.292 HD
ENDBRANCH   9  10
BRANCH   8  12
ATOM     12  O   UNL     1      -1.768  -5.946  -5.298  0.00  0.00    -0.503 OA
ATOM     13  H   UNL     1      -2.425  -6.301  -4.684  0.00  0.00    +0.292 HD
ENDBRANCH   8  12
ENDBRANCH   2   4
BRANCH   1  14
ATOM     14  C   UNL     1       2.721  -1.024  -2.830  0.00  0.00    +0.183 C 
BRANCH  14  19
ATOM     15  C   UNL     1       0.726   2.465  -5.879  0.00  0.00    +0.086 C 
ATOM     16  C   UNL     1       0.888   1.494  -4.737  0.00  0.00    +0.102 A 
ATOM     17  C   UNL     1      -0.012   1.265  -3.765  0.00  0.00    +0.045 A 
ATOM     18  C   UNL     1       0.547   0.287  -2.910  0.00  0.00    +0.046 A 
ATOM     19  C   UNL     1       1.756  -0.023  -3.412  0.00  0.00    +0.122 A 
ATOM     20  O   UNL     1       1.955   0.707  -4.522  0.00  0.00    -0.463 OA
ENDBRANCH  14  19
ENDBRANCH   1  14
BRANCH   1  21
ATOM     21  C   UNL     1       3.321  -2.913  -4.414  0.00  0.00    +0.193 C 
BRANCH  21  22
ATOM     22  C   UNL     1       4.747  -2.887  -3.926  0.00  0.00    -0.018 A 
ATOM     23  C   UNL     1       5.010  -2.790  -2.572  0.00  0.00    +0.008 A 
ATOM     24  C   UNL     1       6.316  -2.765  -2.122  0.00  0.00    +0.023 A 
ATOM     25  C   UNL     1       7.364  -2.838  -3.030  0.00  0.00    +0.029 A 
ATOM     26  C   UNL     1       7.095  -2.936  -4.389  0.00  0.00    +0.023 A 
ATOM     27  C   UNL     1       5.788  -2.966  -4.833  0.00  0.00    +0.008 A 
BRANCH  25  28
ATOM     28  N   UNL     1       8.685  -2.813  -2.578  0.00  0.00    -0.336 N 
ATOM     29  C   UNL     1       8.969  -2.860  -1.141  0.00  0.00    +0.129 C 
ATOM     30  C   UNL     1       9.787  -2.740  -3.540  0.00  0.00    +0.129 C 
ENDBRANCH  25  28
ENDBRANCH  21  22
BRANCH  21  31
ATOM     31  C   UNL     1       3.206  -2.096  -5.675  0.00  0.00    +0.238 C 
ATOM     32  O   UNL     1       3.368  -0.895  -5.636  0.00  0.00    -0.273 OA
ATOM     33  N   UNL     1       2.925  -2.701  -6.847  0.00  0.00    -0.311 N 
ATOM     34  H   UNL     1       2.796  -3.662  -6.878  0.00  0.00    +0.149 HD
BRANCH  33  35
ATOM     35  C   UNL     1       2.813  -1.906  -8.072  0.00  0.00    +0.073 C 
ATOM     36  C   UNL     1       1.395  -1.345  -8.189  0.00  0.00    +0.022 C 
ATOM     37  C   UNL     1       1.279  -0.515  -9.470  0.00  0.00    +0.002 C 
ATOM     38  C   UNL     1       1.578  -1.401 -10.680  0.00  0.00    +0.000 C 
ATOM     39  C   UNL     1       2.996  -1.963 -10.564  0.00  0.00    +0.002 C 
ATOM     40  C   UNL     1       3.113  -2.792  -9.283  0.00  0.00    +0.022 C 
ENDBRANCH  33  35
ENDBRANCH  21  31
ENDBRANCH   1  21
TORSDOF 10
