REMARK  Name = ZINC14628795
REMARK  10 active torsions:
REMARK  status: ('A' for Active; 'I' for Inactive)
REMARK    1  A    between atoms: C_1  and  C_2
REMARK    2  A    between atoms: N_5  and  S_8
REMARK    3  A    between atoms: S_8  and  C_11
REMARK    4  A    between atoms: C_14  and  C_17
REMARK    5  A    between atoms: N_19  and  C_20
REMARK    6  A    between atoms: C_20  and  C_21
REMARK    7  A    between atoms: C_21  and  C_23
REMARK    8  A    between atoms: C_21  and  N_61
REMARK    9  A    between atoms: C_30  and  N_61
REMARK   10  A    between atoms: C_31  and  N_61
REMARK                            x       y       z     vdW  Elec       q    Type
REMARK                         _______ _______ _______ _____ _____    ______ ____
ROOT
ATOM      1  C   UNL     1      -1.371  -2.013  -1.314  0.00  0.00    +0.244 C 
ATOM      2  O   UNL     1      -1.578  -1.702  -2.471  0.00  0.00    -0.270 OA
ATOM      3  N   UNL     1      -0.580  -1.243  -0.540  0.00  0.00    -0.313 N 
ATOM      4  H   UNL     1      -0.414  -1.492   0.383  0.00  0.00    +0.149 HD
ENDROOT
BRANCH   1   8
ATOM      5  C   UNL     1      -3.139  -5.527   0.288  0.00  0.00    +0.106 A 
ATOM      6  C   UNL     1      -3.377  -5.175  -1.028  0.00  0.00    +0.029 A 
ATOM      7  C   UNL     1      -2.806  -4.035  -1.555  0.00  0.00    +0.015 A 
ATOM      8  C   UNL     1      -1.986  -3.236  -0.756  0.00  0.00    +0.037 A 
ATOM      9  C   UNL     1      -1.746  -3.599   0.570  0.00  0.00    +0.015 A 
ATOM     10  C   UNL     1      -2.327  -4.739   1.085  0.00  0.00    +0.029 A 
BRANCH   5  11
ATOM     11  S   UNL     1      -3.872  -6.985   0.953  0.00  0.00    +0.061 S 
ATOM     12  O   UNL     1      -3.935  -6.802   2.361  0.00  0.00    -0.153 OA
ATOM     13  O   UNL     1      -5.025  -7.254   0.168  0.00  0.00    -0.153 OA
BRANCH  11  18
ATOM     14  C   UNL     1      -1.901 -12.367   1.083  0.00  0.00    +0.007 C 
ATOM     15  C   UNL     1      -1.823 -10.879   0.738  0.00  0.00    -0.012 C 
ATOM     16  C   UNL     1      -1.897 -10.053   2.023  0.00  0.00    +0.020 C 
ATOM     17  C   UNL     1      -1.784  -8.565   1.677  0.00  0.00    +0.110 C 
ATOM     18  N   UNL     1      -2.815  -8.231   0.685  0.00  0.00    -0.177 NA
ATOM     19  C   UNL     1      -2.894  -9.027  -0.547  0.00  0.00    +0.110 C 
ATOM     20  C   UNL     1      -2.991 -10.507  -0.178  0.00  0.00    +0.020 C 
ENDBRANCH  11  18
ENDBRANCH   5  11
ENDBRANCH   1   8
BRANCH   3  21
ATOM     21  C   UNL     1       0.030  -0.032  -1.093  0.00  0.00    +0.094 C 
BRANCH  21  22
ATOM     22  C   UNL     1       1.018   0.550  -0.080  0.00  0.00    -0.020 C 
BRANCH  22  23
ATOM     23  C   UNL     1       1.568   1.851  -0.604  0.00  0.00    -0.041 A 
ATOM     24  C   UNL     1       2.849   1.903  -1.120  0.00  0.00    +0.003 A 
ATOM     25  C   UNL     1       3.354   3.097  -1.601  0.00  0.00    +0.000 A 
ATOM     26  C   UNL     1       2.577   4.240  -1.566  0.00  0.00    +0.001 A 
ATOM     27  C   UNL     1       1.295   4.190  -1.051  0.00  0.00    +0.020 A 
ATOM     28  C   UNL     1       0.788   2.994  -0.574  0.00  0.00    +0.043 A 
ATOM     29 CL   UNL     1      -0.824   2.928   0.067  0.00  0.00    -0.083 Cl
ENDBRANCH  22  23
BRANCH  22  32
ATOM     30  C   UNL     1       1.750  -1.430   1.107  0.00  0.00    -0.096 C 
ATOM     31  C   UNL     1       2.542  -1.004  -1.142  0.00  0.00    -0.096 C 
ATOM     32  N   UNL     1       2.143  -0.384   0.139  0.00  0.00    +0.382 N 
ATOM     33  H   UNL     1       2.941   0.139   0.519  0.00  0.00    -0.082 HD
ENDBRANCH  22  32
ENDBRANCH  21  22
ENDBRANCH   3  21
TORSDOF 7
