REMARK  Name = ZINC63641779
REMARK  4 active torsions:
REMARK  status: ('A' for Active; 'I' for Inactive)
REMARK    1  A    between atoms: C_8  and  C_16
REMARK    2  A    between atoms: C_18  and  O_34
REMARK    3  A    between atoms: C_21  and  S_33
REMARK    4  A    between atoms: N_23  and  C_26
REMARK                            x       y       z     vdW  Elec       q    Type
REMARK                         _______ _______ _______ _____ _____    ______ ____
ROOT
ATOM      1  C   UNL     1       5.158  -3.153  -0.954  0.00  0.00    +0.138 C 
ATOM      2  C   UNL     1       5.651  -4.019  -2.117  0.00  0.00    +0.198 C 
ATOM      3  N   UNL     1       7.017  -4.474  -1.812  0.00  0.00    -0.264 NA
ATOM      4  C   UNL     1       7.002  -5.434  -0.702  0.00  0.00    +0.208 C 
ATOM      5  N   UNL     1       6.280  -4.885   0.441  0.00  0.00    -0.243 N 
ATOM      6  C   UNL     1       5.425  -3.861   0.346  0.00  0.00    +0.230 C 
ATOM      7  O   UNL     1       4.845  -3.490   1.344  0.00  0.00    -0.275 OA
ATOM      8  H   UNL     1       7.456  -4.873  -2.629  0.00  0.00    +0.127 HD
ENDROOT
BRANCH   1  15
ATOM      9  C   UNL     1      -0.228  -3.147  -5.306  0.00  0.00    +0.001 A 
ATOM     10  C   UNL     1       0.757  -3.948  -5.899  0.00  0.00    +0.002 A 
ATOM     11  C   UNL     1       2.008  -4.051  -5.402  0.00  0.00    +0.026 A 
ATOM     12  C   UNL     1       2.380  -3.335  -4.233  0.00  0.00    +0.043 A 
ATOM     13  N   UNL     1       3.506  -3.292  -3.556  0.00  0.00    -0.376 N 
ATOM     14  C   UNL     1       3.362  -2.314  -2.482  0.00  0.00    +0.124 C 
ATOM     15  C   UNL     1       3.655  -2.907  -1.102  0.00  0.00    +0.096 C 
ATOM     16  N   UNL     1       3.206  -1.948  -0.081  0.00  0.00    -0.310 NA
ATOM     17  C   UNL     1       1.751  -1.772  -0.052  0.00  0.00    +0.085 C 
ATOM     18  C   UNL     1       1.271  -1.127  -1.366  0.00  0.00    +0.048 C 
ATOM     19  C   UNL     1       1.895  -1.914  -2.497  0.00  0.00    -0.036 C 
ATOM     20  C   UNL     1       1.353  -2.485  -3.579  0.00  0.00    -0.001 A 
ATOM     21  C   UNL     1       0.018  -2.427  -4.189  0.00  0.00    +0.010 A 
ATOM     22  H   UNL     1       3.558  -2.199   0.831  0.00  0.00    +0.122 HD
ATOM     23  H   UNL     1       4.298  -3.821  -3.739  0.00  0.00    +0.160 HD
ENDBRANCH   1  15
BRANCH   5  24
ATOM     24  C   UNL     1       6.494  -5.459   1.700  0.00  0.00    +0.074 A 
ATOM     25  C   UNL     1       7.496  -4.971   2.526  0.00  0.00    +0.026 A 
ATOM     26  C   UNL     1       7.704  -5.539   3.768  0.00  0.00    +0.002 A 
ATOM     27  C   UNL     1       6.915  -6.594   4.190  0.00  0.00    +0.003 A 
ATOM     28  C   UNL     1       5.915  -7.084   3.370  0.00  0.00    +0.040 A 
ATOM     29  C   UNL     1       5.698  -6.516   2.128  0.00  0.00    +0.145 A 
ATOM     30  F   UNL     1       4.717  -6.991   1.329  0.00  0.00    -0.204 F 
ENDBRANCH   5  24
BRANCH   4  31
ATOM     31  S   UNL     1       6.188  -6.962  -1.244  0.00  0.00    -0.140 S 
ATOM     32  H   UNL     1       6.944  -7.386  -2.272  0.00  0.00    +0.105 HD
ENDBRANCH   4  31
BRANCH   2  33
ATOM     33  O   UNL     1       4.788  -5.146  -2.275  0.00  0.00    -0.377 OA
ATOM     34  H   UNL     1       5.043  -5.738  -2.996  0.00  0.00    +0.211 HD
ENDBRANCH   2  33
TORSDOF 4
