REMARK  Name = ZINC38683735
REMARK  10 active torsions:
REMARK  status: ('A' for Active; 'I' for Inactive)
REMARK    1  A    between atoms: C_1  and  O_2
REMARK    2  A    between atoms: O_2  and  C_3
REMARK    3  A    between atoms: C_3  and  C_5
REMARK    4  A    between atoms: C_8  and  C_11
REMARK    5  A    between atoms: C_16  and  O_25
REMARK    6  A    between atoms: C_20  and  N_24
REMARK    7  A    between atoms: C_21  and  C_22
REMARK    8  A    between atoms: O_25  and  C_26
REMARK    9  A    between atoms: C_26  and  C_28
REMARK   10  A    between atoms: C_30  and  N_35
REMARK                            x       y       z     vdW  Elec       q    Type
REMARK                         _______ _______ _______ _____ _____    ______ ____
ROOT
ATOM      1  C   UNL     1      -1.375  -6.342  -0.056  0.00  0.00    +0.098 C 
ATOM      2  C   UNL     1      -2.113  -6.818  -1.279  0.00  0.00    +0.008 A 
ATOM      3  C   UNL     1      -1.510  -6.717  -2.520  0.00  0.00    +0.012 A 
ATOM      4  C   UNL     1      -2.172  -7.148  -3.653  0.00  0.00    +0.047 A 
ATOM      5  C   UNL     1      -3.447  -7.686  -3.548  0.00  0.00    +0.135 A 
ATOM      6  C   UNL     1      -4.053  -7.789  -2.307  0.00  0.00    +0.093 A 
ATOM      7  C   UNL     1      -3.386  -7.354  -1.169  0.00  0.00    +0.138 A 
ATOM      8  O   UNL     1      -3.994  -7.462   0.038  0.00  0.00    -0.441 OA
ATOM      9  C   UNL     1      -3.261  -7.422   1.163  0.00  0.00    +0.199 C 
ATOM     10  C   UNL     1      -2.013  -6.904   1.184  0.00  0.00    +0.098 C 
ENDROOT
BRANCH   1  14
ATOM     11  C   UNL     1      -1.495  -2.071   0.098  0.00  0.00    +0.059 A 
ATOM     12  C   UNL     1      -0.270  -2.735   0.026  0.00  0.00    +0.015 A 
ATOM     13  C   UNL     1      -0.238  -4.114  -0.023  0.00  0.00    +0.005 A 
ATOM     14  C   UNL     1      -1.417  -4.837  -0.001  0.00  0.00    -0.035 A 
ATOM     15  C   UNL     1      -2.635  -4.184   0.070  0.00  0.00    +0.005 A 
ATOM     16  C   UNL     1      -2.681  -2.807   0.126  0.00  0.00    +0.015 A 
BRANCH  11  17
ATOM     17  C   UNL     1      -1.537  -0.595   0.152  0.00  0.00    +0.339 C 
ATOM     18  O   UNL     1      -2.604  -0.019   0.219  0.00  0.00    -0.245 OA
BRANCH  17  20
ATOM     19  C   UNL     1      -0.506   1.536   0.180  0.00  0.00    +0.280 C 
ATOM     20  O   UNL     1      -0.391   0.113   0.125  0.00  0.00    -0.464 OA
ENDBRANCH  17  20
ENDBRANCH  11  17
ENDBRANCH   1  14
BRANCH   9  21
ATOM     21  N   UNL     1      -3.796  -7.920   2.325  0.00  0.00    -0.328 N 
ATOM     22  H   UNL     1      -4.691  -8.294   2.325  0.00  0.00    +0.145 HD
ATOM     23  H   UNL     1      -3.279  -7.899   3.146  0.00  0.00    +0.145 HD
ENDBRANCH   9  21
BRANCH  10  24
ATOM     24  C   UNL     1      -1.284  -6.889   2.416  0.00  0.00    +0.101 C 
ATOM     25  N   UNL     1      -0.706  -6.878   3.394  0.00  0.00    -0.191 NA
ENDBRANCH  10  24
BRANCH   5  26
ATOM     26  O   UNL     1      -4.100  -8.111  -4.662  0.00  0.00    -0.422 OA
BRANCH  26  27
ATOM     27  C   UNL     1      -3.635  -9.210  -5.287  0.00  0.00    +0.346 C 
ATOM     28  O   UNL     1      -2.727  -9.850  -4.795  0.00  0.00    -0.244 OA
BRANCH  27  29
ATOM     29  C   UNL     1      -4.230  -9.638  -6.569  0.00  0.00    +0.080 A 
ATOM     30  C   UNL     1      -5.271  -8.901  -7.140  0.00  0.00    +0.049 A 
ATOM     31  C   UNL     1      -5.822  -9.306  -8.337  0.00  0.00    +0.127 A 
ATOM     32  C   UNL     1      -5.347 -10.440  -8.974  0.00  0.00    +0.034 A 
ATOM     33  C   UNL     1      -4.317 -11.175  -8.416  0.00  0.00    +0.023 A 
ATOM     34  C   UNL     1      -3.751 -10.778  -7.220  0.00  0.00    +0.055 A 
ATOM     35 CL   UNL     1      -2.453 -11.697  -6.524  0.00  0.00    -0.083 Cl
BRANCH  31  36
ATOM     36  N   UNL     1      -6.924  -8.526  -8.943  0.00  0.00    +0.056 N 
ATOM     37  O   UNL     1      -7.340  -7.536  -8.388  0.00  0.00    -0.126 OA
ATOM     38  O   UNL     1      -7.409  -8.880  -9.993  0.00  0.00    -0.126 OA
ENDBRANCH  31  36
ENDBRANCH  27  29
ENDBRANCH  26  27
ENDBRANCH   5  26
TORSDOF 9
