REMARK  Name = ZINC62252434
REMARK  3 active torsions:
REMARK  status: ('A' for Active; 'I' for Inactive)
REMARK    1  A    between atoms: C_3  and  N_12
REMARK    2  A    between atoms: C_4  and  C_8
REMARK    3  A    between atoms: N_9  and  O_10
REMARK                            x       y       z     vdW  Elec       q    Type
REMARK                         _______ _______ _______ _____ _____    ______ ____
ROOT
ATOM      1  C   UNL     1      -0.017   1.380   0.010  0.00  0.00    +0.003 A 
ATOM      2  C   UNL     1       1.165   2.095   0.002  0.00  0.00    +0.024 A 
ATOM      3  C   UNL     1       2.382   1.427  -0.013  0.00  0.00    +0.042 A 
ATOM      4  C   UNL     1       2.405   0.026  -0.021  0.00  0.00    +0.057 A 
ATOM      5  C   UNL     1       1.204  -0.684  -0.013  0.00  0.00    +0.053 A 
ATOM      6  C   UNL     1       0.002  -0.004   0.002  0.00  0.00    +0.021 A 
ATOM      7 CL   UNL     1       1.220  -2.420  -0.023  0.00  0.00    -0.083 Cl
ENDROOT
BRANCH   3   8
ATOM      8  N   UNL     1       3.574   2.147  -0.022  0.00  0.00    -0.320 N 
ATOM      9  C   UNL     1       4.206   2.549  -1.287  0.00  0.00    +0.127 C 
ATOM     10  C   UNL     1       4.228   4.080  -1.374  0.00  0.00    +0.142 C 
ATOM     11  N   UNL     1       4.688   4.628  -0.096  0.00  0.00    -0.333 N 
ATOM     12  C   UNL     1       5.177   5.878   0.144  0.00  0.00    +0.105 A 
ATOM     13  C   UNL     1       5.462   5.938   1.460  0.00  0.00    +0.102 A 
ATOM     14  N   UNL     1       5.155   4.750   2.007  0.00  0.00    -0.348 N 
ATOM     15  C   UNL     1       4.695   3.961   1.083  0.00  0.00    +0.105 A 
ATOM     16  C   UNL     1       4.236   2.532   1.238  0.00  0.00    +0.177 C 
ATOM     17  H   UNL     1       5.259   4.519   2.943  0.00  0.00    +0.166 HD
ENDBRANCH   3   8
BRANCH   4  18
ATOM     18  C   UNL     1       3.695  -0.696  -0.038  0.00  0.00    +0.166 C 
ATOM     19  N   UNL     1       4.275  -1.020   1.082  0.00  0.00    -0.071 NA
ATOM     20  N   UNL     1       4.287  -1.028  -1.246  0.00  0.00    -0.340 N 
ATOM     21  H   UNL     1       3.855  -0.787  -2.080  0.00  0.00    +0.144 HD
ATOM     22  H   UNL     1       5.133  -1.502  -1.257  0.00  0.00    +0.144 HD
BRANCH  19  23
ATOM     23  O   UNL     1       3.669  -0.681   2.316  0.00  0.00    -0.408 OA
ATOM     24  H   UNL     1       4.173  -0.963   3.092  0.00  0.00    +0.328 HD
ENDBRANCH  19  23
ENDBRANCH   4  18
TORSDOF 3
