REMARK  Name = ZINC38989917
REMARK  8 active torsions:
REMARK  status: ('A' for Active; 'I' for Inactive)
REMARK    1  A    between atoms: C_1  and  C_2
REMARK    2  A    between atoms: C_2  and  N_3
REMARK    3  A    between atoms: N_3  and  C_4
REMARK    4  A    between atoms: N_3  and  S_18
REMARK    5  A    between atoms: C_4  and  C_5
REMARK    6  A    between atoms: C_10  and  C_17
REMARK    7  A    between atoms: S_18  and  C_21
REMARK    8  A    between atoms: C_24  and  C_27
REMARK                            x       y       z     vdW  Elec       q    Type
REMARK                         _______ _______ _______ _____ _____    ______ ____
ROOT
ATOM      1  C   UNL     1       0.022  -0.543   2.481  0.00  0.00    +0.126 C 
ENDROOT
BRANCH   1   2
ATOM      2  C   UNL     1      -0.654  -1.905   2.642  0.00  0.00    +0.114 C 
ATOM      3  C   UNL     1      -1.690  -2.043   1.544  0.00  0.00    -0.003 C 
ATOM      4  C   UNL     1      -2.981  -2.258   1.926  0.00  0.00    -0.007 A 
ATOM      5  C   UNL     1      -4.045  -2.402   0.931  0.00  0.00    +0.012 A 
ATOM      6  C   UNL     1      -5.316  -2.615   1.358  0.00  0.00    -0.050 A 
ATOM      7  C   UNL     1      -5.622  -2.698   2.717  0.00  0.00    +0.005 A 
ATOM      8  C   UNL     1      -4.681  -2.573   3.689  0.00  0.00    +0.024 A 
ATOM      9  C   UNL     1      -3.333  -2.350   3.354  0.00  0.00    +0.040 A 
ATOM     10  N   UNL     1      -2.418  -2.230   4.316  0.00  0.00    -0.284 N 
ATOM     11  C   UNL     1      -1.137  -2.018   4.070  0.00  0.00    +0.225 C 
ATOM     12  O   UNL     1      -0.348  -1.916   4.991  0.00  0.00    -0.275 OA
ATOM     13  C   UNL     1      -6.420  -2.764   0.343  0.00  0.00    +0.044 C 
ATOM     14  H   UNL     1      -2.707  -2.300   5.239  0.00  0.00    +0.155 HD
ENDBRANCH   1   2
BRANCH   1  15
ATOM     15  N   UNL     1       0.607  -0.443   1.141  0.00  0.00    -0.176 NA
BRANCH  15  16
ATOM     16  S   UNL     1       2.182  -0.887   0.890  0.00  0.00    +0.061 S 
ATOM     17  O   UNL     1       2.480  -1.889   1.853  0.00  0.00    -0.153 OA
ATOM     18  O   UNL     1       2.324  -1.107  -0.507  0.00  0.00    -0.153 OA
BRANCH  16  19
ATOM     19  C   UNL     1       3.186   0.506   1.285  0.00  0.00    +0.105 A 
ATOM     20  C   UNL     1       3.500   1.431   0.307  0.00  0.00    +0.029 A 
ATOM     21  C   UNL     1       4.288   2.524   0.617  0.00  0.00    +0.005 A 
ATOM     22  C   UNL     1       4.761   2.692   1.905  0.00  0.00    -0.050 A 
ATOM     23  C   UNL     1       4.446   1.767   2.883  0.00  0.00    +0.005 A 
ATOM     24  C   UNL     1       3.655   0.677   2.574  0.00  0.00    +0.029 A 
ATOM     25  C   UNL     1       5.620   3.883   2.243  0.00  0.00    +0.044 C 
ENDBRANCH  16  19
ENDBRANCH  15  16
BRANCH  15  27
ATOM     26  C   UNL     1      -0.131   1.579  -0.021  0.00  0.00    +0.022 C 
ATOM     27  C   UNL     1      -0.202   0.051   0.024  0.00  0.00    +0.106 C 
ENDBRANCH  15  27
ENDBRANCH   1  15
TORSDOF 5
