REMARK  Name = ZINC55664183
REMARK  6 active torsions:
REMARK  status: ('A' for Active; 'I' for Inactive)
REMARK    1  A    between atoms: C_2  and  C_3
REMARK    2  A    between atoms: C_3  and  N_4
REMARK    3  A    between atoms: C_5  and  C_7
REMARK    4  A    between atoms: C_10  and  N_13
REMARK    5  A    between atoms: N_13  and  S_14
REMARK    6  A    between atoms: S_14  and  C_17
REMARK                            x       y       z     vdW  Elec       q    Type
REMARK                         _______ _______ _______ _____ _____    ______ ____
ROOT
ATOM      1  N   UNL     1       2.647  -6.049   5.634  0.00  0.00    -0.216 N 
ATOM      2  H   UNL     1       2.405  -5.752   6.525  0.00  0.00    +0.174 HD
ENDROOT
BRANCH   1   6
ATOM      3  C   UNL     1       2.596  -3.361   2.458  0.00  0.00    +0.037 A 
ATOM      4  C   UNL     1       1.523  -3.409   3.352  0.00  0.00    +0.015 A 
ATOM      5  C   UNL     1       1.542  -4.299   4.401  0.00  0.00    +0.025 A 
ATOM      6  C   UNL     1       2.630  -5.151   4.573  0.00  0.00    +0.048 A 
ATOM      7  C   UNL     1       3.701  -5.106   3.684  0.00  0.00    +0.025 A 
ATOM      8  C   UNL     1       3.684  -4.222   2.629  0.00  0.00    +0.015 A 
BRANCH   3  10
ATOM      9  N   UNL     1       1.528  -1.579   1.168  0.00  0.00    -0.308 N 
ATOM     10  C   UNL     1       2.578  -2.408   1.332  0.00  0.00    +0.244 C 
ATOM     11  O   UNL     1       3.510  -2.371   0.551  0.00  0.00    -0.270 OA
ATOM     12  H   UNL     1       0.785  -1.608   1.790  0.00  0.00    +0.149 HD
BRANCH   9  13
ATOM     13  C   UNL     1       1.510  -0.632   0.049  0.00  0.00    +0.131 C 
BRANCH  13  15
ATOM     14  C   UNL     1       0.288   1.481   0.109  0.00  0.00    +0.005 C 
ATOM     15  C   UNL     1       0.236   0.172   0.092  0.00  0.00    -0.016 C 
ENDBRANCH  13  15
ENDBRANCH   9  13
ENDBRANCH   3  10
ENDBRANCH   1   6
BRANCH   1  16
ATOM     16  S   UNL     1       3.082  -7.627   5.377  0.00  0.00    +0.072 S 
ATOM     17  O   UNL     1       4.330  -7.599   4.700  0.00  0.00    -0.150 OA
ATOM     18  O   UNL     1       2.900  -8.304   6.613  0.00  0.00    -0.150 OA
BRANCH  16  19
ATOM     19  C   UNL     1       1.913  -8.312   4.250  0.00  0.00    +0.109 A 
ATOM     20  C   UNL     1       0.709  -8.820   4.735  0.00  0.00    +0.029 A 
ATOM     21  C   UNL     1      -0.215  -9.356   3.892  0.00  0.00    +0.010 A 
ATOM     22  C   UNL     1       0.045  -9.399   2.511  0.00  0.00    -0.018 A 
ATOM     23  C   UNL     1      -0.885  -9.945   1.610  0.00  0.00    +0.008 A 
ATOM     24  C   UNL     1      -0.599  -9.969   0.280  0.00  0.00    +0.001 A 
ATOM     25  C   UNL     1       0.605  -9.460  -0.205  0.00  0.00    +0.001 A 
ATOM     26  C   UNL     1       1.529  -8.924   0.638  0.00  0.00    +0.008 A 
ATOM     27  C   UNL     1       1.269  -8.882   2.019  0.00  0.00    -0.016 A 
ATOM     28  C   UNL     1       2.197  -8.331   2.919  0.00  0.00    +0.037 A 
ENDBRANCH  16  19
ENDBRANCH   1  16
TORSDOF 6
