REMARK  Name = ZINC58845959
REMARK  6 active torsions:
REMARK  status: ('A' for Active; 'I' for Inactive)
REMARK    1  A    between atoms: C_1  and  C_2
REMARK    2  A    between atoms: C_5  and  N_8
REMARK    3  A    between atoms: N_8  and  S_9
REMARK    4  A    between atoms: S_9  and  C_12
REMARK    5  A    between atoms: C_25  and  C_27
REMARK    6  A    between atoms: C_25  and  C_28
REMARK                            x       y       z     vdW  Elec       q    Type
REMARK                         _______ _______ _______ _____ _____    ______ ____
ROOT
ATOM      1  C   UNL     1       0.397  -4.612   2.658  0.00  0.00    +0.109 A 
ATOM      2  C   UNL     1       0.763  -3.426   3.268  0.00  0.00    +0.030 A 
ATOM      3  C   UNL     1       0.293  -3.132   4.531  0.00  0.00    +0.025 A 
ATOM      4  C   UNL     1      -0.549  -4.023   5.188  0.00  0.00    +0.032 A 
ATOM      5  C   UNL     1      -0.927  -5.207   4.573  0.00  0.00    -0.018 A 
ATOM      6  C   UNL     1      -0.446  -5.493   3.304  0.00  0.00    +0.034 A 
ATOM      7  C   UNL     1      -1.860  -6.168   5.229  0.00  0.00    +0.049 C 
ATOM      8  C   UNL     1      -1.139  -7.373   5.777  0.00  0.00    -0.023 C 
ATOM      9  C   UNL     1      -1.695  -7.763   6.897  0.00  0.00    -0.030 C 
ATOM     10  C   UNL     1      -2.862  -6.870   7.260  0.00  0.00    +0.033 C 
ATOM     11  C   UNL     1      -2.628  -5.595   6.418  0.00  0.00    +0.031 C 
ATOM     12  C   UNL     1      -1.823  -4.619   7.252  0.00  0.00    +0.058 C 
ATOM     13  N   UNL     1      -1.000  -3.722   6.468  0.00  0.00    -0.334 N 
ATOM     14  C   UNL     1      -2.792  -3.767   8.073  0.00  0.00    +0.037 C 
ATOM     15  H   UNL     1      -0.731  -2.878   6.864  0.00  0.00    +0.147 HD
ENDROOT
BRANCH  12  16
ATOM     16  C   UNL     1      -0.958  -5.404   8.204  0.00  0.00    -0.024 A 
ATOM     17  C   UNL     1       0.284  -5.855   7.798  0.00  0.00    +0.007 A 
ATOM     18  C   UNL     1       1.078  -6.574   8.671  0.00  0.00    +0.015 A 
ATOM     19  C   UNL     1       0.630  -6.842   9.952  0.00  0.00    +0.018 A 
ATOM     20  C   UNL     1      -0.613  -6.391  10.358  0.00  0.00    +0.015 A 
ATOM     21  C   UNL     1      -1.404  -5.667   9.486  0.00  0.00    +0.007 A 
ATOM     22 BR   UNL     1       1.716  -7.827  11.147  0.00  0.00    -0.050 Br
ENDBRANCH  12  16
BRANCH   1  23
ATOM     23  S   UNL     1       1.003  -4.996   1.048  0.00  0.00    +0.072 S 
ATOM     24  O   UNL     1       0.834  -6.396   0.874  0.00  0.00    -0.150 OA
ATOM     25  O   UNL     1       2.269  -4.361   0.929  0.00  0.00    -0.150 OA
BRANCH  23  26
ATOM     26  N   UNL     1      -0.002  -4.258  -0.042  0.00  0.00    -0.216 N 
ATOM     27  H   UNL     1       0.348  -3.582  -0.643  0.00  0.00    +0.174 HD
BRANCH  26  32
ATOM     28  C   UNL     1      -5.486  -5.684  -0.262  0.00  0.00    +0.044 C 
ATOM     29  C   UNL     1      -4.028  -5.305  -0.203  0.00  0.00    -0.050 A 
ATOM     30  C   UNL     1      -3.662  -3.972  -0.205  0.00  0.00    +0.005 A 
ATOM     31  C   UNL     1      -2.327  -3.621  -0.151  0.00  0.00    +0.025 A 
ATOM     32  C   UNL     1      -1.352  -4.609  -0.096  0.00  0.00    +0.048 A 
ATOM     33  C   UNL     1      -1.724  -5.947  -0.094  0.00  0.00    +0.025 A 
ATOM     34  C   UNL     1      -3.061  -6.291  -0.142  0.00  0.00    +0.005 A 
ENDBRANCH  26  32
ENDBRANCH  23  26
ENDBRANCH   1  23
TORSDOF 4
