REMARK  Name = ZINC52550576
REMARK  7 active torsions:
REMARK  status: ('A' for Active; 'I' for Inactive)
REMARK    1  A    between atoms: C_4  and  C_10
REMARK    2  A    between atoms: N_13  and  C_16
REMARK    3  A    between atoms: C_16  and  C_18
REMARK    4  A    between atoms: C_16  and  C_20
REMARK    5  A    between atoms: C_18  and  O_19
REMARK    6  A    between atoms: C_26  and  C_28
REMARK    7  A    between atoms: C_29  and  C_30
REMARK                            x       y       z     vdW  Elec       q    Type
REMARK                         _______ _______ _______ _____ _____    ______ ____
ROOT
ATOM      1  C   UNL     1       7.138   6.250  -0.048  0.00  0.00    -0.039 C 
ENDROOT
BRANCH   1   2
ATOM      2  C   UNL     1       7.949   6.239   1.250  0.00  0.00    -0.020 C 
ATOM      3  C   UNL     1       7.010   6.011   2.436  0.00  0.00    +0.021 C 
ATOM      4  C   UNL     1       7.829   5.965   3.730  0.00  0.00    +0.108 C 
ATOM      5  N   UNL     1       8.634   7.191   3.824  0.00  0.00    -0.298 N 
ATOM      6  C   UNL     1       9.505   7.552   2.697  0.00  0.00    +0.108 C 
ATOM      7  C   UNL     1       8.666   7.580   1.415  0.00  0.00    +0.021 C 
ATOM      8  C   UNL     1       8.574   7.969   4.922  0.00  0.00    +0.239 C 
ATOM      9  O   UNL     1       9.312   8.931   5.028  0.00  0.00    -0.271 OA
BRANCH   8  10
ATOM     10  C   UNL     1       7.620   7.657   5.989  0.00  0.00    +0.068 C 
ATOM     11  C   UNL     1       7.479   8.497   7.034  0.00  0.00    +0.013 C 
BRANCH  11  12
ATOM     12  C   UNL     1       6.521   8.184   8.106  0.00  0.00    -0.019 A 
ATOM     13  C   UNL     1       5.758   7.013   8.047  0.00  0.00    +0.046 A 
ATOM     14  C   UNL     1       4.861   6.725   9.056  0.00  0.00    +0.127 A 
ATOM     15  C   UNL     1       4.714   7.594  10.126  0.00  0.00    +0.076 A 
ATOM     16  C   UNL     1       5.466   8.756  10.191  0.00  0.00    +0.127 A 
ATOM     17  C   UNL     1       6.372   9.053   9.192  0.00  0.00    +0.046 A 
ATOM     18  F   UNL     1       5.317   9.598  11.237  0.00  0.00    -0.205 F 
ATOM     19  F   UNL     1       4.123   5.595   9.000  0.00  0.00    -0.205 F 
ENDBRANCH  11  12
ENDBRANCH   8  10
ENDBRANCH   1   2
BRANCH   1  23
ATOM     20  C   UNL     1       5.607   2.556  -1.518  0.00  0.00    +0.014 C 
ATOM     21  C   UNL     1       6.536   2.555  -0.301  0.00  0.00    -0.011 C 
ATOM     22  C   UNL     1       7.317   3.870  -0.261  0.00  0.00    -0.078 C 
ATOM     23  N   UNL     1       6.382   4.997  -0.164  0.00  0.00    +0.383 N 
ATOM     24  C   UNL     1       5.535   5.047  -1.362  0.00  0.00    -0.078 C 
ATOM     25  C   UNL     1       4.685   3.777  -1.444  0.00  0.00    -0.011 C 
ATOM     26  H   UNL     1       5.800   4.880   0.653  0.00  0.00    -0.081 HD
BRANCH  20  30
ATOM     27  C   UNL     1       5.159  -0.900  -4.513  0.00  0.00    +0.020 A 
ATOM     28  C   UNL     1       5.433   0.205  -3.770  0.00  0.00    +0.013 A 
ATOM     29  C   UNL     1       4.740   0.349  -2.484  0.00  0.00    +0.018 A 
ATOM     30  C   UNL     1       4.777   1.298  -1.521  0.00  0.00    -0.037 C 
ATOM     31  C   UNL     1       3.817   0.839  -0.446  0.00  0.00    +0.146 C 
ATOM     32  N   UNL     1       3.264  -0.435  -0.918  0.00  0.00    -0.365 N 
ATOM     33  C   UNL     1       3.793  -0.716  -2.084  0.00  0.00    +0.134 A 
ATOM     34  N   UNL     1       3.614  -1.762  -2.919  0.00  0.00    -0.238 NA
ATOM     35  C   UNL     1       4.247  -1.857  -4.055  0.00  0.00    +0.113 A 
ATOM     36  H   UNL     1       2.616  -0.980  -0.445  0.00  0.00    +0.161 HD
ENDBRANCH  20  30
ENDBRANCH   1  23
BRANCH   1  37
ATOM     37  C   UNL     1       8.086   6.386  -1.240  0.00  0.00    +0.141 C 
BRANCH  37  38
ATOM     38  O   UNL     1       9.101   5.384  -1.159  0.00  0.00    -0.397 OA
ATOM     39  H   UNL     1       9.739   5.410  -1.885  0.00  0.00    +0.209 HD
ENDBRANCH  37  38
ENDBRANCH   1  37
TORSDOF 7
