REMARK  Name = ZINC43399899
REMARK  8 active torsions:
REMARK  status: ('A' for Active; 'I' for Inactive)
REMARK    1  A    between atoms: C_1  and  C_2
REMARK    2  A    between atoms: C_5  and  C_18
REMARK    3  A    between atoms: C_6  and  N_8
REMARK    4  A    between atoms: N_11  and  C_14
REMARK    5  A    between atoms: C_14  and  C_15
REMARK    6  A    between atoms: C_14  and  C_16
REMARK    7  A    between atoms: C_14  and  C_17
REMARK    8  A    between atoms: N_19  and  O_20
REMARK                            x       y       z     vdW  Elec       q    Type
REMARK                         _______ _______ _______ _____ _____    ______ ____
ROOT
ATOM      1  C   UNL     1       2.364  -0.496  -1.463  0.00  0.00    +0.065 C 
ATOM      2  C   UNL     1       1.148  -0.949  -0.697  0.00  0.00    +0.040 A 
ATOM      3  C   UNL     1      -0.110  -0.715  -1.220  0.00  0.00    +0.024 A 
ATOM      4  C   UNL     1      -1.229  -1.129  -0.516  0.00  0.00    +0.016 A 
ATOM      5  C   UNL     1      -1.041  -1.776   0.709  0.00  0.00    +0.058 A 
ATOM      6  C   UNL     1       0.268  -1.977   1.174  0.00  0.00    +0.132 A 
ATOM      7  N   UNL     1       1.303  -1.565   0.459  0.00  0.00    -0.237 NA
ENDROOT
BRANCH   6   8
ATOM      8  N   UNL     1       0.477  -2.615   2.386  0.00  0.00    -0.318 N 
ATOM      9  C   UNL     1       0.736  -4.062   2.443  0.00  0.00    +0.088 C 
ATOM     10  C   UNL     1       1.987  -4.298   3.296  0.00  0.00    -0.059 C 
ATOM     11  N   UNL     1       1.812  -3.661   4.607  0.00  0.00    +0.385 N 
ATOM     12  C   UNL     1       1.712  -2.205   4.447  0.00  0.00    -0.059 C 
ATOM     13  C   UNL     1       0.453  -1.864   3.650  0.00  0.00    +0.088 C 
ATOM     14  H   UNL     1       0.969  -4.009   5.039  0.00  0.00    -0.081 HD
BRANCH  11  15
ATOM     15  C   UNL     1       2.963  -3.980   5.462  0.00  0.00    -0.074 C 
ATOM     16  C   UNL     1       4.244  -3.458   4.808  0.00  0.00    -0.010 C 
ATOM     17  C   UNL     1       2.782  -3.317   6.829  0.00  0.00    -0.010 C 
ATOM     18  C   UNL     1       3.062  -5.496   5.640  0.00  0.00    -0.010 C 
ENDBRANCH  11  15
ENDBRANCH   6   8
BRANCH   5  19
ATOM     19  C   UNL     1      -2.200  -2.238   1.500  0.00  0.00    +0.166 C 
ATOM     20  N   UNL     1      -2.012  -2.933   2.585  0.00  0.00    -0.071 NA
ATOM     21  N   UNL     1      -3.487  -1.933   1.088  0.00  0.00    -0.340 N 
ATOM     22  H   UNL     1      -3.627  -1.416   0.279  0.00  0.00    +0.144 HD
ATOM     23  H   UNL     1      -4.247  -2.237   1.607  0.00  0.00    +0.144 HD
BRANCH  20  24
ATOM     24  O   UNL     1      -3.121  -3.467   3.285  0.00  0.00    -0.408 OA
ATOM     25  H   UNL     1      -2.882  -3.967   4.078  0.00  0.00    +0.328 HD
ENDBRANCH  20  24
ENDBRANCH   5  19
TORSDOF 4
