REMARK  Name = ZINC01490515
REMARK  7 active torsions:
REMARK  status: ('A' for Active; 'I' for Inactive)
REMARK    1  A    between atoms: N_11  and  C_12
REMARK    2  A    between atoms: C_17  and  C_18
REMARK    3  A    between atoms: C_17  and  N_71
REMARK    4  A    between atoms: N_20  and  C_21
REMARK    5  A    between atoms: C_27  and  O_40
REMARK    6  A    between atoms: C_31  and  C_33
REMARK    7  A    between atoms: C_33  and  C_34
REMARK                            x       y       z     vdW  Elec       q    Type
REMARK                         _______ _______ _______ _____ _____    ______ ____
ROOT
ATOM      1  C   UNL     1      -1.113  -3.569  -2.377  0.00  0.00    +0.197 C 
ATOM      2  O   UNL     1      -1.568  -4.517  -1.773  0.00  0.00    -0.278 OA
ATOM      3  N   UNL     1      -0.314  -2.688  -1.744  0.00  0.00    -0.313 N 
ATOM      4  H   UNL     1       0.051  -1.930  -2.227  0.00  0.00    +0.149 HD
ENDROOT
BRANCH   3   5
ATOM      5  C   UNL     1       0.005  -2.874  -0.326  0.00  0.00    +0.081 C 
ATOM      6  C   UNL     1      -1.104  -2.261   0.537  0.00  0.00    +0.027 C 
ATOM      7  C   UNL     1      -1.370  -0.841   0.043  0.00  0.00    +0.037 C 
ATOM      8  C   UNL     1      -0.083  -0.064  -0.053  0.00  0.00    -0.040 A 
ATOM      9  C   UNL     1      -0.168   1.320  -0.123  0.00  0.00    +0.049 A 
ATOM     10  C   UNL     1       0.977   2.091  -0.218  0.00  0.00    +0.117 A 
ATOM     11  C   UNL     1       2.220   1.474  -0.245  0.00  0.00    +0.046 A 
ATOM     12  C   UNL     1       2.302   0.100  -0.175  0.00  0.00    +0.008 A 
ATOM     13  C   UNL     1       1.151  -0.674  -0.076  0.00  0.00    -0.039 A 
ATOM     14  C   UNL     1       1.318  -2.169   0.005  0.00  0.00    +0.044 C 
BRANCH  10  15
ATOM     15  O   UNL     1       0.886   3.445  -0.284  0.00  0.00    -0.507 OA
ATOM     16  H   UNL     1       0.901   3.884   0.578  0.00  0.00    +0.292 HD
ENDBRANCH  10  15
BRANCH  14  17
ATOM     17  C   UNL     1       2.393  -2.611  -0.991  0.00  0.00    +0.046 C 
BRANCH  17  18
ATOM     18  C   UNL     1       2.681  -4.078  -0.799  0.00  0.00    -0.029 A 
ATOM     19  C   UNL     1       3.581  -4.496   0.170  0.00  0.00    +0.006 A 
ATOM     20  C   UNL     1       3.811  -5.856   0.313  0.00  0.00    +0.020 A 
ATOM     21  C   UNL     1       3.149  -6.742  -0.515  0.00  0.00    +0.111 A 
ATOM     22  N   UNL     1       2.304  -6.308  -1.429  0.00  0.00    -0.263 NA
ATOM     23  C   UNL     1       2.057  -5.023  -1.591  0.00  0.00    +0.114 A 
ENDBRANCH  17  18
ENDBRANCH  14  17
ENDBRANCH   3   5
BRANCH   1  24
ATOM     24  C   UNL     1      -1.440  -3.377  -3.835  0.00  0.00    +0.019 C 
BRANCH  24  30
ATOM     25  C   UNL     1      -3.198  -6.634  -5.975  0.00  0.00    +0.089 C 
ATOM     26  C   UNL     1      -3.874  -5.261  -6.004  0.00  0.00    +0.006 C 
ATOM     27  C   UNL     1      -2.852  -4.186  -5.628  0.00  0.00    -0.076 C 
ATOM     28  C   UNL     1      -1.626  -5.755  -4.246  0.00  0.00    -0.076 C 
ATOM     29  C   UNL     1      -2.612  -6.877  -4.582  0.00  0.00    +0.006 C 
ATOM     30  N   UNL     1      -2.344  -4.463  -4.267  0.00  0.00    +0.386 N 
ATOM     31  H   UNL     1      -3.138  -4.513  -3.619  0.00  0.00    -0.081 HD
BRANCH  25  42
ATOM     32  C   UNL     1      -4.567 -10.553  -9.225  0.00  0.00    +0.002 A 
ATOM     33  C   UNL     1      -3.443  -9.750  -9.313  0.00  0.00    +0.002 A 
ATOM     34  C   UNL     1      -3.221  -8.757  -8.379  0.00  0.00    +0.028 A 
ATOM     35  C   UNL     1      -4.132  -8.560  -7.351  0.00  0.00    +0.070 A 
ATOM     36  C   UNL     1      -5.263  -9.373  -7.260  0.00  0.00    +0.067 A 
ATOM     37  C   UNL     1      -5.477 -10.367  -8.203  0.00  0.00    +0.028 A 
ATOM     38  N   UNL     1      -5.975  -8.948  -6.141  0.00  0.00    -0.306 N 
ATOM     39  H   UNL     1      -6.811  -9.323  -5.824  0.00  0.00    +0.170 HD
ATOM     40  C   UNL     1      -5.304  -7.928  -5.574  0.00  0.00    +0.328 A 
ATOM     41  O   UNL     1      -5.655  -7.327  -4.576  0.00  0.00    -0.247 OA
ATOM     42  N   UNL     1      -4.186  -7.673  -6.279  0.00  0.00    -0.289 N 
ENDBRANCH  25  42
ENDBRANCH  24  30
ENDBRANCH   1  24
TORSDOF 7
