REMARK  Name = ZINC56604873
REMARK  7 active torsions:
REMARK  status: ('A' for Active; 'I' for Inactive)
REMARK    1  A    between atoms: C_1  and  C_2
REMARK    2  A    between atoms: C_2  and  C_3
REMARK    3  A    between atoms: C_3  and  C_5
REMARK    4  A    between atoms: C_3  and  N_15
REMARK    5  A    between atoms: N_18  and  C_19
REMARK    6  A    between atoms: C_24  and  C_25
REMARK    7  A    between atoms: C_25  and  C_26
REMARK                            x       y       z     vdW  Elec       q    Type
REMARK                         _______ _______ _______ _____ _____    ______ ____
ROOT
ATOM      1  N   UNL     1      -0.067  -0.108  -2.431  0.00  0.00    -0.292 N 
ATOM      2  C   UNL     1       0.104   1.110  -2.982  0.00  0.00    +0.304 C 
ATOM      3  O   UNL     1       0.897   1.891  -2.494  0.00  0.00    -0.252 OA
ATOM      4  N   UNL     1      -0.604   1.462  -4.073  0.00  0.00    -0.269 N 
ATOM      5  H   UNL     1      -0.701  -0.732  -2.820  0.00  0.00    +0.151 HD
ATOM      6  H   UNL     1      -1.176   0.812  -4.511  0.00  0.00    +0.156 HD
ENDROOT
BRANCH   4   7
ATOM      7  C   UNL     1      -0.515   2.765  -4.575  0.00  0.00    +0.038 A 
ATOM      8  C   UNL     1      -0.152   3.811  -3.736  0.00  0.00    +0.023 A 
ATOM      9  C   UNL     1      -0.064   5.095  -4.235  0.00  0.00    +0.002 A 
ATOM     10  C   UNL     1      -0.337   5.341  -5.568  0.00  0.00    +0.000 A 
ATOM     11  C   UNL     1      -0.699   4.303  -6.406  0.00  0.00    +0.006 A 
ATOM     12  C   UNL     1      -0.782   3.014  -5.915  0.00  0.00    -0.017 A 
BRANCH  12  13
ATOM     13  C   UNL     1      -1.170   1.882  -6.830  0.00  0.00    +0.132 C 
BRANCH  13  14
ATOM     14  C   UNL     1      -2.654   1.639  -6.728  0.00  0.00    +0.215 C 
ATOM     15  O   UNL     1      -3.330   2.319  -5.985  0.00  0.00    -0.276 OA
ATOM     16  N   UNL     1      -3.230   0.667  -7.462  0.00  0.00    -0.329 N 
ATOM     17  H   UNL     1      -2.689   0.123  -8.056  0.00  0.00    +0.145 HD
ATOM     18  H   UNL     1      -4.185   0.511  -7.397  0.00  0.00    +0.145 HD
ENDBRANCH  13  14
ENDBRANCH  12  13
ENDBRANCH   4   7
BRANCH   1  19
ATOM     19  C   UNL     1       0.702  -0.491  -1.245  0.00  0.00    +0.105 C 
BRANCH  19  20
ATOM     20  C   UNL     1       0.820  -1.992  -1.185  0.00  0.00    -0.023 A 
ATOM     21  C   UNL     1      -0.261  -2.783  -1.527  0.00  0.00    +0.009 A 
ATOM     22  C   UNL     1      -0.157  -4.160  -1.472  0.00  0.00    +0.050 A 
ATOM     23  C   UNL     1       1.032  -4.752  -1.073  0.00  0.00    +0.162 A 
ATOM     24  C   UNL     1       2.119  -3.957  -0.732  0.00  0.00    +0.162 A 
ATOM     25  C   UNL     1       2.010  -2.575  -0.793  0.00  0.00    +0.055 A 
ATOM     26  O   UNL     1       3.298  -4.517  -0.345  0.00  0.00    -0.485 OA
ATOM     27  C   UNL     1       3.257  -5.891   0.056  0.00  0.00    +0.270 C 
ATOM     28  C   UNL     1       2.435  -6.670  -0.979  0.00  0.00    +0.270 C 
ATOM     29  O   UNL     1       1.118  -6.109  -1.020  0.00  0.00    -0.485 OA
ENDBRANCH  19  20
BRANCH  19  31
ATOM     30  C   UNL     1      -0.019   1.546   0.010  0.00  0.00    +0.006 C 
ATOM     31  C   UNL     1      -0.010   0.016   0.011  0.00  0.00    +0.024 C 
ENDBRANCH  19  31
ENDBRANCH   1  19
TORSDOF 6
