REMARK  Name = ZINC13429278
REMARK  9 active torsions:
REMARK  status: ('A' for Active; 'I' for Inactive)
REMARK    1  A    between atoms: C_1  and  C_2
REMARK    2  A    between atoms: C_2  and  C_3
REMARK    3  A    between atoms: C_3  and  C_5
REMARK    4  A    between atoms: C_3  and  C_7
REMARK    5  A    between atoms: C_7  and  C_9
REMARK    6  A    between atoms: C_9  and  S_10
REMARK    7  A    between atoms: S_10  and  C_11
REMARK    8  A    between atoms: N_25  and  C_26
REMARK    9  A    between atoms: C_31  and  C_32
REMARK                            x       y       z     vdW  Elec       q    Type
REMARK                         _______ _______ _______ _____ _____    ______ ____
ROOT
ATOM      1  C   UNL     1       6.025   5.819   1.341  0.00  0.00    +0.178 A 
ATOM      2  N   UNL     1       5.183   4.962   1.881  0.00  0.00    -0.215 NA
ATOM      3  C   UNL     1       4.357   4.251   1.122  0.00  0.00    +0.117 A 
ATOM      4  C   UNL     1       4.338   4.370  -0.276  0.00  0.00    +0.076 A 
ATOM      5  C   UNL     1       3.374   3.518  -0.983  0.00  0.00    -0.023 A 
ATOM      6  C   UNL     1       2.597   2.722  -0.223  0.00  0.00    -0.004 A 
ATOM      7  S   UNL     1       3.106   3.035   1.448  0.00  0.00    -0.073 S 
ATOM      8  C   UNL     1       1.531   1.774  -0.676  0.00  0.00    +0.043 C 
ATOM      9  C   UNL     1       2.081   0.897  -1.809  0.00  0.00    +0.005 C 
ATOM     10  C   UNL     1       1.812   1.601  -3.136  0.00  0.00    +0.001 C 
ATOM     11  C   UNL     1       1.883   3.115  -2.947  0.00  0.00    +0.005 C 
ATOM     12  C   UNL     1       3.279   3.534  -2.506  0.00  0.00    +0.037 C 
ATOM     13  C   UNL     1       5.263   5.306  -0.837  0.00  0.00    +0.268 A 
ATOM     14  O   UNL     1       5.316   5.476  -2.043  0.00  0.00    -0.267 OA
ATOM     15  N   UNL     1       6.072   5.998  -0.013  0.00  0.00    -0.255 N 
ENDROOT
BRANCH  15  16
ATOM     16  C   UNL     1       6.979   6.918  -0.555  0.00  0.00    +0.064 A 
ATOM     17  C   UNL     1       6.600   8.241  -0.743  0.00  0.00    +0.027 A 
ATOM     18  C   UNL     1       7.498   9.147  -1.271  0.00  0.00    +0.002 A 
ATOM     19  C   UNL     1       8.771   8.736  -1.624  0.00  0.00    +0.001 A 
ATOM     20  C   UNL     1       9.150   7.419  -1.442  0.00  0.00    +0.014 A 
ATOM     21  C   UNL     1       8.257   6.509  -0.909  0.00  0.00    +0.079 A 
BRANCH  21  22
ATOM     22  C   UNL     1       8.671   5.073  -0.712  0.00  0.00    +0.419 C 
ATOM     23  F   UNL     1       9.993   4.906  -1.140  0.00  0.00    -0.166 F 
ATOM     24  F   UNL     1       8.575   4.742   0.643  0.00  0.00    -0.166 F 
ATOM     25  F   UNL     1       7.831   4.239  -1.457  0.00  0.00    -0.166 F 
ENDBRANCH  21  22
ENDBRANCH  15  16
BRANCH   1  26
ATOM     26  S   UNL     1       7.105   6.748   2.378  0.00  0.00    -0.080 S 
BRANCH  26  27
ATOM     27  C   UNL     1       6.608   6.113   3.998  0.00  0.00    +0.153 C 
BRANCH  27  28
ATOM     28  C   UNL     1       7.423   6.785   5.073  0.00  0.00    +0.166 C 
ATOM     29  O   UNL     1       8.255   7.608   4.774  0.00  0.00    -0.295 OA
BRANCH  28  30
ATOM     30  C   UNL     1       7.201   6.429   6.521  0.00  0.00    +0.199 C 
BRANCH  30  32
ATOM     31  C   UNL     1       8.532   6.341   8.764  0.00  0.00    +0.059 C 
ATOM     32  C   UNL     1       8.455   6.716   7.306  0.00  0.00    +0.008 C 
ATOM     33  H   UNL     1      10.303   7.503   7.157  0.00  0.00    +0.155 HD
ATOM     34  N   UNL     1       9.433   7.288   6.669  0.00  0.00    -0.404 N 
ATOM     35  H   UNL     1       9.331   7.524   5.675  0.00  0.00    +0.155 HD
ENDBRANCH  30  32
BRANCH  30  36
ATOM     36  C   UNL     1       6.091   7.232   7.058  0.00  0.00    +0.079 C 
ATOM     37  N   UNL     1       5.234   7.852   7.473  0.00  0.00    -0.195 NA
ENDBRANCH  30  36
ENDBRANCH  28  30
ENDBRANCH  27  28
ENDBRANCH  26  27
ENDBRANCH   1  26
TORSDOF 8
