REMARK  Name = ZINC14533728
REMARK  9 active torsions:
REMARK  status: ('A' for Active; 'I' for Inactive)
REMARK    1  A    between atoms: C_1  and  C_2
REMARK    2  A    between atoms: C_2  and  C_3
REMARK    3  A    between atoms: C_2  and  N_4
REMARK    4  A    between atoms: C_6  and  O_22
REMARK    5  A    between atoms: C_13  and  C_15
REMARK    6  A    between atoms: O_22  and  C_23
REMARK    7  A    between atoms: C_23  and  C_24
REMARK    8  A    between atoms: C_27  and  O_30
REMARK    9  A    between atoms: O_30  and  C_31
REMARK                            x       y       z     vdW  Elec       q    Type
REMARK                         _______ _______ _______ _____ _____    ______ ____
ROOT
ATOM      1  N   UNL     1      -1.102  -7.952  -1.215  0.00  0.00    -0.295 N 
ATOM      2  C   UNL     1      -0.481  -6.706  -1.633  0.00  0.00    +0.141 C 
ATOM      3  C   UNL     1       0.639  -6.279  -0.680  0.00  0.00    +0.153 C 
ATOM      4  C   UNL     1       1.951  -6.968  -1.105  0.00  0.00    +0.141 C 
ATOM      5  N   UNL     1       1.752  -8.408  -1.045  0.00  0.00    -0.286 N 
ATOM      6  C   UNL     1       0.835  -8.943  -0.033  0.00  0.00    +0.204 C 
ATOM      7  C   UNL     1      -0.553  -8.995  -0.604  0.00  0.00    +0.233 C 
ATOM      8  O   UNL     1      -1.192 -10.021  -0.503  0.00  0.00    -0.274 OA
ATOM      9  C   UNL     1       2.394  -9.230  -1.899  0.00  0.00    +0.249 C 
ATOM     10  O   UNL     1       3.066  -8.766  -2.799  0.00  0.00    -0.270 OA
ENDROOT
BRANCH   9  11
ATOM     11  C   UNL     1       2.280 -10.695  -1.740  0.00  0.00    +0.056 A 
ATOM     12  C   UNL     1       1.025 -11.316  -1.740  0.00  0.00    +0.016 A 
ATOM     13  C   UNL     1       0.974 -12.691  -1.593  0.00  0.00    +0.022 A 
ATOM     14  C   UNL     1       2.151 -13.401  -1.442  0.00  0.00    +0.133 A 
ATOM     15  N   UNL     1       3.321 -12.789  -1.441  0.00  0.00    -0.146 N 
ATOM     16  O   UNL     1       4.500 -13.557  -1.283  0.00  0.00    -0.164 OA
ATOM     17  C   UNL     1       3.422 -11.482  -1.583  0.00  0.00    +0.146 A 
ENDBRANCH   9  11
BRANCH   1  19
ATOM     18  C   UNL     1      -3.309  -7.036  -0.693  0.00  0.00    +0.028 C 
ATOM     19  C   UNL     1      -2.533  -8.073  -1.507  0.00  0.00    +0.070 C 
ATOM     20  C   UNL     1      -2.771  -7.832  -2.999  0.00  0.00    +0.028 C 
ENDBRANCH   1  19
BRANCH   3  21
ATOM     21  O   UNL     1       0.803  -4.861  -0.739  0.00  0.00    -0.369 OA
BRANCH  21  22
ATOM     22  C   UNL     1       1.270  -4.278   0.479  0.00  0.00    +0.195 C 
BRANCH  22  23
ATOM     23  C   UNL     1       1.406  -2.787   0.303  0.00  0.00    -0.022 A 
ATOM     24  C   UNL     1       0.336  -1.959   0.587  0.00  0.00    +0.009 A 
ATOM     25  C   UNL     1       0.458  -0.592   0.427  0.00  0.00    +0.046 A 
ATOM     26  C   UNL     1       1.655  -0.051  -0.019  0.00  0.00    +0.130 A 
ATOM     27  C   UNL     1       2.725  -0.885  -0.308  0.00  0.00    +0.046 A 
ATOM     28  C   UNL     1       2.600  -2.251  -0.141  0.00  0.00    +0.009 A 
BRANCH  26  29
ATOM     29  O   UNL     1       1.777   1.293  -0.177  0.00  0.00    -0.406 OA
BRANCH  29  30
ATOM     30  C   UNL     1       3.039   1.780  -0.639  0.00  0.00    +0.575 C 
ATOM     31  F   UNL     1       3.321   1.226  -1.893  0.00  0.00    -0.133 F 
ATOM     32  F   UNL     1       2.990   3.174  -0.745  0.00  0.00    -0.133 F 
ATOM     33  F   UNL     1       4.040   1.415   0.267  0.00  0.00    -0.133 F 
ENDBRANCH  29  30
ENDBRANCH  26  29
ENDBRANCH  22  23
ENDBRANCH  21  22
ENDBRANCH   3  21
TORSDOF 7
