REMARK  Name = ZINC21016860
REMARK  12 active torsions:
REMARK  status: ('A' for Active; 'I' for Inactive)
REMARK    1  A    between atoms: C_1  and  C_2
REMARK    2  A    between atoms: C_2  and  C_3
REMARK    3  A    between atoms: C_2  and  C_4
REMARK    4  A    between atoms: C_4  and  C_5
REMARK    5  A    between atoms: C_11  and  C_15
REMARK    6  A    between atoms: C_15  and  O_16
REMARK    7  A    between atoms: O_16  and  C_17
REMARK    8  A    between atoms: C_17  and  C_19
REMARK    9  A    between atoms: C_24  and  N_25
REMARK   10  A    between atoms: C_26  and  C_28
REMARK   11  A    between atoms: C_28  and  O_29
REMARK   12  A    between atoms: O_29  and  C_30
REMARK                            x       y       z     vdW  Elec       q    Type
REMARK                         _______ _______ _______ _____ _____    ______ ____
ROOT
ATOM      1  C   UNL     1      -0.614  -1.839   1.406  0.00  0.00    +0.341 C 
ATOM      2  O   UNL     1      -0.210  -2.567   0.520  0.00  0.00    -0.245 OA
ENDROOT
BRANCH   1   3
ATOM      3  C   UNL     1      -1.166  -2.421   2.643  0.00  0.00    +0.080 A 
ATOM      4  C   UNL     1      -1.532  -1.592   3.707  0.00  0.00    +0.017 A 
ATOM      5  C   UNL     1      -2.052  -2.141   4.858  0.00  0.00    +0.001 A 
ATOM      6  C   UNL     1      -2.204  -3.514   4.972  0.00  0.00    +0.002 A 
ATOM      7  C   UNL     1      -1.843  -4.346   3.932  0.00  0.00    +0.024 A 
ATOM      8  C   UNL     1      -1.322  -3.810   2.761  0.00  0.00    +0.048 A 
BRANCH   8   9
ATOM      9  N   UNL     1      -0.956  -4.648   1.710  0.00  0.00    -0.282 N 
ATOM     10  C   UNL     1      -1.665  -5.766   1.462  0.00  0.00    +0.255 C 
ATOM     11  O   UNL     1      -2.677  -5.995   2.091  0.00  0.00    -0.272 OA
ATOM     12  H   UNL     1      -0.088  -4.396   1.083  0.00  0.00    +0.155 HD
BRANCH  10  13
ATOM     13  C   UNL     1      -1.201  -6.733   0.404  0.00  0.00    +0.324 C 
BRANCH  13  14
ATOM     14  O   UNL     1      -2.113  -7.831   0.329  0.00  0.00    -0.483 OA
BRANCH  14  15
ATOM     15  C   UNL     1      -1.838  -8.800  -0.583  0.00  0.00    +0.121 A 
ATOM     16  C   UNL     1      -0.717  -8.694  -1.394  0.00  0.00    +0.045 A 
ATOM     17  C   UNL     1      -0.436  -9.684  -2.316  0.00  0.00    +0.004 A 
ATOM     18  C   UNL     1      -1.278 -10.773  -2.440  0.00  0.00    +0.000 A 
ATOM     19  C   UNL     1      -2.399 -10.879  -1.637  0.00  0.00    +0.004 A 
ATOM     20  C   UNL     1      -2.681  -9.895  -0.709  0.00  0.00    +0.045 A 
ENDBRANCH  14  15
ENDBRANCH  13  14
ENDBRANCH  10  13
ENDBRANCH   8   9
ENDBRANCH   1   3
BRANCH   1  21
ATOM     21  O   UNL     1      -0.558  -0.501   1.257  0.00  0.00    -0.455 OA
BRANCH  21  22
ATOM     22  C   UNL     1      -0.003   0.001   0.013  0.00  0.00    +0.288 C 
BRANCH  22  29
ATOM     23  C   UNL     1      -1.496   6.144   0.088  0.00  0.00    +0.103 A 
ATOM     24  N   UNL     1      -0.299   5.641   0.067  0.00  0.00    -0.159 NA
ATOM     25  N   UNL     1      -0.084   4.267   0.051  0.00  0.00    -0.171 N 
ATOM     26  C   UNL     1       1.118   3.619   0.029  0.00  0.00    +0.275 A 
ATOM     27  O   UNL     1       2.158   4.259   0.021  0.00  0.00    -0.266 OA
ATOM     28  C   UNL     1       1.156   2.224   0.017  0.00  0.00    +0.099 A 
ATOM     29  C   UNL     1      -0.022   1.508   0.026  0.00  0.00    +0.087 A 
ATOM     30  N   UNL     1      -1.175   2.171   0.042  0.00  0.00    -0.223 NA
ATOM     31  C   UNL     1      -1.202   3.479   0.060  0.00  0.00    +0.199 A 
ATOM     32  S   UNL     1      -2.516   4.678   0.089  0.00  0.00    -0.033 S 
BRANCH  23  33
ATOM     33  C   UNL     1      -1.916   7.591   0.107  0.00  0.00    +0.068 C 
BRANCH  33  35
ATOM     34  C   UNL     1       0.079   8.297  -1.221  0.00  0.00    +0.007 C 
ATOM     35  C   UNL     1      -0.673   8.483   0.099  0.00  0.00    -0.011 C 
ATOM     36  C   UNL     1      -1.095   9.946   0.244  0.00  0.00    +0.007 C 
ENDBRANCH  33  35
ENDBRANCH  23  33
ENDBRANCH  22  29
ENDBRANCH  21  22
ENDBRANCH   1  21
TORSDOF 10
