REMARK  Name = ZINC41512260
REMARK  12 active torsions:
REMARK  status: ('A' for Active; 'I' for Inactive)
REMARK    1  A    between atoms: C_1  and  C_2
REMARK    2  A    between atoms: C_4  and  O_34
REMARK    3  A    between atoms: C_5  and  C_25
REMARK    4  A    between atoms: C_11  and  C_12
REMARK    5  A    between atoms: C_15  and  O_22
REMARK    6  A    between atoms: C_16  and  O_20
REMARK    7  A    between atoms: C_17  and  O_18
REMARK    8  A    between atoms: O_18  and  C_19
REMARK    9  A    between atoms: O_20  and  C_21
REMARK   10  A    between atoms: O_22  and  C_23
REMARK   11  A    between atoms: C_25  and  N_26
REMARK   12  A    between atoms: C_30  and  C_33
REMARK                            x       y       z     vdW  Elec       q    Type
REMARK                         _______ _______ _______ _____ _____    ______ ____
ROOT
ATOM      1  C   UNL     1       1.276   1.343   0.060  0.00  0.00    +0.045 C 
ATOM      2  C   UNL     1       0.862  -0.106   0.034  0.00  0.00    -0.033 A 
ATOM      3  C   UNL     1       0.766  -0.768  -1.157  0.00  0.00    +0.050 A 
ATOM      4  C   UNL     1       0.384  -2.107  -1.184  0.00  0.00    +0.122 A 
ATOM      5  C   UNL     1       0.099  -2.782  -0.008  0.00  0.00    +0.020 A 
ATOM      6  C   UNL     1       0.192  -2.123   1.211  0.00  0.00    +0.145 A 
ATOM      7  C   UNL     1       0.583  -0.774   1.226  0.00  0.00    +0.071 A 
ATOM      8  C   UNL     1       0.598  -0.361   2.641  0.00  0.00    +0.232 C 
ATOM      9  O   UNL     1       0.877   0.735   3.095  0.00  0.00    -0.283 OA
ATOM     10  C   UNL     1       0.199  -1.565   3.381  0.00  0.00    +0.176 C 
ATOM     11  C   UNL     1       0.068  -1.672   4.729  0.00  0.00    +0.062 C 
ATOM     12  O   UNL     1      -0.028  -2.546   2.475  0.00  0.00    -0.451 OA
ENDROOT
BRANCH  11  13
ATOM     13  C   UNL     1       0.169  -0.477   5.572  0.00  0.00    +0.024 A 
ATOM     14  C   UNL     1      -0.448   0.718   5.177  0.00  0.00    +0.015 A 
ATOM     15  C   UNL     1      -0.351   1.837   5.971  0.00  0.00    +0.050 A 
ATOM     16  C   UNL     1       0.357   1.790   7.167  0.00  0.00    +0.165 A 
ATOM     17  C   UNL     1       0.974   0.611   7.572  0.00  0.00    +0.204 A 
ATOM     18  C   UNL     1       0.880  -0.526   6.784  0.00  0.00    +0.172 A 
BRANCH  18  19
ATOM     19  O   UNL     1       1.477  -1.681   7.179  0.00  0.00    -0.491 OA
ATOM     20  C   UNL     1       2.826  -1.891   6.757  0.00  0.00    +0.277 C 
ENDBRANCH  18  19
BRANCH  17  21
ATOM     21  O   UNL     1       1.666   0.572   8.743  0.00  0.00    -0.488 OA
ATOM     22  C   UNL     1       0.935   0.210   9.917  0.00  0.00    +0.277 C 
ENDBRANCH  17  21
BRANCH  16  23
ATOM     23  O   UNL     1       0.447   2.901   7.943  0.00  0.00    -0.491 OA
ATOM     24  C   UNL     1      -0.209   4.079   7.469  0.00  0.00    +0.277 C 
ENDBRANCH  16  23
ENDBRANCH  11  13
BRANCH   4  25
ATOM     25  O   UNL     1       0.291  -2.757  -2.372  0.00  0.00    -0.506 OA
ATOM     26  H   UNL     1       1.111  -3.187  -2.651  0.00  0.00    +0.292 HD
ENDBRANCH   4  25
BRANCH   5  27
ATOM     27  C   UNL     1      -0.314  -4.231  -0.052  0.00  0.00    -0.036 C 
BRANCH  27  28
ATOM     28  N   UNL     1       0.880  -5.082   0.037  0.00  0.00    +0.383 N 
ATOM     29  C   UNL     1       1.719  -4.873  -1.149  0.00  0.00    -0.078 C 
ATOM     30  C   UNL     1       3.002  -5.697  -1.023  0.00  0.00    -0.018 C 
ATOM     31  C   UNL     1       2.641  -7.180  -0.907  0.00  0.00    -0.001 C 
ATOM     32  C   UNL     1       1.706  -7.376   0.290  0.00  0.00    -0.031 C 
ATOM     33  C   UNL     1       0.470  -6.490   0.115  0.00  0.00    -0.075 C 
ATOM     34  C   UNL     1       1.277  -8.842   0.368  0.00  0.00    +0.005 C 
ATOM     35  H   UNL     1       1.404  -4.840   0.865  0.00  0.00    -0.081 HD
ENDBRANCH  27  28
ENDBRANCH   5  27
TORSDOF 7
