REMARK  Name = ZINC01339454
REMARK  9 active torsions:
REMARK  status: ('A' for Active; 'I' for Inactive)
REMARK    1  A    between atoms: C_1  and  C_2
REMARK    2  A    between atoms: C_5  and  N_9
REMARK    3  A    between atoms: N_9  and  C_10
REMARK    4  A    between atoms: C_10  and  C_12
REMARK    5  A    between atoms: C_10  and  C_18
REMARK    6  A    between atoms: N_20  and  C_21
REMARK    7  A    between atoms: C_21  and  C_22
REMARK    8  A    between atoms: C_27  and  C_29
REMARK    9  A    between atoms: C_29  and  N_30
REMARK                            x       y       z     vdW  Elec       q    Type
REMARK                         _______ _______ _______ _____ _____    ______ ____
ROOT
ATOM      1  N   UNL     1      -0.371   1.543  -5.018  0.00  0.00    -0.254 N 
ATOM      2  C   UNL     1      -1.037   0.962  -6.035  0.00  0.00    +0.242 C 
ATOM      3  O   UNL     1      -2.177   0.581  -5.876  0.00  0.00    -0.273 OA
ENDROOT
BRANCH   1   8
ATOM      4  C   UNL     1       4.803   3.711  -5.875  0.00  0.00    +0.047 C 
ATOM      5  C   UNL     1       3.429   3.135  -5.648  0.00  0.00    -0.015 A 
ATOM      6  C   UNL     1       2.358   3.976  -5.412  0.00  0.00    +0.008 A 
ATOM      7  C   UNL     1       1.097   3.451  -5.203  0.00  0.00    +0.024 A 
ATOM      8  C   UNL     1       0.905   2.076  -5.230  0.00  0.00    +0.040 A 
ATOM      9  C   UNL     1       1.982   1.232  -5.462  0.00  0.00    +0.062 A 
ATOM     10  C   UNL     1       3.241   1.763  -5.676  0.00  0.00    +0.128 A 
ATOM     11  F   UNL     1       4.290   0.942  -5.907  0.00  0.00    -0.205 F 
ENDBRANCH   1   8
BRANCH   1  12
ATOM     12  C   UNL     1      -0.983   1.615  -3.689  0.00  0.00    +0.199 C 
BRANCH  12  13
ATOM     13  C   UNL     1      -0.101   2.424  -2.773  0.00  0.00    +0.000 A 
ATOM     14  C   UNL     1      -0.596   3.553  -2.138  0.00  0.00    +0.009 A 
ATOM     15  C   UNL     1       0.251   4.266  -1.305  0.00  0.00    +0.020 A 
ATOM     16  C   UNL     1       1.552   3.831  -1.134  0.00  0.00    +0.111 A 
ATOM     17  N   UNL     1       1.988   2.752  -1.754  0.00  0.00    -0.263 NA
ATOM     18  C   UNL     1       1.209   2.046  -2.550  0.00  0.00    +0.116 A 
ENDBRANCH  12  13
BRANCH  12  19
ATOM     19  C   UNL     1      -1.144   0.224  -3.133  0.00  0.00    +0.239 C 
ATOM     20  O   UNL     1      -0.782  -0.734  -3.783  0.00  0.00    -0.273 OA
ATOM     21  N   UNL     1      -1.689   0.044  -1.913  0.00  0.00    -0.306 N 
ATOM     22  H   UNL     1      -1.978   0.810  -1.394  0.00  0.00    +0.149 HD
BRANCH  21  23
ATOM     23  C   UNL     1      -1.845  -1.309  -1.373  0.00  0.00    +0.178 C 
BRANCH  23  24
ATOM     24  C   UNL     1      -2.474  -1.234  -0.006  0.00  0.00    +0.122 A 
ATOM     25  C   UNL     1      -3.794  -1.262   0.255  0.00  0.00    +0.046 A 
ATOM     26  C   UNL     1      -3.936  -1.168   1.658  0.00  0.00    +0.041 A 
ATOM     27  C   UNL     1      -2.695  -1.088   2.171  0.00  0.00    +0.195 A 
ATOM     28  O   UNL     1      -1.814  -1.134   1.159  0.00  0.00    -0.466 OA
ENDBRANCH  23  24
ENDBRANCH  21  23
ENDBRANCH  12  19
ENDBRANCH   1  12
BRANCH   2  29
ATOM     29  C   UNL     1      -0.364   0.785  -7.372  0.00  0.00    +0.242 C 
BRANCH  29  30
ATOM     30  N   UNL     1      -1.327   0.250  -8.337  0.00  0.00    -0.235 N 
ATOM     31  C   UNL     1      -1.576  -1.076  -8.602  0.00  0.00    +0.090 A 
ATOM     32  C   UNL     1      -1.073  -2.272  -8.101  0.00  0.00    +0.029 A 
ATOM     33  C   UNL     1      -1.546  -3.462  -8.580  0.00  0.00    +0.002 A 
ATOM     34  C   UNL     1      -2.529  -3.487  -9.561  0.00  0.00    +0.002 A 
ATOM     35  C   UNL     1      -3.042  -2.328 -10.065  0.00  0.00    +0.032 A 
ATOM     36  C   UNL     1      -2.575  -1.095  -9.590  0.00  0.00    +0.113 A 
ATOM     37  N   UNL     1      -2.881   0.183  -9.887  0.00  0.00    -0.129 NA
ATOM     38  N   UNL     1      -2.174   0.989  -9.177  0.00  0.00    -0.064 NA
ENDBRANCH  29  30
ENDBRANCH   2  29
TORSDOF 8
