REMARK  Name = ZINC55039622
REMARK  8 active torsions:
REMARK  status: ('A' for Active; 'I' for Inactive)
REMARK    1  A    between atoms: C_1  and  C_2
REMARK    2  A    between atoms: C_4  and  C_16
REMARK    3  A    between atoms: C_5  and  C_15
REMARK    4  A    between atoms: N_6  and  C_7
REMARK    5  A    between atoms: C_17  and  C_18
REMARK    6  A    between atoms: C_17  and  C_20
REMARK    7  A    between atoms: N_26  and  C_27
REMARK    8  A    between atoms: N_26  and  C_28
REMARK                            x       y       z     vdW  Elec       q    Type
REMARK                         _______ _______ _______ _____ _____    ______ ____
ROOT
ATOM      1  C   UNL     1      -0.321  -3.279  -1.589  0.00  0.00    +0.032 C 
ATOM      2  C   UNL     1       0.476  -3.384  -2.705  0.00  0.00    +0.097 C 
ENDROOT
BRANCH   2   3
ATOM      3  C   UNL     1       1.249  -2.215  -3.173  0.00  0.00    +0.177 A 
ATOM      4  N   UNL     1       1.310  -1.113  -2.426  0.00  0.00    -0.194 NA
ATOM      5  C   UNL     1       2.006  -0.063  -2.848  0.00  0.00    +0.217 A 
ATOM      6  N   UNL     1       2.641  -0.111  -4.016  0.00  0.00    -0.181 NA
ATOM      7  C   UNL     1       2.581  -1.210  -4.762  0.00  0.00    +0.222 A 
ATOM      8  N   UNL     1       1.891  -2.264  -4.340  0.00  0.00    -0.194 NA
ATOM      9  N   UNL     1       3.241  -1.257  -5.973  0.00  0.00    -0.306 N 
ATOM     10  C   UNL     1       4.007  -0.097  -6.437  0.00  0.00    +0.132 C 
ATOM     11  C   UNL     1       3.175  -2.468  -6.796  0.00  0.00    +0.132 C 
ATOM     12  N   UNL     1       2.069   1.079  -2.075  0.00  0.00    -0.327 N 
ATOM     13  H   UNL     1       1.672   1.088  -1.190  0.00  0.00    +0.145 HD
ATOM     14  H   UNL     1       2.511   1.871  -2.416  0.00  0.00    +0.145 HD
ENDBRANCH   2   3
BRANCH   1  18
ATOM     15  C   UNL     1      -1.449   1.657  -1.021  0.00  0.00    +0.064 C 
ATOM     16  C   UNL     1      -1.082   0.219  -0.762  0.00  0.00    +0.022 A 
ATOM     17  C   UNL     1      -0.941  -0.731  -1.702  0.00  0.00    +0.031 A 
ATOM     18  C   UNL     1      -0.580  -1.967  -0.995  0.00  0.00    -0.003 A 
ATOM     19  C   UNL     1      -0.535  -1.636   0.348  0.00  0.00    +0.028 A 
ATOM     20  N   UNL     1      -0.833  -0.326   0.467  0.00  0.00    -0.315 N 
ATOM     21  C   UNL     1      -0.206  -2.575   1.480  0.00  0.00    +0.064 C 
BRANCH  20  22
ATOM     22  C   UNL     1      -0.882   0.378   1.680  0.00  0.00    +0.082 A 
ATOM     23  C   UNL     1      -2.069   0.444   2.397  0.00  0.00    +0.032 A 
ATOM     24  C   UNL     1      -2.117   1.136   3.590  0.00  0.00    +0.040 A 
ATOM     25  C   UNL     1      -0.982   1.766   4.073  0.00  0.00    +0.126 A 
ATOM     26  C   UNL     1       0.204   1.703   3.361  0.00  0.00    +0.078 A 
ATOM     27  C   UNL     1       0.258   1.005   2.168  0.00  0.00    +0.150 A 
ATOM     28  F   UNL     1       1.416   0.939   1.475  0.00  0.00    -0.203 F 
ATOM     29  F   UNL     1      -1.032   2.444   5.241  0.00  0.00    -0.205 F 
ENDBRANCH  20  22
ENDBRANCH   1  18
BRANCH   2  30
ATOM     30  C   UNL     1       0.556  -4.625  -3.414  0.00  0.00    +0.103 C 
ATOM     31  N   UNL     1       0.620  -5.610  -3.976  0.00  0.00    -0.191 NA
ENDBRANCH   2  30
TORSDOF 4
