REMARK  Name = ZINC24898308
REMARK  10 active torsions:
REMARK  status: ('A' for Active; 'I' for Inactive)
REMARK    1  A    between atoms: C_1  and  C_2
REMARK    2  A    between atoms: C_2  and  O_3
REMARK    3  A    between atoms: O_3  and  C_4
REMARK    4  A    between atoms: C_4  and  C_6
REMARK    5  A    between atoms: C_6  and  N_7
REMARK    6  A    between atoms: C_13  and  N_16
REMARK    7  A    between atoms: C_25  and  C_27
REMARK    8  A    between atoms: C_27  and  C_28
REMARK    9  A    between atoms: N_30  and  C_31
REMARK   10  A    between atoms: N_30  and  C_32
REMARK                            x       y       z     vdW  Elec       q    Type
REMARK                         _______ _______ _______ _____ _____    ______ ____
ROOT
ATOM      1  N   UNL     1      -0.056   0.022  -0.042  0.00  0.00    +0.387 N 
ATOM      2  C   UNL     1       0.400  -0.520  -1.332  0.00  0.00    -0.073 C 
ATOM      3  C   UNL     1       0.826  -1.973  -1.125  0.00  0.00    +0.017 C 
ATOM      4  C   UNL     1      -0.258  -2.729  -0.399  0.00  0.00    -0.047 A 
ATOM      5  C   UNL     1      -0.229  -4.115  -0.425  0.00  0.00    +0.004 A 
ATOM      6  C   UNL     1      -1.200  -4.845   0.230  0.00  0.00    +0.000 A 
ATOM      7  C   UNL     1      -2.206  -4.191   0.917  0.00  0.00    +0.000 A 
ATOM      8  C   UNL     1      -2.236  -2.811   0.942  0.00  0.00    +0.002 A 
ATOM      9  C   UNL     1      -1.262  -2.076   0.283  0.00  0.00    -0.057 A 
ATOM     10  C   UNL     1      -1.343  -0.573   0.332  0.00  0.00    -0.028 C 
ATOM     11  H   UNL     1       0.683  -0.240   0.729  0.00  0.00    -0.081 HD
ENDROOT
BRANCH   1  18
ATOM     12  N   UNL     1      -0.602   5.329  -3.141  0.00  0.00    -0.289 N 
ATOM     13  C   UNL     1       0.383   4.888  -2.333  0.00  0.00    +0.303 C 
ATOM     14  O   UNL     1       1.522   5.285  -2.490  0.00  0.00    -0.253 OA
ATOM     15  N   UNL     1       0.106   4.007  -1.352  0.00  0.00    -0.286 N 
ATOM     16  C   UNL     1       1.143   3.605  -0.391  0.00  0.00    +0.108 C 
ATOM     17  C   UNL     1       1.236   2.076  -0.376  0.00  0.00    +0.004 C 
ATOM     18  C   UNL     1      -0.148   1.488  -0.090  0.00  0.00    -0.065 C 
ATOM     19  C   UNL     1      -1.119   1.902  -1.198  0.00  0.00    +0.004 C 
ATOM     20  C   UNL     1      -1.239   3.429  -1.222  0.00  0.00    +0.108 C 
ATOM     21  H   UNL     1      -1.644   5.034  -2.949  0.00  0.00    +0.151 HD
BRANCH  12  22
ATOM     22  C   UNL     1      -0.284   6.200  -4.275  0.00  0.00    +0.226 C 
BRANCH  22  23
ATOM     23  C   UNL     1      -1.551   6.547  -5.012  0.00  0.00    +0.324 C 
ATOM     24  O   UNL     1      -2.611   6.111  -4.630  0.00  0.00    -0.249 OA
BRANCH  23  25
ATOM     25  O   UNL     1      -1.503   7.341  -6.094  0.00  0.00    -0.464 OA
BRANCH  25  27
ATOM     26  C   UNL     1      -2.509   8.545  -7.956  0.00  0.00    +0.048 C 
ATOM     27  C   UNL     1      -2.762   7.633  -6.754  0.00  0.00    +0.229 C 
ENDBRANCH  25  27
ENDBRANCH  23  25
ENDBRANCH  22  23
ENDBRANCH  12  22
ENDBRANCH   1  18
BRANCH  10  28
ATOM     28  C   UNL     1      -1.710  -0.132   1.750  0.00  0.00    +0.085 C 
BRANCH  28  29
ATOM     29  C   UNL     1      -0.635  -0.574   2.708  0.00  0.00    +0.214 C 
ATOM     30  O   UNL     1       0.378  -1.091   2.286  0.00  0.00    -0.276 OA
ATOM     31  N   UNL     1      -0.798  -0.396   4.034  0.00  0.00    -0.308 N 
ATOM     32  C   UNL     1       0.198  -0.919   4.972  0.00  0.00    +0.131 C 
ATOM     33  C   UNL     1      -1.972   0.321   4.537  0.00  0.00    +0.131 C 
ENDBRANCH  28  29
ENDBRANCH  10  28
TORSDOF 7
