REMARK  Name = ZINC25278682
REMARK  5 active torsions:
REMARK  status: ('A' for Active; 'I' for Inactive)
REMARK    1  A    between atoms: C_1  and  C_2
REMARK    2  A    between atoms: C_2  and  C_4
REMARK    3  A    between atoms: C_2  and  N_12
REMARK    4  A    between atoms: N_12  and  C_13
REMARK    5  A    between atoms: C_18  and  N_19
REMARK                            x       y       z     vdW  Elec       q    Type
REMARK                         _______ _______ _______ _____ _____    ______ ____
ROOT
ATOM      1  N   UNL     1       2.237   5.283  -0.542  0.00  0.00    -0.335 N 
ATOM      2  H   UNL     1       1.250   5.760  -0.446  0.00  0.00    +0.147 HD
ENDROOT
BRANCH   1   3
ATOM      3  C   UNL     1       3.260   5.927  -1.244  0.00  0.00    +0.058 A 
ATOM      4  C   UNL     1       4.465   5.274  -1.472  0.00  0.00    +0.028 A 
ATOM      5  C   UNL     1       5.473   5.911  -2.170  0.00  0.00    +0.040 A 
ATOM      6  C   UNL     1       5.286   7.202  -2.633  0.00  0.00    +0.126 A 
ATOM      7  C   UNL     1       4.088   7.857  -2.403  0.00  0.00    +0.073 A 
ATOM      8  C   UNL     1       3.075   7.222  -1.710  0.00  0.00    +0.150 A 
ATOM      9  F   UNL     1       6.275   7.825  -3.311  0.00  0.00    -0.205 F 
BRANCH   8  10
ATOM     10  N   UNL     1       1.795   7.922  -1.464  0.00  0.00    +0.058 N 
ATOM     11  O   UNL     1       1.671   9.092  -1.777  0.00  0.00    -0.126 OA
ATOM     12  O   UNL     1       0.865   7.327  -0.949  0.00  0.00    -0.126 OA
ENDBRANCH   8  10
ENDBRANCH   1   3
BRANCH   1  14
ATOM     13  C   UNL     1       3.060   4.161   1.469  0.00  0.00    +0.033 C 
ATOM     14  C   UNL     1       2.478   3.972   0.067  0.00  0.00    +0.100 C 
BRANCH  14  15
ATOM     15  C   UNL     1       1.179   3.214   0.159  0.00  0.00    +0.008 A 
ATOM     16  C   UNL     1      -0.015   3.901   0.265  0.00  0.00    +0.011 A 
ATOM     17  C   UNL     1      -1.208   3.208   0.350  0.00  0.00    +0.039 A 
ATOM     18  C   UNL     1      -1.207   1.823   0.324  0.00  0.00    +0.126 A 
ATOM     19  C   UNL     1      -0.011   1.134   0.224  0.00  0.00    +0.077 A 
ATOM     20  C   UNL     1       1.183   1.830   0.138  0.00  0.00    +0.131 A 
ATOM     21  F   UNL     1       2.351   1.159   0.036  0.00  0.00    -0.205 F 
ATOM     22  F   UNL     1      -2.373   1.145   0.401  0.00  0.00    -0.205 F 
ENDBRANCH  14  15
ENDBRANCH   1  14
TORSDOF 4
