REMARK  Name = ZINC64571170
REMARK  6 active torsions:
REMARK  status: ('A' for Active; 'I' for Inactive)
REMARK    1  A    between atoms: C_4  and  S_21
REMARK    2  A    between atoms: C_5  and  N_7
REMARK    3  A    between atoms: C_8  and  C_10
REMARK    4  A    between atoms: C_10  and  N_11
REMARK    5  A    between atoms: S_21  and  C_22
REMARK    6  A    between atoms: C_22  and  C_23
REMARK                            x       y       z     vdW  Elec       q    Type
REMARK                         _______ _______ _______ _____ _____    ______ ____
ROOT
ATOM      1  N   UNL     1       1.233  -2.082  -0.021  0.00  0.00    -0.286 N 
ATOM      2  C   UNL     1       0.082  -2.774   0.088  0.00  0.00    +0.201 C 
ATOM      3  O   UNL     1      -0.980  -2.187   0.102  0.00  0.00    -0.278 OA
ATOM      4  H   UNL     1       2.076  -2.554  -0.113  0.00  0.00    +0.155 HD
ENDROOT
BRANCH   1   9
ATOM      5  C   UNL     1       0.153   1.373   0.636  0.00  0.00    +0.002 A 
ATOM      6  C   UNL     1       1.172   2.090   0.036  0.00  0.00    +0.001 A 
ATOM      7  C   UNL     1       2.215   1.429  -0.586  0.00  0.00    +0.016 A 
ATOM      8  C   UNL     1       2.241   0.042  -0.608  0.00  0.00    +0.030 A 
ATOM      9  C   UNL     1       1.213  -0.681  -0.002  0.00  0.00    +0.047 A 
ATOM     10  C   UNL     1       0.171  -0.009   0.619  0.00  0.00    +0.024 A 
BRANCH   8  11
ATOM     11  S   UNL     1       3.568  -0.804  -1.400  0.00  0.00    -0.114 S 
BRANCH  11  12
ATOM     12  C   UNL     1       4.629   0.529  -2.023  0.00  0.00    +0.169 C 
BRANCH  12  13
ATOM     13  C   UNL     1       5.818  -0.066  -2.733  0.00  0.00    +0.221 C 
ATOM     14  O   UNL     1       5.939  -1.270  -2.810  0.00  0.00    -0.275 OA
ATOM     15  N   UNL     1       6.748   0.741  -3.281  0.00  0.00    -0.329 N 
ATOM     16  H   UNL     1       6.652   1.705  -3.219  0.00  0.00    +0.145 HD
ATOM     17  H   UNL     1       7.514   0.359  -3.737  0.00  0.00    +0.145 HD
ENDBRANCH  12  13
ENDBRANCH  11  12
ENDBRANCH   8  11
ENDBRANCH   1   9
BRANCH   2  18
ATOM     18  C   UNL     1       0.113  -4.277   0.194  0.00  0.00    +0.019 C 
BRANCH  18  19
ATOM     19  N   UNL     1      -1.259  -4.789   0.302  0.00  0.00    +0.386 N 
ATOM     20  C   UNL     1      -1.991  -4.442  -0.911  0.00  0.00    -0.077 C 
ATOM     21  C   UNL     1      -3.477  -4.168  -0.582  0.00  0.00    -0.003 C 
ATOM     22  C   UNL     1      -4.034  -5.165   0.411  0.00  0.00    +0.083 C 
ATOM     23  N   UNL     1      -3.567  -6.523   0.114  0.00  0.00    -0.301 NA
ATOM     24  C   UNL     1      -4.602  -7.534   0.421  0.00  0.00    +0.084 C 
ATOM     25  C   UNL     1      -3.812  -8.829   0.714  0.00  0.00    +0.017 C 
ATOM     26  C   UNL     1      -2.412  -8.354   1.153  0.00  0.00    +0.018 C 
ATOM     27  C   UNL     1      -2.470  -6.817   1.097  0.00  0.00    +0.040 C 
ATOM     28  C   UNL     1      -1.211  -6.233   0.523  0.00  0.00    -0.059 C 
ATOM     29  H   UNL     1      -1.710  -4.352   1.091  0.00  0.00    -0.081 HD
ENDBRANCH  18  19
ENDBRANCH   2  18
TORSDOF 6
