REMARK  Name = ZINC09287560
REMARK  5 active torsions:
REMARK  status: ('A' for Active; 'I' for Inactive)
REMARK    1  A    between atoms: C_1  and  C_2
REMARK    2  A    between atoms: C_11  and  C_13
REMARK    3  A    between atoms: N_19  and  C_20
REMARK    4  A    between atoms: C_20  and  C_21
REMARK    5  A    between atoms: C_21  and  C_22
REMARK                            x       y       z     vdW  Elec       q    Type
REMARK                         _______ _______ _______ _____ _____    ______ ____
ROOT
ATOM      1  C   UNL     1      -0.013   1.086   0.008  0.00  0.00    +0.066 C 
ATOM      2  C   UNL     1      -0.718   1.572   1.248  0.00  0.00    +0.047 A 
ATOM      3  C   UNL     1      -0.006   1.802   2.389  0.00  0.00    +0.093 A 
ATOM      4  C   UNL     1      -0.685   2.250   3.539  0.00  0.00    +0.257 A 
ATOM      5  O   UNL     1      -0.080   2.472   4.574  0.00  0.00    -0.267 OA
ATOM      6  N   UNL     1      -2.017   2.427   3.468  0.00  0.00    -0.255 N 
ATOM      7  C   UNL     1      -2.673   2.197   2.292  0.00  0.00    +0.207 A 
ATOM      8  N   UNL     1      -2.035   1.781   1.224  0.00  0.00    -0.221 NA
ATOM      9  N   UNL     1      -4.034   2.439   2.275  0.00  0.00    -0.259 N 
ATOM     10  C   UNL     1      -4.475   3.511   3.044  0.00  0.00    +0.162 C 
ATOM     11  C   UNL     1      -2.796   2.855   4.633  0.00  0.00    +0.220 C 
ATOM     12  N   UNL     1      -5.511   4.306   2.616  0.00  0.00    -0.318 N 
ATOM     13  H   UNL     1      -4.646   1.893   1.757  0.00  0.00    +0.158 HD
ATOM     14  H   UNL     1      -5.944   4.124   1.768  0.00  0.00    +0.149 HD
ATOM     15  N   UNL     1      -3.899   3.796   4.223  0.00  0.00    -0.337 N 
ATOM     16  H   UNL     1      -4.188   4.594   4.800  0.00  0.00    +0.164 HD
ENDROOT
BRANCH  11  17
ATOM     17  C   UNL     1      -3.385   1.648   5.317  0.00  0.00    -0.005 A 
ATOM     18  C   UNL     1      -2.727   0.433   5.262  0.00  0.00    +0.007 A 
ATOM     19  C   UNL     1      -3.264  -0.673   5.893  0.00  0.00    +0.000 A 
ATOM     20  C   UNL     1      -4.464  -0.567   6.572  0.00  0.00    +0.000 A 
ATOM     21  C   UNL     1      -5.124   0.647   6.622  0.00  0.00    +0.000 A 
ATOM     22  C   UNL     1      -4.585   1.754   5.995  0.00  0.00    +0.007 A 
ENDBRANCH  11  17
BRANCH  12  23
ATOM     23  C   UNL     1      -5.961   5.430   3.441  0.00  0.00    +0.109 C 
BRANCH  23  24
ATOM     24  C   UNL     1      -7.117   6.147   2.741  0.00  0.00    +0.056 C 
BRANCH  24  25
ATOM     25  C   UNL     1      -7.580   7.303   3.590  0.00  0.00    -0.021 A 
ATOM     26  C   UNL     1      -8.595   7.292   4.468  0.00  0.00    +0.087 A 
ATOM     27  N   UNL     1      -8.717   8.523   5.054  0.00  0.00    -0.360 N 
ATOM     28  H   UNL     1      -9.378   8.757   5.724  0.00  0.00    +0.165 HD
ATOM     29  C   UNL     1      -7.765   9.379   4.548  0.00  0.00    +0.047 A 
ATOM     30  C   UNL     1      -7.011   8.652   3.609  0.00  0.00    +0.003 A 
ATOM     31  C   UNL     1      -5.963   9.273   2.927  0.00  0.00    +0.010 A 
ATOM     32  C   UNL     1      -5.674  10.585   3.176  0.00  0.00    +0.001 A 
ATOM     33  C   UNL     1      -6.415  11.307   4.102  0.00  0.00    +0.002 A 
ATOM     34  C   UNL     1      -7.454  10.714   4.786  0.00  0.00    +0.026 A 
ENDBRANCH  24  25
ENDBRANCH  23  24
ENDBRANCH  12  23
TORSDOF 4
