REMARK  Name = ZINC02652279
REMARK  12 active torsions:
REMARK  status: ('A' for Active; 'I' for Inactive)
REMARK    1  A    between atoms: C_1  and  C_2
REMARK    2  A    between atoms: C_2  and  C_3
REMARK    3  A    between atoms: C_3  and  C_4
REMARK    4  A    between atoms: C_4  and  C_5
REMARK    5  A    between atoms: C_5  and  C_6
REMARK    6  A    between atoms: C_6  and  N_7
REMARK    7  A    between atoms: C_16  and  C_18
REMARK    8  A    between atoms: C_18  and  O_20
REMARK    9  A    between atoms: O_20  and  C_21
REMARK   10  A    between atoms: C_21  and  C_22
REMARK   11  A    between atoms: N_24  and  C_25
REMARK   12  A    between atoms: C_26  and  C_33
REMARK                            x       y       z     vdW  Elec       q    Type
REMARK                         _______ _______ _______ _____ _____    ______ ____
ROOT
ATOM      1  C   UNL     1       2.441  -2.949  -0.038  0.00  0.00    +0.360 C 
ATOM      2  O   UNL     1       3.515  -2.381  -0.045  0.00  0.00    -0.243 OA
ENDROOT
BRANCH   1  12
ATOM      3  N   UNL     1      -1.098  -2.162   0.000  0.00  0.00    -0.228 N 
ATOM      4  C   UNL     1      -1.221  -0.819   0.009  0.00  0.00    +0.275 A 
ATOM      5  O   UNL     1      -2.319  -0.294   0.022  0.00  0.00    -0.266 OA
ATOM      6  C   UNL     1       0.002  -0.004   0.002  0.00  0.00    +0.050 A 
ATOM      7  C   UNL     1      -0.017   1.387   0.010  0.00  0.00    +0.014 A 
ATOM      8  C   UNL     1       1.176   2.079   0.002  0.00  0.00    +0.001 A 
ATOM      9  C   UNL     1       2.389   1.403  -0.013  0.00  0.00    +0.001 A 
ATOM     10  C   UNL     1       2.428   0.024  -0.021  0.00  0.00    +0.011 A 
ATOM     11  C   UNL     1       1.237  -0.693  -0.013  0.00  0.00    +0.021 A 
ATOM     12  C   UNL     1       1.192  -2.164  -0.021  0.00  0.00    +0.176 A 
ATOM     13  N   UNL     1       0.028  -2.769  -0.014  0.00  0.00    -0.161 NA
BRANCH   3  14
ATOM     14  C   UNL     1      -2.320  -2.970   0.007  0.00  0.00    +0.147 C 
BRANCH  14  15
ATOM     15  C   UNL     1      -2.759  -3.243  -1.433  0.00  0.00    +0.023 C 
BRANCH  15  16
ATOM     16  C   UNL     1      -4.035  -4.087  -1.426  0.00  0.00    +0.002 C 
BRANCH  16  17
ATOM     17  C   UNL     1      -4.474  -4.360  -2.866  0.00  0.00    -0.000 C 
BRANCH  17  19
ATOM     18  C   UNL     1      -6.190  -5.476  -4.299  0.00  0.00    +0.004 C 
ATOM     19  C   UNL     1      -5.751  -5.203  -2.859  0.00  0.00    -0.003 C 
ENDBRANCH  17  19
ENDBRANCH  16  17
ENDBRANCH  15  16
ENDBRANCH  14  15
ENDBRANCH   3  14
ENDBRANCH   1  12
BRANCH   1  20
ATOM     20  O   UNL     1       2.390  -4.296  -0.045  0.00  0.00    -0.451 OA
BRANCH  20  21
ATOM     21  C   UNL     1       3.658  -5.003  -0.062  0.00  0.00    +0.328 C 
BRANCH  21  22
ATOM     22  C   UNL     1       3.405  -6.488  -0.068  0.00  0.00    +0.255 C 
ATOM     23  O   UNL     1       2.268  -6.910  -0.059  0.00  0.00    -0.272 OA
ATOM     24  N   UNL     1       4.442  -7.349  -0.083  0.00  0.00    -0.277 N 
ATOM     25  H   UNL     1       5.352  -7.012  -0.090  0.00  0.00    +0.155 HD
BRANCH  24  26
ATOM     26  C   UNL     1       4.209  -8.716  -0.088  0.00  0.00    +0.084 A 
ATOM     27  C   UNL     1       5.133  -9.746  -0.109  0.00  0.00    +0.068 A 
ATOM     28  C   UNL     1       4.621 -11.116  -0.106  0.00  0.00    -0.023 A 
ATOM     29  C   UNL     1       3.280 -11.224  -0.093  0.00  0.00    -0.004 A 
ATOM     30  S   UNL     1       2.692  -9.548  -0.079  0.00  0.00    -0.077 S 
ATOM     31  C   UNL     1       2.830 -12.660  -0.094  0.00  0.00    +0.043 C 
ATOM     32  C   UNL     1       4.082 -13.460   0.327  0.00  0.00    +0.010 C 
ATOM     33  C   UNL     1       5.220 -12.523  -0.122  0.00  0.00    +0.037 C 
BRANCH  27  34
ATOM     34  C   UNL     1       6.574  -9.474  -0.128  0.00  0.00    +0.244 C 
ATOM     35  O   UNL     1       7.188  -9.368   0.917  0.00  0.00    -0.270 OA
ATOM     36  N   UNL     1       7.219  -9.341  -1.304  0.00  0.00    -0.325 N 
ATOM     37  H   UNL     1       6.730  -9.425  -2.138  0.00  0.00    +0.145 HD
ATOM     38  H   UNL     1       8.172  -9.161  -1.317  0.00  0.00    +0.145 HD
ENDBRANCH  27  34
ENDBRANCH  24  26
ENDBRANCH  21  22
ENDBRANCH  20  21
ENDBRANCH   1  20
TORSDOF 11
