REMARK  Name = ZINC65137379
REMARK  7 active torsions:
REMARK  status: ('A' for Active; 'I' for Inactive)
REMARK    1  A    between atoms: C_1  and  C_2
REMARK    2  A    between atoms: C_3  and  C_25
REMARK    3  A    between atoms: C_5  and  C_7
REMARK    4  A    between atoms: C_9  and  S_13
REMARK    5  A    between atoms: N_11  and  C_12
REMARK    6  A    between atoms: S_13  and  N_16
REMARK    7  A    between atoms: N_16  and  C_17
REMARK                            x       y       z     vdW  Elec       q    Type
REMARK                         _______ _______ _______ _____ _____    ______ ____
ROOT
ATOM      1  C   UNL     1       0.055  -2.913   2.295  0.00  0.00    +0.076 A 
ATOM      2  C   UNL     1       0.079  -4.279   2.241  0.00  0.00    +0.058 A 
ATOM      3  C   UNL     1       0.091  -4.747   3.561  0.00  0.00    +0.123 A 
ATOM      4  C   UNL     1       0.074  -3.671   4.381  0.00  0.00    +0.114 A 
ATOM      5  N   UNL     1       0.056  -2.545   3.619  0.00  0.00    -0.346 N 
ATOM      6  C   UNL     1       0.039  -1.170   4.124  0.00  0.00    +0.149 C 
ENDROOT
BRANCH   1  11
ATOM      7  C   UNL     1      -0.018   1.503   0.010  0.00  0.00    +0.067 C 
ATOM      8  C   UNL     1       0.002  -0.004   0.002  0.00  0.00    +0.058 A 
ATOM      9  C   UNL     1       0.005  -0.700  -1.200  0.00  0.00    +0.097 A 
ATOM     10  S   UNL     1       0.032  -2.386  -0.604  0.00  0.00    -0.061 S 
ATOM     11  C   UNL     1       0.036  -2.001   1.142  0.00  0.00    +0.126 A 
ATOM     12  N   UNL     1       0.022  -0.669   1.122  0.00  0.00    -0.242 NA
BRANCH   9  13
ATOM     13  C   UNL     1      -0.009  -0.195  -2.574  0.00  0.00    +0.255 C 
ATOM     14  O   UNL     1      -0.027   1.005  -2.781  0.00  0.00    -0.269 OA
ATOM     15  N   UNL     1      -0.003  -1.057  -3.610  0.00  0.00    -0.297 N 
ATOM     16  C   UNL     1       0.013  -2.523  -3.504  0.00  0.00    +0.108 C 
ATOM     17  C   UNL     1       0.042  -3.086  -4.941  0.00  0.00    +0.020 C 
ATOM     18  C   UNL     1       0.613  -1.903  -5.766  0.00  0.00    +0.020 C 
ATOM     19  C   UNL     1      -0.015  -0.686  -5.037  0.00  0.00    +0.108 C 
ENDBRANCH   9  13
ENDBRANCH   1  11
BRANCH   3  20
ATOM     20  S   UNL     1       0.123  -6.436   4.064  0.00  0.00    +0.060 S 
ATOM     21  O   UNL     1      -0.424  -6.479   5.375  0.00  0.00    -0.153 OA
ATOM     22  O   UNL     1      -0.417  -7.190   2.988  0.00  0.00    -0.153 OA
BRANCH  20  23
ATOM     23  N   UNL     1       1.714  -6.876   4.200  0.00  0.00    -0.187 NA
ATOM     24  H   UNL     1       2.083  -7.549   3.607  0.00  0.00    +0.148 HD
BRANCH  23  25
ATOM     25  C   UNL     1       2.563  -6.249   5.216  0.00  0.00    +0.077 C 
ATOM     26  C   UNL     1       2.592  -7.126   6.469  0.00  0.00    +0.020 C 
ATOM     27  C   UNL     1       3.760  -6.702   7.361  0.00  0.00    +0.002 C 
ATOM     28  C   UNL     1       3.404  -5.401   8.084  0.00  0.00    +0.000 C 
ATOM     29  C   UNL     1       3.515  -4.229   7.107  0.00  0.00    +0.000 C 
ATOM     30  C   UNL     1       4.796  -4.370   6.282  0.00  0.00    +0.000 C 
ATOM     31  C   UNL     1       4.434  -4.641   4.820  0.00  0.00    +0.002 C 
ATOM     32  C   UNL     1       3.983  -6.095   4.668  0.00  0.00    +0.020 C 
ENDBRANCH  23  25
ENDBRANCH  20  23
ENDBRANCH   3  20
TORSDOF 5
