REMARK  Name = ZINC20068016
REMARK  11 active torsions:
REMARK  status: ('A' for Active; 'I' for Inactive)
REMARK    1  A    between atoms: C_1  and  C_2
REMARK    2  A    between atoms: C_2  and  C_3
REMARK    3  A    between atoms: C_2  and  N_4
REMARK    4  A    between atoms: C_9  and  C_19
REMARK    5  A    between atoms: C_11  and  C_13
REMARK    6  A    between atoms: C_19  and  O_21
REMARK    7  A    between atoms: O_21  and  C_22
REMARK    8  A    between atoms: C_22  and  C_23
REMARK    9  A    between atoms: N_28  and  C_29
REMARK   10  A    between atoms: C_29  and  C_30
REMARK   11  A    between atoms: C_30  and  C_31
REMARK                            x       y       z     vdW  Elec       q    Type
REMARK                         _______ _______ _______ _____ _____    ______ ____
ROOT
ATOM      1  C   UNL     1      -3.022   1.980   5.321  0.00  0.00    +0.340 C 
ATOM      2  O   UNL     1      -2.964   3.187   5.197  0.00  0.00    -0.245 OA
ENDROOT
BRANCH   1   8
ATOM      3  N   UNL     1      -0.698   1.558   1.213  0.00  0.00    -0.244 N 
ATOM      4  C   UNL     1      -1.243   0.766   2.192  0.00  0.00    +0.160 A 
ATOM      5  C   UNL     1      -1.793   1.642   3.150  0.00  0.00    +0.053 A 
ATOM      6  C   UNL     1      -1.552   2.957   2.699  0.00  0.00    +0.145 A 
ATOM      7  N   UNL     1      -0.906   2.896   1.569  0.00  0.00    -0.177 NA
ATOM      8  C   UNL     1      -2.431   1.102   4.291  0.00  0.00    +0.073 A 
ATOM      9  C   UNL     1      -2.485  -0.283   4.412  0.00  0.00    +0.044 A 
ATOM     10  C   UNL     1      -1.914  -1.079   3.415  0.00  0.00    +0.074 A 
ATOM     11  N   UNL     1      -1.323  -0.544   2.359  0.00  0.00    -0.228 NA
BRANCH  10  12
ATOM     12  C   UNL     1      -1.970  -2.555   3.545  0.00  0.00    +0.000 A 
ATOM     13  C   UNL     1      -2.583  -3.138   4.653  0.00  0.00    +0.010 A 
ATOM     14  C   UNL     1      -2.637  -4.512   4.765  0.00  0.00    +0.001 A 
ATOM     15  C   UNL     1      -2.076  -5.311   3.786  0.00  0.00    +0.000 A 
ATOM     16  C   UNL     1      -1.462  -4.739   2.687  0.00  0.00    +0.001 A 
ATOM     17  C   UNL     1      -1.406  -3.366   2.561  0.00  0.00    +0.010 A 
ENDBRANCH  10  12
BRANCH   3  19
ATOM     18  C   UNL     1       1.423   1.615  -0.003  0.00  0.00    +0.032 C 
ATOM     19  C   UNL     1      -0.013   1.086   0.008  0.00  0.00    +0.103 C 
ATOM     20  C   UNL     1      -0.753   1.593  -1.232  0.00  0.00    +0.032 C 
ENDBRANCH   3  19
ENDBRANCH   1   8
BRANCH   1  21
ATOM     21  O   UNL     1      -3.625   1.443   6.400  0.00  0.00    -0.452 OA
BRANCH  21  22
ATOM     22  C   UNL     1      -4.183   2.366   7.372  0.00  0.00    +0.328 C 
BRANCH  22  23
ATOM     23  C   UNL     1      -4.811   1.589   8.499  0.00  0.00    +0.258 C 
ATOM     24  O   UNL     1      -4.791   0.377   8.486  0.00  0.00    -0.272 OA
ATOM     25  N   UNL     1      -5.396   2.241   9.524  0.00  0.00    -0.237 N 
ATOM     26  C   UNL     1      -5.958   1.546  10.532  0.00  0.00    +0.306 C 
ATOM     27  O   UNL     1      -5.938   0.331  10.518  0.00  0.00    -0.252 OA
ATOM     28  N   UNL     1      -6.543   2.199  11.556  0.00  0.00    -0.299 N 
ATOM     29  H   UNL     1      -5.415   3.341   9.536  0.00  0.00    +0.159 HD
ATOM     30  H   UNL     1      -6.561   3.298  11.569  0.00  0.00    +0.150 HD
BRANCH  28  31
ATOM     31  C   UNL     1      -7.154   1.443  12.653  0.00  0.00    +0.111 C 
BRANCH  31  32
ATOM     32  C   UNL     1      -7.742   2.416  13.677  0.00  0.00    +0.061 C 
BRANCH  32  33
ATOM     33  C   UNL     1      -8.370   1.639  14.805  0.00  0.00    -0.009 A 
ATOM     34  C   UNL     1      -7.808   1.203  15.959  0.00  0.00    +0.011 A 
ATOM     35  C   UNL     1      -8.586   0.503  16.861  0.00  0.00    +0.008 A 
ATOM     36  C   UNL     1      -9.886   0.264  16.561  0.00  0.00    +0.045 A 
ATOM     37  S   UNL     1     -10.047   1.046  14.964  0.00  0.00    -0.102 S 
ENDBRANCH  32  33
ENDBRANCH  31  32
ENDBRANCH  28  31
ENDBRANCH  22  23
ENDBRANCH  21  22
ENDBRANCH   1  21
TORSDOF 9
