REMARK  Name = ZINC63425452
REMARK  5 active torsions:
REMARK  status: ('A' for Active; 'I' for Inactive)
REMARK    1  A    between atoms: C_1  and  C_2
REMARK    2  A    between atoms: C_2  and  C_3
REMARK    3  A    between atoms: N_12  and  C_13
REMARK    4  A    between atoms: C_13  and  C_14
REMARK    5  A    between atoms: C_14  and  C_15
REMARK                            x       y       z     vdW  Elec       q    Type
REMARK                         _______ _______ _______ _____ _____    ______ ____
ROOT
ATOM      1  C   UNL     1      -0.316   1.388  -0.038  0.00  0.00    +0.066 C 
ATOM      2  C   UNL     1      -0.060  -0.097  -0.051  0.00  0.00    +0.050 C 
ATOM      3  N   UNL     1       0.045  -0.728  -1.181  0.00  0.00    -0.287 NA
ENDROOT
BRANCH   2   4
ATOM      4  C   UNL     1       0.072  -0.829   1.212  0.00  0.00    +0.126 A 
ATOM      5  C   UNL     1      -1.067  -1.135   1.998  0.00  0.00    +0.267 A 
ATOM      6  N   UNL     1      -0.892  -1.812   3.153  0.00  0.00    -0.273 N 
ATOM      7  C   UNL     1       0.353  -2.187   3.545  0.00  0.00    +0.352 A 
ATOM      8  N   UNL     1       1.420  -1.910   2.826  0.00  0.00    -0.153 NA
ATOM      9  C   UNL     1       1.330  -1.250   1.672  0.00  0.00    +0.289 A 
ATOM     10  O   UNL     1       2.442  -0.985   0.952  0.00  0.00    -0.265 OA
ATOM     11  O   UNL     1       0.499  -2.861   4.702  0.00  0.00    -0.245 OA
ATOM     12  O   UNL     1      -2.181  -0.794   1.639  0.00  0.00    -0.267 OA
ATOM     13  H   UNL     1      -1.659  -2.030   3.705  0.00  0.00    +0.174 HD
ENDBRANCH   2   4
BRANCH   3  14
ATOM     14  C   UNL     1       0.033   0.019  -2.441  0.00  0.00    +0.146 C 
BRANCH  14  15
ATOM     15  C   UNL     1       1.386  -0.137  -3.139  0.00  0.00    +0.056 C 
BRANCH  15  16
ATOM     16  C   UNL     1       1.374   0.632  -4.435  0.00  0.00    -0.040 C 
ATOM     17  C   UNL     1       1.827   1.890  -4.638  0.00  0.00    -0.001 A 
ATOM     18  C   UNL     1       2.443   2.881  -3.748  0.00  0.00    +0.010 A 
ATOM     19  C   UNL     1       2.799   4.085  -4.252  0.00  0.00    +0.001 A 
ATOM     20  C   UNL     1       2.596   4.408  -5.601  0.00  0.00    +0.002 A 
ATOM     21  C   UNL     1       2.037   3.550  -6.480  0.00  0.00    +0.026 A 
ATOM     22  C   UNL     1       1.625   2.256  -6.058  0.00  0.00    +0.043 A 
ATOM     23  N   UNL     1       1.067   1.262  -6.708  0.00  0.00    -0.380 N 
ATOM     24  C   UNL     1       0.859   0.151  -5.773  0.00  0.00    +0.144 C 
ATOM     25  H   UNL     1       0.835   1.261  -7.649  0.00  0.00    +0.160 HD
ENDBRANCH  15  16
ENDBRANCH  14  15
ENDBRANCH   3  14
TORSDOF 4
