REMARK  Name = ZINC14990863
REMARK  12 active torsions:
REMARK  status: ('A' for Active; 'I' for Inactive)
REMARK    1  A    between atoms: C_1  and  C_2
REMARK    2  A    between atoms: C_3  and  C_29
REMARK    3  A    between atoms: C_4  and  O_27
REMARK    4  A    between atoms: C_7  and  C_8
REMARK    5  A    between atoms: C_8  and  N_60
REMARK    6  A    between atoms: C_12  and  N_15
REMARK    7  A    between atoms: C_17  and  C_20
REMARK    8  A    between atoms: N_22  and  C_23
REMARK    9  A    between atoms: N_22  and  C_24
REMARK   10  A    between atoms: C_24  and  C_25
REMARK   11  A    between atoms: C_25  and  O_26
REMARK   12  A    between atoms: O_27  and  C_28
REMARK                            x       y       z     vdW  Elec       q    Type
REMARK                         _______ _______ _______ _____ _____    ______ ____
ROOT
ATOM      1  C   UNL     1      -2.587   0.949  -1.317  0.00  0.00    -0.078 C 
ATOM      2  C   UNL     1      -1.729   0.669  -2.554  0.00  0.00    -0.017 C 
ATOM      3  C   UNL     1      -0.333   1.266  -2.347  0.00  0.00    +0.023 C 
ATOM      4  C   UNL     1       0.286   0.667  -1.082  0.00  0.00    +0.092 C 
ATOM      5  C   UNL     1      -0.630   0.947   0.112  0.00  0.00    -0.051 C 
ATOM      6  N   UNL     1      -1.948   0.326  -0.139  0.00  0.00    +0.384 N 
ATOM      7  H   UNL     1      -1.815  -0.675  -0.323  0.00  0.00    -0.081 HD
ENDROOT
BRANCH   4   8
ATOM      8  N   UNL     1       1.598   1.274  -0.845  0.00  0.00    -0.250 N 
ATOM      9  C   UNL     1       1.952   2.550  -1.101  0.00  0.00    +0.143 A 
ATOM     10  C   UNL     1       3.259   2.681  -0.728  0.00  0.00    +0.167 A 
ATOM     11  N   UNL     1       3.686   1.499  -0.252  0.00  0.00    -0.125 NA
ATOM     12  N   UNL     1       2.726   0.642  -0.302  0.00  0.00    -0.065 NA
BRANCH  10  13
ATOM     13  C   UNL     1       4.065   3.912  -0.829  0.00  0.00    +0.268 C 
ATOM     14  O   UNL     1       3.610   4.893  -1.385  0.00  0.00    -0.268 OA
ATOM     15  N   UNL     1       5.306   3.950  -0.305  0.00  0.00    -0.297 N 
ATOM     16  C   UNL     1       5.882   2.747   0.301  0.00  0.00    +0.132 C 
BRANCH  15  17
ATOM     17  C   UNL     1       6.079   5.194  -0.341  0.00  0.00    +0.135 C 
BRANCH  17  18
ATOM     18  C   UNL     1       5.797   6.006   0.924  0.00  0.00    +0.174 C 
BRANCH  18  19
ATOM     19  O   UNL     1       6.280   5.295   2.065  0.00  0.00    -0.393 OA
ATOM     20  H   UNL     1       6.135   5.752   2.905  0.00  0.00    +0.209 HD
ENDBRANCH  18  19
ENDBRANCH  17  18
ENDBRANCH  15  17
ENDBRANCH  10  13
ENDBRANCH   4   8
BRANCH   6  21
ATOM     21  C   UNL     1      -2.814   0.485   1.048  0.00  0.00    -0.043 C 
BRANCH  21  28
ATOM     22  C   UNL     1      -2.740  -2.368   1.488  0.00  0.00    +0.044 C 
ATOM     23  C   UNL     1      -4.025  -1.705   1.063  0.00  0.00    -0.043 A 
ATOM     24  C   UNL     1      -5.168  -2.462   0.890  0.00  0.00    -0.006 A 
ATOM     25  C   UNL     1      -6.349  -1.852   0.493  0.00  0.00    +0.123 A 
ATOM     26  C   UNL     1      -6.380  -0.482   0.277  0.00  0.00    +0.046 A 
ATOM     27  C   UNL     1      -5.236   0.271   0.457  0.00  0.00    +0.005 A 
ATOM     28  C   UNL     1      -4.060  -0.339   0.852  0.00  0.00    -0.061 A 
ATOM     29  C   UNL     1      -5.130  -3.950   1.125  0.00  0.00    +0.048 C 
BRANCH  25  30
ATOM     30  O   UNL     1      -7.473  -2.595   0.318  0.00  0.00    -0.495 OA
ATOM     31  C   UNL     1      -8.653  -1.900  -0.090  0.00  0.00    +0.277 C 
ENDBRANCH  25  30
ENDBRANCH  21  28
ENDBRANCH   6  21
TORSDOF 8
