REMARK  Name = ZINC20373627
REMARK  4 active torsions:
REMARK  status: ('A' for Active; 'I' for Inactive)
REMARK    1  A    between atoms: C_3  and  N_18
REMARK    2  A    between atoms: C_6  and  S_7
REMARK    3  A    between atoms: S_7  and  N_10
REMARK    4  A    between atoms: N_18  and  N_19
REMARK                            x       y       z     vdW  Elec       q    Type
REMARK                         _______ _______ _______ _____ _____    ______ ____
ROOT
ATOM      1  S   UNL     1       5.009   1.139  -0.039  0.00  0.00    +0.102 S 
ATOM      2  O   UNL     1       6.063   2.091  -0.070  0.00  0.00    -0.146 OA
ATOM      3  O   UNL     1       4.899   0.157   0.983  0.00  0.00    -0.146 OA
ENDROOT
BRANCH   1   4
ATOM      4  N   UNL     1       3.594   2.000  -0.021  0.00  0.00    -0.111 NA
ATOM      5  C   UNL     1       2.374   1.332  -0.013  0.00  0.00    +0.153 A 
ATOM      6  C   UNL     1       1.190   2.062   0.002  0.00  0.00    +0.049 A 
ATOM      7  C   UNL     1      -0.017   1.385   0.010  0.00  0.00    +0.020 A 
ATOM      8  C   UNL     1       0.002  -0.004   0.002  0.00  0.00    +0.034 A 
ATOM      9  C   UNL     1       1.215  -0.664  -0.013  0.00  0.00    +0.099 A 
ATOM     10  N   UNL     1       2.351   0.009  -0.020  0.00  0.00    -0.344 N 
ATOM     11 BR   UNL     1      -1.617  -0.982   0.013  0.00  0.00    -0.049 Br
ATOM     12  H   UNL     1       3.294  -0.558  -0.032  0.00  0.00    +0.167 HD
ENDBRANCH   1   4
BRANCH   1  18
ATOM     13  C   UNL     1       5.654   0.853  -2.685  0.00  0.00    +0.034 A 
ATOM     14  C   UNL     1       5.682   0.136  -3.868  0.00  0.00    +0.046 A 
ATOM     15  C   UNL     1       5.126  -1.139  -3.899  0.00  0.00    +0.132 A 
ATOM     16  N   UNL     1       4.578  -1.662  -2.813  0.00  0.00    -0.237 NA
ATOM     17  C   UNL     1       4.543  -1.003  -1.670  0.00  0.00    +0.142 A 
ATOM     18  C   UNL     1       5.070   0.269  -1.569  0.00  0.00    +0.131 A 
BRANCH  15  19
ATOM     19  N   UNL     1       5.148  -1.871  -5.080  0.00  0.00    -0.268 N 
ATOM     20  H   UNL     1       5.602  -1.442  -5.985  0.00  0.00    +0.167 HD
BRANCH  19  21
ATOM     21  N   UNL     1       4.604  -3.124  -5.118  0.00  0.00    -0.255 NA
ATOM     22  H   UNL     1       4.715  -3.541  -6.129  0.00  0.00    +0.140 HD
ATOM     23  H   UNL     1       5.123  -3.770  -4.395  0.00  0.00    +0.140 HD
ENDBRANCH  19  21
ENDBRANCH  15  19
ENDBRANCH   1  18
TORSDOF 4
