REMARK  Name = ZINC38545605
REMARK  7 active torsions:
REMARK  status: ('A' for Active; 'I' for Inactive)
REMARK    1  A    between atoms: C_1  and  C_2
REMARK    2  A    between atoms: C_2  and  C_3
REMARK    3  A    between atoms: N_18  and  N_19
REMARK    4  A    between atoms: N_19  and  C_20
REMARK    5  A    between atoms: C_20  and  C_21
REMARK    6  A    between atoms: C_23  and  C_25
REMARK    7  A    between atoms: C_23  and  C_26
REMARK                            x       y       z     vdW  Elec       q    Type
REMARK                         _______ _______ _______ _____ _____    ______ ____
ROOT
ATOM      1  C   UNL     1      -1.412  -0.526   0.013  0.00  0.00    +0.047 C 
ATOM      2  N   UNL     1      -2.446   0.298   0.021  0.00  0.00    -0.256 NA
ATOM      3  C   UNL     1      -3.705  -0.100   0.161  0.00  0.00    +0.049 C 
ATOM      4  C   UNL     1      -4.075  -1.435   0.084  0.00  0.00    +0.023 C 
ATOM      5  C   UNL     1      -3.048  -2.425  -0.348  0.00  0.00    +0.146 C 
ATOM      6  C   UNL     1      -1.674  -1.884   0.008  0.00  0.00    +0.010 C 
ATOM      7  C   UNL     1      -0.947  -3.002   0.334  0.00  0.00    +0.005 A 
ATOM      8  C   UNL     1       0.435  -3.204   0.542  0.00  0.00    +0.010 A 
ATOM      9  C   UNL     1       0.827  -4.457   0.915  0.00  0.00    +0.001 A 
ATOM     10  C   UNL     1      -0.061  -5.517   1.089  0.00  0.00    +0.002 A 
ATOM     11  C   UNL     1      -1.405  -5.411   0.888  0.00  0.00    +0.026 A 
ATOM     12  C   UNL     1      -1.894  -4.142   0.477  0.00  0.00    +0.044 A 
ATOM     13  N   UNL     1      -3.106  -3.771   0.174  0.00  0.00    -0.373 N 
ATOM     14  C   UNL     1      -5.379  -1.843   0.387  0.00  0.00    +0.067 C 
ATOM     15  N   UNL     1      -5.659  -3.122   0.412  0.00  0.00    -0.191 NA
ATOM     16  C   UNL     1      -6.466  -0.848   0.685  0.00  0.00    +0.064 C 
ATOM     17  C   UNL     1      -5.851   0.415   1.293  0.00  0.00    -0.024 C 
ATOM     18  C   UNL     1      -4.774   0.951   0.348  0.00  0.00    +0.062 C 
ATOM     19  C   UNL     1      -6.939   1.474   1.482  0.00  0.00    +0.011 C 
ATOM     20  C   UNL     1      -5.223   0.078   2.647  0.00  0.00    +0.011 C 
ATOM     21  H   UNL     1      -3.905  -4.312   0.270  0.00  0.00    +0.161 HD
ENDROOT
BRANCH   1  23
ATOM     22  C   UNL     1      -0.019   1.526   0.010  0.00  0.00    +0.010 C 
ATOM     23  C   UNL     1       0.002  -0.004   0.002  0.00  0.00    +0.052 C 
ENDBRANCH   1  23
BRANCH  15  24
ATOM     24  N   UNL     1      -6.959  -3.549   0.713  0.00  0.00    -0.269 N 
ATOM     25  H   UNL     1      -7.652  -2.897   0.903  0.00  0.00    +0.168 HD
BRANCH  24  26
ATOM     26  C   UNL     1      -7.272  -4.980   0.741  0.00  0.00    +0.119 C 
ATOM     27  C   UNL     1      -8.749  -5.172   1.093  0.00  0.00    +0.025 C 
ENDBRANCH  24  26
ENDBRANCH  15  24
TORSDOF 3
