REMARK  Name = ZINC05237875
REMARK  4 active torsions:
REMARK  status: ('A' for Active; 'I' for Inactive)
REMARK    1  A    between atoms: C_3  and  N_9
REMARK    2  A    between atoms: C_10  and  C_12
REMARK    3  A    between atoms: C_12  and  S_13
REMARK    4  A    between atoms: S_13  and  C_14
REMARK                            x       y       z     vdW  Elec       q    Type
REMARK                         _______ _______ _______ _____ _____    ______ ____
ROOT
ATOM      1  C   UNL     1       4.861   4.235  -0.238  0.00  0.00    +0.173 C 
ENDROOT
BRANCH   1   3
ATOM      2  N   UNL     1       3.584   2.127  -0.021  0.00  0.00    -0.284 N 
ATOM      3  C   UNL     1       3.567   3.472  -0.116  0.00  0.00    +0.228 C 
ATOM      4  O   UNL     1       2.510   4.067  -0.103  0.00  0.00    -0.275 OA
ATOM      5  H   UNL     1       4.429   1.657   0.049  0.00  0.00    +0.155 HD
BRANCH   2   8
ATOM      6  C   UNL     1       0.065   1.242  -0.621  0.00  0.00    +0.003 A 
ATOM      7  C   UNL     1       1.250   1.952  -0.618  0.00  0.00    +0.025 A 
ATOM      8  C   UNL     1       2.382   1.410  -0.024  0.00  0.00    +0.053 A 
ATOM      9  C   UNL     1       2.319   0.154   0.567  0.00  0.00    +0.080 A 
ATOM     10  C   UNL     1       1.129  -0.551   0.562  0.00  0.00    +0.061 A 
ATOM     11  C   UNL     1       0.004  -0.007  -0.032  0.00  0.00    +0.021 A 
ATOM     12 CL   UNL     1       1.048  -2.120   1.300  0.00  0.00    -0.082 Cl
ATOM     13 CL   UNL     1       3.731  -0.528   1.311  0.00  0.00    -0.080 Cl
ENDBRANCH   2   8
ENDBRANCH   1   3
BRANCH   1  14
ATOM     14  S   UNL     1       4.507   6.011  -0.346  0.00  0.00    -0.078 S 
BRANCH  14  15
ATOM     15  C   UNL     1       6.098   6.755  -0.483  0.00  0.00    +0.170 A 
ATOM     16  N   UNL     1       6.198   8.110  -0.579  0.00  0.00    -0.302 N 
ATOM     17  H   UNL     1       5.398   8.659  -0.572  0.00  0.00    +0.171 HD
ATOM     18  C   UNL     1       7.415   8.684  -0.683  0.00  0.00    +0.255 A 
ATOM     19  O   UNL     1       7.524   9.896  -0.770  0.00  0.00    -0.267 OA
ATOM     20  C   UNL     1       8.555   7.860  -0.690  0.00  0.00    +0.038 A 
ATOM     21  C   UNL     1       8.397   6.508  -0.591  0.00  0.00    +0.052 A 
ATOM     22  N   UNL     1       7.172   5.991  -0.485  0.00  0.00    -0.228 NA
ATOM     23  C   UNL     1       9.749   5.828  -0.618  0.00  0.00    +0.056 C 
ATOM     24  C   UNL     1      10.722   6.886  -1.181  0.00  0.00    +0.011 C 
ATOM     25  C   UNL     1      10.023   8.208  -0.793  0.00  0.00    +0.043 C 
ENDBRANCH  14  15
ENDBRANCH   1  14
TORSDOF 4
