REMARK  Name = ZINC59112480
REMARK  10 active torsions:
REMARK  status: ('A' for Active; 'I' for Inactive)
REMARK    1  A    between atoms: C_1  and  C_2
REMARK    2  A    between atoms: C_2  and  C_28
REMARK    3  A    between atoms: C_4  and  N_10
REMARK    4  A    between atoms: C_6  and  C_8
REMARK    5  A    between atoms: C_6  and  C_9
REMARK    6  A    between atoms: N_10  and  C_11
REMARK    7  A    between atoms: C_11  and  N_13
REMARK    8  A    between atoms: N_13  and  C_14
REMARK    9  A    between atoms: C_17  and  N_20
REMARK   10  A    between atoms: N_21  and  C_22
REMARK                            x       y       z     vdW  Elec       q    Type
REMARK                         _______ _______ _______ _____ _____    ______ ____
ROOT
ATOM      1  C   UNL     1       3.991  -0.629  -2.979  0.00  0.00    +0.135 C 
ATOM      2  S   UNL     1       5.107   0.211  -1.989  0.00  0.00    -0.019 S 
ENDROOT
BRANCH   1   3
ATOM      3  N   UNL     1       2.849  -1.109  -2.449  0.00  0.00    -0.324 N 
ATOM      4  H   UNL     1       2.216  -1.585  -3.010  0.00  0.00    +0.148 HD
BRANCH   3   8
ATOM      5  C   UNL     1       0.923   0.674   1.088  0.00  0.00    -0.010 C 
ATOM      6  C   UNL     1       0.723  -0.789   0.679  0.00  0.00    -0.072 C 
ATOM      7  C   UNL     1       1.050  -0.959  -0.802  0.00  0.00    +0.009 C 
ATOM      8  C   UNL     1       2.562  -0.913  -1.022  0.00  0.00    +0.069 C 
ATOM      9  C   UNL     1       3.196  -2.048  -0.219  0.00  0.00    +0.009 C 
ATOM     10  C   UNL     1       2.886  -1.887   1.265  0.00  0.00    -0.072 C 
ATOM     11  N   UNL     1       1.474  -1.686   1.540  0.00  0.00    +0.386 N 
ATOM     12  C   UNL     1       3.734  -0.753   1.852  0.00  0.00    -0.010 C 
ATOM     13  C   UNL     1       3.321  -3.191   1.973  0.00  0.00    -0.010 C 
ATOM     14  C   UNL     1      -0.778  -1.109   0.860  0.00  0.00    -0.010 C 
ATOM     15  H   UNL     1       1.378  -1.358   2.506  0.00  0.00    -0.084 HD
ATOM     16  H   UNL     1       1.012  -2.601   1.528  0.00  0.00    -0.084 HD
ENDBRANCH   3   8
ENDBRANCH   1   3
BRANCH   1  17
ATOM     17  N   UNL     1       4.255  -0.809  -4.288  0.00  0.00    -0.297 N 
ATOM     18  H   UNL     1       3.653  -1.338  -4.835  0.00  0.00    +0.154 HD
BRANCH  17  19
ATOM     19  C   UNL     1       5.393  -0.237  -4.856  0.00  0.00    +0.033 A 
ATOM     20  C   UNL     1       6.618  -0.334  -4.203  0.00  0.00    +0.025 A 
ATOM     21  C   UNL     1       7.743   0.230  -4.760  0.00  0.00    +0.031 A 
ATOM     22  C   UNL     1       7.654   0.901  -5.985  0.00  0.00    +0.086 A 
ATOM     23  C   UNL     1       6.421   0.996  -6.638  0.00  0.00    +0.031 A 
ATOM     24  C   UNL     1       5.301   0.425  -6.077  0.00  0.00    +0.025 A 
BRANCH  22  25
ATOM     25  N   UNL     1       8.768   1.462  -6.540  0.00  0.00    -0.149 NA
ATOM     26  N   UNL     1       8.684   2.080  -7.669  0.00  0.00    -0.149 NA
BRANCH  26  27
ATOM     27  C   UNL     1       9.799   2.642  -8.225  0.00  0.00    +0.086 A 
ATOM     28  C   UNL     1      11.033   2.543  -7.576  0.00  0.00    +0.029 A 
ATOM     29  C   UNL     1      12.154   3.112  -8.144  0.00  0.00    +0.002 A 
ATOM     30  C   UNL     1      12.059   3.779  -9.353  0.00  0.00    +0.000 A 
ATOM     31  C   UNL     1      10.841   3.881 -10.001  0.00  0.00    +0.002 A 
ATOM     32  C   UNL     1       9.712   3.312  -9.448  0.00  0.00    +0.029 A 
ENDBRANCH  26  27
ENDBRANCH  22  25
ENDBRANCH  17  19
ENDBRANCH   1  17
TORSDOF 6
