REMARK  Name = ZINC58967006
REMARK  6 active torsions:
REMARK  status: ('A' for Active; 'I' for Inactive)
REMARK    1  A    between atoms: C_1  and  C_2
REMARK    2  A    between atoms: C_8  and  C_10
REMARK    3  A    between atoms: C_10  and  C_11
REMARK    4  A    between atoms: C_11  and  S_12
REMARK    5  A    between atoms: S_12  and  C_13
REMARK    6  A    between atoms: C_17  and  C_19
REMARK                            x       y       z     vdW  Elec       q    Type
REMARK                         _______ _______ _______ _____ _____    ______ ____
ROOT
ATOM      1  C   UNL     1      -7.808  -4.810   0.018  0.00  0.00    +0.189 A 
ATOM      2  N   UNL     1      -8.830  -5.654   0.018  0.00  0.00    -0.222 NA
ATOM      3  C   UNL     1     -10.075  -5.196   0.014  0.00  0.00    +0.079 A 
ATOM      4  C   UNL     1     -10.296  -3.817   0.041  0.00  0.00    +0.009 A 
ATOM      5  C   UNL     1      -9.204  -2.972   0.035  0.00  0.00    +0.152 A 
ATOM      6  N   UNL     1      -7.987  -3.496   0.027  0.00  0.00    -0.218 NA
ATOM      7  C   UNL     1     -11.697  -3.277   0.103  0.00  0.00    +0.044 C 
ATOM      8  C   UNL     1     -12.648  -4.151  -0.710  0.00  0.00    +0.040 C 
ATOM      9  C   UNL     1     -12.496  -5.600  -0.334  0.00  0.00    -0.038 A 
ATOM     10  C   UNL     1     -11.241  -6.107   0.003  0.00  0.00    +0.004 A 
ATOM     11  C   UNL     1     -11.097  -7.453   0.327  0.00  0.00    +0.010 A 
ATOM     12  C   UNL     1     -12.204  -8.280   0.327  0.00  0.00    +0.001 A 
ATOM     13  C   UNL     1     -13.449  -7.771   0.006  0.00  0.00    +0.000 A 
ATOM     14  C   UNL     1     -13.595  -6.435  -0.324  0.00  0.00    +0.004 A 
ENDROOT
BRANCH   5  15
ATOM     15  C   UNL     1      -9.393  -1.477   0.043  0.00  0.00    +0.435 C 
ATOM     16  F   UNL     1     -10.187  -1.113   1.136  0.00  0.00    -0.164 F 
ATOM     17  F   UNL     1      -8.147  -0.850   0.142  0.00  0.00    -0.164 F 
ATOM     18  F   UNL     1     -10.022  -1.080  -1.142  0.00  0.00    -0.164 F 
ENDBRANCH   5  15
BRANCH   1  19
ATOM     19  S   UNL     1      -6.166  -5.451   0.016  0.00  0.00    -0.086 S 
BRANCH  19  20
ATOM     20  C   UNL     1      -5.117  -3.971   0.026  0.00  0.00    +0.086 C 
BRANCH  20  21
ATOM     21  C   UNL     1      -3.645  -4.389   0.025  0.00  0.00    +0.107 C 
BRANCH  21  29
ATOM     22  C   UNL     1      -0.018   1.502   0.065  0.00  0.00    +0.089 C 
ATOM     23  C   UNL     1       0.002  -0.004   0.056  0.00  0.00    +0.136 A 
ATOM     24  C   UNL     1      -1.076  -0.808   0.050  0.00  0.00    +0.091 A 
ATOM     25  C   UNL     1      -0.625  -2.147   0.042  0.00  0.00    +0.168 A 
ATOM     26  N   UNL     1       0.683  -2.130   0.043  0.00  0.00    -0.063 NA
ATOM     27  O   UNL     1       1.100  -0.777   0.046  0.00  0.00    -0.358 OA
ATOM     28  N   UNL     1      -1.432  -3.285   0.034  0.00  0.00    -0.268 N 
ATOM     29  C   UNL     1      -2.774  -3.160   0.033  0.00  0.00    +0.219 C 
ATOM     30  O   UNL     1      -3.280  -2.058   0.040  0.00  0.00    -0.275 OA
ATOM     31  H   UNL     1      -1.027  -4.166   0.028  0.00  0.00    +0.156 HD
ENDBRANCH  21  29
ENDBRANCH  20  21
ENDBRANCH  19  20
ENDBRANCH   1  19
TORSDOF 5
