REMARK  Name = ZINC41602518
REMARK  9 active torsions:
REMARK  status: ('A' for Active; 'I' for Inactive)
REMARK    1  A    between atoms: C_1  and  C_2
REMARK    2  A    between atoms: C_2  and  C_4
REMARK    3  A    between atoms: C_2  and  N_12
REMARK    4  A    between atoms: C_7  and  O_10
REMARK    5  A    between atoms: O_10  and  C_11
REMARK    6  A    between atoms: C_17  and  C_20
REMARK    7  A    between atoms: C_20  and  C_21
REMARK    8  A    between atoms: C_20  and  C_22
REMARK    9  A    between atoms: C_20  and  C_23
REMARK                            x       y       z     vdW  Elec       q    Type
REMARK                         _______ _______ _______ _____ _____    ______ ____
ROOT
ATOM      1  N   UNL     1       0.688  -0.476  -1.203  0.00  0.00    -0.307 N 
ATOM      2  C   UNL     1      -0.005  -0.610  -2.377  0.00  0.00    +0.213 A 
ATOM      3  N   UNL     1      -1.287  -0.305  -2.411  0.00  0.00    -0.174 NA
ATOM      4  C   UNL     1      -1.986  -0.428  -3.546  0.00  0.00    +0.297 A 
ATOM      5  O   UNL     1      -3.174  -0.143  -3.571  0.00  0.00    -0.264 OA
ATOM      6  C   UNL     1      -1.314  -0.905  -4.757  0.00  0.00    +0.133 A 
ATOM      7  N   UNL     1      -0.044  -1.200  -4.699  0.00  0.00    -0.170 NA
ATOM      8  N   UNL     1       0.642  -1.049  -3.487  0.00  0.00    -0.248 N 
ATOM      9  H   UNL     1       1.632  -0.695  -1.170  0.00  0.00    +0.149 HD
ATOM     10  H   UNL     1       1.587  -1.263  -3.439  0.00  0.00    +0.192 HD
ENDROOT
BRANCH   6  11
ATOM     11  C   UNL     1      -2.077  -1.052  -6.048  0.00  0.00    +0.011 C 
ATOM     12  C   UNL     1      -1.136  -1.564  -7.141  0.00  0.00    +0.017 C 
ATOM     13  C   UNL     1      -3.222  -2.048  -5.854  0.00  0.00    +0.017 C 
ATOM     14  C   UNL     1      -2.647   0.306  -6.462  0.00  0.00    +0.017 C 
ENDBRANCH   6  11
BRANCH   1  16
ATOM     15  C   UNL     1      -0.019   1.526   0.010  0.00  0.00    +0.033 C 
ATOM     16  C   UNL     1       0.002  -0.004   0.002  0.00  0.00    +0.100 C 
BRANCH  16  17
ATOM     17  C   UNL     1       0.731  -0.503   1.223  0.00  0.00    -0.027 A 
ATOM     18  C   UNL     1       2.113  -0.513   1.245  0.00  0.00    +0.009 A 
ATOM     19  C   UNL     1       2.784  -0.971   2.363  0.00  0.00    +0.046 A 
ATOM     20  C   UNL     1       2.069  -1.420   3.464  0.00  0.00    +0.120 A 
ATOM     21  C   UNL     1       0.682  -1.409   3.439  0.00  0.00    +0.046 A 
ATOM     22  C   UNL     1       0.016  -0.945   2.321  0.00  0.00    +0.009 A 
BRANCH  20  23
ATOM     23  O   UNL     1       2.726  -1.871   4.565  0.00  0.00    -0.495 OA
ATOM     24  C   UNL     1       1.926  -2.318   5.660  0.00  0.00    +0.277 C 
ENDBRANCH  20  23
ENDBRANCH  16  17
ENDBRANCH   1  16
TORSDOF 4
