REMARK  Name = ZINC39580606
REMARK  3 active torsions:
REMARK  status: ('A' for Active; 'I' for Inactive)
REMARK    1  A    between atoms: C_5  and  N_7
REMARK    2  A    between atoms: N_7  and  C_8
REMARK    3  A    between atoms: N_14  and  C_15
REMARK                            x       y       z     vdW  Elec       q    Type
REMARK                         _______ _______ _______ _____ _____    ______ ____
ROOT
ATOM      1  C   UNL     1      -0.019  -2.831  -0.013  0.00  0.00    +0.308 C 
ATOM      2  N   UNL     1      -0.618  -2.856  -1.357  0.00  0.00    -0.152 NA
ATOM      3  N   UNL     1      -0.682  -4.032  -1.722  0.00  0.00    -0.096 NA
ATOM      4  C   UNL     1      -0.207  -4.904  -0.823  0.00  0.00    +0.184 C 
ATOM      5  S   UNL     1      -0.161  -6.601  -1.040  0.00  0.00    -0.015 S 
ATOM      6  N   UNL     1       0.230  -4.255   0.282  0.00  0.00    -0.240 N 
ENDROOT
BRANCH   6   7
ATOM      7  C   UNL     1       0.790  -4.805   1.439  0.00  0.00    +0.053 A 
ATOM      8  C   UNL     1      -0.026  -5.175   2.500  0.00  0.00    +0.025 A 
ATOM      9  C   UNL     1       0.531  -5.719   3.641  0.00  0.00    +0.002 A 
ATOM     10  C   UNL     1       1.900  -5.895   3.728  0.00  0.00    +0.001 A 
ATOM     11  C   UNL     1       2.716  -5.528   2.674  0.00  0.00    +0.017 A 
ATOM     12  C   UNL     1       2.165  -4.989   1.527  0.00  0.00    +0.039 A 
ATOM     13 BR   UNL     1       3.281  -4.495   0.083  0.00  0.00    -0.048 Br
ENDBRANCH   6   7
BRANCH   1  14
ATOM     14  N   UNL     1       1.237  -2.078  -0.021  0.00  0.00    -0.305 N 
ATOM     15  H   UNL     1       2.085  -2.549  -0.033  0.00  0.00    +0.150 HD
BRANCH  14  20
ATOM     16  C   UNL     1      -0.017   1.377   0.010  0.00  0.00    +0.002 A 
ATOM     17  C   UNL     1       1.170   2.086   0.002  0.00  0.00    +0.001 A 
ATOM     18  C   UNL     1       2.380   1.417  -0.013  0.00  0.00    +0.017 A 
ATOM     19  C   UNL     1       2.406   0.035  -0.021  0.00  0.00    +0.039 A 
ATOM     20  C   UNL     1       1.215  -0.681  -0.013  0.00  0.00    +0.044 A 
ATOM     21  C   UNL     1       0.002  -0.004   0.002  0.00  0.00    +0.024 A 
ATOM     22 BR   UNL     1       4.061  -0.880  -0.043  0.00  0.00    -0.048 Br
ENDBRANCH  14  20
ENDBRANCH   1  14
TORSDOF 3
