REMARK  Name = ZINC39914975
REMARK  16 active torsions:
REMARK  status: ('A' for Active; 'I' for Inactive)
REMARK    1  A    between atoms: C_1  and  C_2
REMARK    2  A    between atoms: C_4  and  O_39
REMARK    3  A    between atoms: C_5  and  C_9
REMARK    4  A    between atoms: N_17  and  C_32
REMARK    5  A    between atoms: C_18  and  C_20
REMARK    6  A    between atoms: C_23  and  O_28
REMARK    7  A    between atoms: C_24  and  O_26
REMARK    8  A    between atoms: O_26  and  C_27
REMARK    9  A    between atoms: O_28  and  C_29
REMARK   10  A    between atoms: C_29  and  C_30
REMARK   11  A    between atoms: C_32  and  C_33
REMARK   12  A    between atoms: C_33  and  C_34
REMARK   13  A    between atoms: C_34  and  O_35
REMARK   14  A    between atoms: O_35  and  C_36
REMARK   15  A    between atoms: C_36  and  C_37
REMARK   16  A    between atoms: C_36  and  C_38
REMARK                            x       y       z     vdW  Elec       q    Type
REMARK                         _______ _______ _______ _____ _____    ______ ____
ROOT
ATOM      1  C   UNL     1       0.222  -3.949   0.054  0.00  0.00    +0.102 A 
ATOM      2  C   UNL     1       0.236  -4.898   1.081  0.00  0.00    +0.035 A 
ATOM      3  C   UNL     1       0.168  -6.130   0.458  0.00  0.00    +0.126 A 
ATOM      4  N   UNL     1       0.117  -5.873  -0.883  0.00  0.00    -0.272 N 
ATOM      5  H   UNL     1       0.064  -6.549  -1.577  0.00  0.00    +0.189 HD
ATOM      6  N   UNL     1       0.144  -4.605  -1.088  0.00  0.00    -0.173 NA
ATOM      7  C   UNL     1       0.178  -7.175   1.487  0.00  0.00    +0.265 C 
ATOM      8  O   UNL     1       0.129  -8.370   1.264  0.00  0.00    -0.268 OA
ATOM      9  N   UNL     1       0.249  -6.625   2.712  0.00  0.00    -0.285 N 
ATOM     10  C   UNL     1       0.291  -5.165   2.561  0.00  0.00    +0.141 C 
ENDROOT
BRANCH   1  15
ATOM     11  C   UNL     1       0.436   1.774   0.697  0.00  0.00    +0.045 C 
ATOM     12  C   UNL     1       0.380   0.278   0.526  0.00  0.00    -0.029 A 
ATOM     13  C   UNL     1       0.168  -0.264  -0.728  0.00  0.00    +0.050 A 
ATOM     14  C   UNL     1       0.116  -1.639  -0.890  0.00  0.00    +0.126 A 
ATOM     15  C   UNL     1       0.277  -2.475   0.218  0.00  0.00    +0.045 A 
ATOM     16  C   UNL     1       0.490  -1.920   1.477  0.00  0.00    +0.034 A 
ATOM     17  C   UNL     1       0.546  -0.547   1.625  0.00  0.00    +0.045 A 
ATOM     18 CL   UNL     1       0.818   0.144   3.194  0.00  0.00    -0.083 Cl
BRANCH  14  19
ATOM     19  O   UNL     1      -0.093  -2.172  -2.122  0.00  0.00    -0.506 OA
ATOM     20  H   UNL     1       0.719  -2.344  -2.619  0.00  0.00    +0.292 HD
ENDBRANCH  14  19
ENDBRANCH   1  15
BRANCH  10  21
ATOM     21  C   UNL     1      -0.896  -4.538   3.246  0.00  0.00    -0.019 A 
ATOM     22  C   UNL     1      -0.725  -3.410   4.026  0.00  0.00    +0.009 A 
ATOM     23  C   UNL     1      -1.811  -2.832   4.657  0.00  0.00    +0.050 A 
ATOM     24  C   UNL     1      -3.074  -3.382   4.507  0.00  0.00    +0.162 A 
ATOM     25  C   UNL     1      -3.245  -4.518   3.721  0.00  0.00    +0.162 A 
ATOM     26  C   UNL     1      -2.154  -5.090   3.087  0.00  0.00    +0.055 A 
BRANCH  25  27
ATOM     27  O   UNL     1      -4.483  -5.062   3.570  0.00  0.00    -0.491 OA
ATOM     28  C   UNL     1      -4.567  -6.292   2.848  0.00  0.00    +0.277 C 
ENDBRANCH  25  27
BRANCH  24  29
ATOM     29  O   UNL     1      -4.143  -2.814   5.127  0.00  0.00    -0.484 OA
BRANCH  29  30
ATOM     30  C   UNL     1      -3.892  -1.651   5.918  0.00  0.00    +0.256 C 
BRANCH  30  31
ATOM     31  C   UNL     1      -5.184  -1.166   6.522  0.00  0.00    +0.006 C 
ATOM     32  C   UNL     1      -5.227  -0.818   7.784  0.00  0.00    +0.007 C 
ENDBRANCH  30  31
ENDBRANCH  29  30
ENDBRANCH  24  29
ENDBRANCH  10  21
BRANCH   9  33
ATOM     33  C   UNL     1       0.280  -7.357   3.981  0.00  0.00    +0.111 C 
BRANCH  33  34
ATOM     34  C   UNL     1       1.731  -7.660   4.361  0.00  0.00    +0.047 C 
BRANCH  34  35
ATOM     35  C   UNL     1       1.763  -8.424   5.686  0.00  0.00    +0.161 C 
BRANCH  35  36
ATOM     36  O   UNL     1       3.118  -8.707   6.040  0.00  0.00    -0.377 OA
BRANCH  36  37
ATOM     37  C   UNL     1       3.261  -9.422   7.269  0.00  0.00    +0.112 C 
ATOM     38  C   UNL     1       4.517 -10.293   7.209  0.00  0.00    +0.037 C 
ATOM     39  C   UNL     1       3.383  -8.429   8.426  0.00  0.00    +0.037 C 
ENDBRANCH  36  37
ENDBRANCH  35  36
ENDBRANCH  34  35
ENDBRANCH  33  34
ENDBRANCH   9  33
TORSDOF 12
