REMARK  Name = ZINC00848060
REMARK  13 active torsions:
REMARK  status: ('A' for Active; 'I' for Inactive)
REMARK    1  A    between atoms: C_1  and  C_2
REMARK    2  A    between atoms: C_2  and  O_3
REMARK    3  A    between atoms: O_3  and  C_4
REMARK    4  A    between atoms: C_6  and  C_11
REMARK    5  A    between atoms: C_9  and  O_10
REMARK    6  A    between atoms: C_16  and  C_21
REMARK    7  A    between atoms: C_29  and  C_38
REMARK    8  A    between atoms: C_30  and  C_31
REMARK    9  A    between atoms: C_31  and  O_33
REMARK   10  A    between atoms: O_33  and  C_34
REMARK   11  A    between atoms: C_34  and  C_35
REMARK   12  A    between atoms: C_35  and  C_36
REMARK   13  A    between atoms: C_35  and  C_37
REMARK                            x       y       z     vdW  Elec       q    Type
REMARK                         _______ _______ _______ _____ _____    ______ ____
ROOT
ATOM      1  C   UNL     1      -1.007  10.194   0.028  0.00  0.00    +0.092 C 
ATOM      2  C   UNL     1      -0.931   8.688   0.002  0.00  0.00    +0.024 C 
ATOM      3  C   UNL     1      -0.883   8.021  -1.171  0.00  0.00    +0.016 C 
ATOM      4  C   UNL     1      -0.819   6.514  -1.205  0.00  0.00    +0.059 C 
ATOM      5  C   UNL     1      -0.079   6.003   0.034  0.00  0.00    +0.032 C 
ATOM      6  C   UNL     1      -0.818   6.502   1.281  0.00  0.00    +0.088 C 
ATOM      7  C   UNL     1      -0.909   8.002   1.229  0.00  0.00    +0.162 C 
ATOM      8  O   UNL     1      -0.965   8.633   2.266  0.00  0.00    -0.292 OA
ATOM      9  N   UNL     1      -0.887   8.702  -2.359  0.00  0.00    -0.321 N 
ATOM     10  C   UNL     1      -0.551  10.026  -2.404  0.00  0.00    +0.016 C 
ATOM     11  C   UNL     1      -0.589  10.777  -1.290  0.00  0.00    +0.065 C 
ATOM     12  C   UNL     1      -0.135  10.648  -3.712  0.00  0.00    +0.061 C 
ATOM     13  H   UNL     1      -1.164   8.183  -3.288  0.00  0.00    +0.152 HD
ENDROOT
BRANCH   5  14
ATOM     14  C   UNL     1      -0.059   4.497   0.026  0.00  0.00    -0.043 A 
ATOM     15  C   UNL     1       1.148   3.822   0.012  0.00  0.00    +0.005 A 
ATOM     16  C   UNL     1       1.167   2.440   0.004  0.00  0.00    +0.020 A 
ATOM     17  C   UNL     1      -0.021   1.732   0.012  0.00  0.00    +0.041 A 
ATOM     18  C   UNL     1      -1.229   2.407   0.021  0.00  0.00    +0.020 A 
ATOM     19  C   UNL     1      -1.247   3.789   0.034  0.00  0.00    +0.005 A 
ATOM     20 CL   UNL     1       0.002  -0.004   0.002  0.00  0.00    -0.084 Cl
ENDBRANCH   5  14
BRANCH   1  23
ATOM     21  C   UNL     1      -4.003  11.730   1.742  0.00  0.00    +0.162 A 
ATOM     22  C   UNL     1      -2.702  11.341   1.468  0.00  0.00    +0.054 A 
ATOM     23  C   UNL     1      -2.424  10.612   0.327  0.00  0.00    -0.032 A 
ATOM     24  C   UNL     1      -3.444  10.261  -0.538  0.00  0.00    +0.008 A 
ATOM     25  C   UNL     1      -4.745  10.641  -0.268  0.00  0.00    +0.049 A 
ATOM     26  C   UNL     1      -5.030  11.376   0.872  0.00  0.00    +0.158 A 
BRANCH  26  27
ATOM     27  O   UNL     1      -6.309  11.751   1.139  0.00  0.00    -0.503 OA
ATOM     28  H   UNL     1      -7.120  11.470   0.450  0.00  0.00    +0.292 HD
ENDBRANCH  26  27
BRANCH  21  29
ATOM     29  O   UNL     1      -4.277  12.451   2.862  0.00  0.00    -0.489 OA
BRANCH  29  31
ATOM     30  C   UNL     1      -3.675  13.585   4.909  0.00  0.00    +0.048 C 
ATOM     31  C   UNL     1      -3.174  12.778   3.709  0.00  0.00    +0.226 C 
ENDBRANCH  29  31
ENDBRANCH  21  29
ENDBRANCH   1  23
BRANCH  11  32
ATOM     32  C   UNL     1      -0.229  12.143  -1.362  0.00  0.00    +0.338 C 
ATOM     33  O   UNL     1       0.111  12.628  -2.425  0.00  0.00    -0.245 OA
BRANCH  32  34
ATOM     34  O   UNL     1      -0.263  12.909  -0.251  0.00  0.00    -0.461 OA
BRANCH  34  35
ATOM     35  C   UNL     1       0.113  14.280  -0.397  0.00  0.00    +0.235 C 
BRANCH  35  36
ATOM     36  C   UNL     1       0.013  14.983   0.958  0.00  0.00    +0.020 C 
ATOM     37  C   UNL     1       1.038  14.382   1.921  0.00  0.00    +0.010 C 
ATOM     38  C   UNL     1       0.294  16.476   0.780  0.00  0.00    +0.010 C 
ENDBRANCH  35  36
ENDBRANCH  34  35
ENDBRANCH  32  34
ENDBRANCH  11  32
TORSDOF 9
