REMARK  Name = ZINC13064676
REMARK  12 active torsions:
REMARK  status: ('A' for Active; 'I' for Inactive)
REMARK    1  A    between atoms: C_1  and  C_2
REMARK    2  A    between atoms: C_2  and  C_3
REMARK    3  A    between atoms: C_3  and  C_5
REMARK    4  A    between atoms: C_3  and  N_72
REMARK    5  A    between atoms: N_9  and  C_10
REMARK    6  A    between atoms: C_15  and  C_16
REMARK    7  A    between atoms: C_15  and  N_72
REMARK    8  A    between atoms: C_19  and  C_22
REMARK    9  A    between atoms: C_23  and  C_24
REMARK   10  A    between atoms: C_23  and  N_72
REMARK   11  A    between atoms: C_28  and  C_37
REMARK   12  A    between atoms: C_29  and  C_36
REMARK                            x       y       z     vdW  Elec       q    Type
REMARK                         _______ _______ _______ _____ _____    ______ ____
ROOT
ATOM      1  N   UNL     1      -5.901   4.442  -1.692  0.00  0.00    +0.392 N 
ATOM      2  H   UNL     1      -6.118   3.812  -2.473  0.00  0.00    -0.080 HD
ENDROOT
BRANCH   1   3
ATOM      3  C   UNL     1      -7.164   4.972  -1.137  0.00  0.00    +0.003 C 
BRANCH   3   4
ATOM      4  C   UNL     1      -8.210   3.889  -1.202  0.00  0.00    +0.138 A 
ATOM      5  N   UNL     1      -8.070   2.643  -0.819  0.00  0.00    -0.115 NA
ATOM      6  N   UNL     1      -9.186   2.034  -1.032  0.00  0.00    -0.023 NA
ATOM      7  N   UNL     1     -10.030   2.857  -1.548  0.00  0.00    -0.044 NA
ATOM      8  N   UNL     1      -9.466   4.011  -1.669  0.00  0.00    -0.228 N 
BRANCH   8   9
ATOM      9  C   UNL     1     -10.078   5.227  -2.211  0.00  0.00    +0.111 C 
ATOM     10  C   UNL     1     -11.343   5.587  -1.404  0.00  0.00    +0.027 C 
ATOM     11  C   UNL     1     -12.331   6.127  -2.469  0.00  0.00    +0.002 C 
ATOM     12  C   UNL     1     -12.061   5.207  -3.685  0.00  0.00    +0.002 C 
ATOM     13  C   UNL     1     -10.534   4.985  -3.661  0.00  0.00    +0.027 C 
ENDBRANCH   8   9
ENDBRANCH   3   4
BRANCH   3  15
ATOM     14  C   UNL     1      -6.022   6.608   0.367  0.00  0.00    +0.002 C 
ATOM     15  C   UNL     1      -6.968   5.407   0.316  0.00  0.00    -0.011 C 
ENDBRANCH   3  15
ENDBRANCH   1   3
BRANCH   1  16
ATOM     16  C   UNL     1      -5.062   5.552  -2.190  0.00  0.00    -0.042 C 
BRANCH  16  17
ATOM     17  C   UNL     1      -5.646   6.056  -3.485  0.00  0.00    -0.064 A 
ATOM     18  C   UNL     1      -5.342   5.420  -4.674  0.00  0.00    +0.002 A 
ATOM     19  C   UNL     1      -5.881   5.880  -5.861  0.00  0.00    +0.003 A 
ATOM     20  C   UNL     1      -6.717   6.981  -5.860  0.00  0.00    -0.050 A 
ATOM     21  C   UNL     1      -7.018   7.619  -4.672  0.00  0.00    +0.003 A 
ATOM     22  C   UNL     1      -6.482   7.157  -3.484  0.00  0.00    +0.002 A 
ATOM     23  C   UNL     1      -7.301   7.484  -7.155  0.00  0.00    +0.044 C 
ENDBRANCH  16  17
ENDBRANCH   1  16
BRANCH   1  24
ATOM     24  C   UNL     1      -5.171   3.685  -0.653  0.00  0.00    -0.036 C 
BRANCH  24  25
ATOM     25  C   UNL     1      -4.101   2.858  -1.318  0.00  0.00    +0.001 A 
ATOM     26  C   UNL     1      -2.830   3.326  -1.385  0.00  0.00    +0.017 A 
ATOM     27  C   UNL     1      -1.815   2.500  -2.042  0.00  0.00    -0.001 A 
ATOM     28  C   UNL     1      -0.491   2.937  -2.156  0.00  0.00    +0.013 A 
ATOM     29  C   UNL     1       0.433   2.143  -2.775  0.00  0.00    -0.047 A 
ATOM     30  C   UNL     1       0.069   0.906  -3.292  0.00  0.00    -0.046 A 
ATOM     31  C   UNL     1      -1.230   0.456  -3.190  0.00  0.00    +0.030 A 
ATOM     32  C   UNL     1      -2.189   1.250  -2.569  0.00  0.00    +0.049 A 
ATOM     33  N   UNL     1      -3.496   0.827  -2.458  0.00  0.00    -0.322 N 
ATOM     34  H   UNL     1      -3.752  -0.037  -2.818  0.00  0.00    +0.169 HD
ATOM     35  C   UNL     1      -4.423   1.595  -1.858  0.00  0.00    +0.251 A 
ATOM     36  O   UNL     1      -5.569   1.189  -1.778  0.00  0.00    -0.268 OA
ATOM     37  C   UNL     1       1.105   0.048  -3.970  0.00  0.00    +0.044 C 
ATOM     38  C   UNL     1       1.859   2.613  -2.899  0.00  0.00    +0.044 C 
ENDBRANCH  24  25
ENDBRANCH   1  24
TORSDOF 8
