REMARK  Name = ZINC03841915
REMARK  6 active torsions:
REMARK  status: ('A' for Active; 'I' for Inactive)
REMARK    1  A    between atoms: C_1  and  N_2
REMARK    2  A    between atoms: N_2  and  C_3
REMARK    3  A    between atoms: N_2  and  C_4
REMARK    4  A    between atoms: C_7  and  C_10
REMARK    5  A    between atoms: C_25  and  C_26
REMARK    6  A    between atoms: C_25  and  N_56
REMARK                            x       y       z     vdW  Elec       q    Type
REMARK                         _______ _______ _______ _____ _____    ______ ____
ROOT
ATOM      1  C   UNL     1       1.299   0.191   6.320  0.00  0.00    +0.002 A 
ATOM      2  C   UNL     1       1.202  -1.138   6.779  0.00  0.00    +0.015 A 
ATOM      3  C   UNL     1       1.644  -1.433   8.032  0.00  0.00    +0.071 A 
ATOM      4  C   UNL     1       2.200  -0.414   8.820  0.00  0.00    +0.252 A 
ATOM      5  O   UNL     1       2.525  -0.654   9.972  0.00  0.00    -0.268 OA
ATOM      6  N   UNL     1       2.380   0.833   8.321  0.00  0.00    -0.311 N 
ATOM      7  C   UNL     1       1.870   1.153   7.110  0.00  0.00    +0.031 A 
ATOM      8  C   UNL     1       1.881   2.571   6.586  0.00  0.00    +0.020 C 
ATOM      9  C   UNL     1       3.072   3.323   7.191  0.00  0.00    +0.011 C 
ATOM     10  C   UNL     1       2.964   3.210   8.715  0.00  0.00    -0.007 C 
ATOM     11  C   UNL     1       3.162   1.759   9.118  0.00  0.00    +0.126 C 
ATOM     12  C   UNL     1       1.630   3.756   9.203  0.00  0.00    -0.073 C 
ATOM     13  C   UNL     1       0.591   3.254   7.072  0.00  0.00    -0.069 C 
ATOM     14  N   UNL     1       0.511   3.059   8.537  0.00  0.00    +0.383 N 
ATOM     15  H   UNL     1       0.574   2.055   8.744  0.00  0.00    -0.081 HD
ENDROOT
BRANCH   1  19
ATOM     16  C   UNL     1      -0.204   1.220   2.475  0.00  0.00    +0.029 A 
ATOM     17  C   UNL     1      -1.082   0.855   3.488  0.00  0.00    +0.024 A 
ATOM     18  C   UNL     1      -0.597   0.516   4.734  0.00  0.00    +0.010 A 
ATOM     19  C   UNL     1       0.775   0.550   4.979  0.00  0.00    -0.016 A 
ATOM     20  C   UNL     1       1.653   0.922   3.963  0.00  0.00    +0.010 A 
ATOM     21  C   UNL     1       1.164   1.256   2.718  0.00  0.00    +0.024 A 
BRANCH  16  23
ATOM     22  C   UNL     1       0.228   1.949   0.146  0.00  0.00    +0.129 C 
ATOM     23  N   UNL     1      -0.697   1.558   1.213  0.00  0.00    -0.336 N 
ATOM     24  C   UNL     1      -2.139   1.521   0.956  0.00  0.00    +0.129 C 
ENDBRANCH  16  23
ENDBRANCH   1  19
BRANCH  14  25
ATOM     25  C   UNL     1      -0.777   3.574   9.045  0.00  0.00    -0.036 C 
BRANCH  25  26
ATOM     26  C   UNL     1      -1.889   2.701   8.523  0.00  0.00    -0.027 A 
ATOM     27  C   UNL     1      -2.420   1.579   9.067  0.00  0.00    +0.009 A 
ATOM     28  C   UNL     1      -3.447   0.934   8.403  0.00  0.00    +0.008 A 
ATOM     29  C   UNL     1      -3.893   1.442   7.229  0.00  0.00    +0.045 A 
ATOM     30  S   UNL     1      -2.853   2.881   7.031  0.00  0.00    -0.103 S 
ENDBRANCH  25  26
ENDBRANCH  14  25
TORSDOF 4
