REMARK  Name = ZINC63340092
REMARK  8 active torsions:
REMARK  status: ('A' for Active; 'I' for Inactive)
REMARK    1  A    between atoms: C_1  and  C_2
REMARK    2  A    between atoms: C_4  and  N_18
REMARK    3  A    between atoms: C_6  and  C_17
REMARK    4  A    between atoms: N_8  and  C_10
REMARK    5  A    between atoms: C_10  and  C_11
REMARK    6  A    between atoms: C_19  and  C_21
REMARK    7  A    between atoms: C_21  and  S_22
REMARK    8  A    between atoms: S_22  and  C_23
REMARK                            x       y       z     vdW  Elec       q    Type
REMARK                         _______ _______ _______ _____ _____    ______ ____
ROOT
ATOM      1  N   UNL     1      -2.366   0.441   0.582  0.00  0.00    -0.309 N 
ATOM      2  C   UNL     1      -2.922   1.359  -0.232  0.00  0.00    +0.223 C 
ATOM      3  O   UNL     1      -2.656   1.361  -1.416  0.00  0.00    -0.275 OA
ATOM      4  H   UNL     1      -2.578   0.440   1.529  0.00  0.00    +0.149 HD
ENDROOT
BRANCH   1   7
ATOM      5  C   UNL     1      -0.019   1.526   0.010  0.00  0.00    +0.027 C 
ATOM      6  C   UNL     1       0.002  -0.004   0.002  0.00  0.00    +0.088 C 
ATOM      7  C   UNL     1      -1.441  -0.556   0.038  0.00  0.00    +0.109 C 
ATOM      8  C   UNL     1      -1.311  -1.772   0.992  0.00  0.00    +0.092 C 
ATOM      9  N   UNL     1      -0.314  -1.289   1.984  0.00  0.00    -0.234 NA
ATOM     10  N   UNL     1       0.663  -0.511   1.221  0.00  0.00    -0.249 NA
ATOM     11  C   UNL     1      -2.650  -2.081   1.665  0.00  0.00    +0.027 C 
ATOM     12  H   UNL     1       1.032   0.248   1.774  0.00  0.00    +0.141 HD
BRANCH   9  13
ATOM     13  C   UNL     1       0.332  -2.415   2.671  0.00  0.00    +0.137 C 
BRANCH  13  14
ATOM     14  C   UNL     1       1.243  -1.889   3.750  0.00  0.00    -0.032 A 
ATOM     15  C   UNL     1       2.563  -1.601   3.461  0.00  0.00    +0.005 A 
ATOM     16  C   UNL     1       3.399  -1.118   4.450  0.00  0.00    +0.000 A 
ATOM     17  C   UNL     1       2.913  -0.923   5.730  0.00  0.00    +0.000 A 
ATOM     18  C   UNL     1       1.593  -1.210   6.019  0.00  0.00    +0.000 A 
ATOM     19  C   UNL     1       0.756  -1.688   5.029  0.00  0.00    +0.005 A 
ENDBRANCH  13  14
ENDBRANCH   9  13
ENDBRANCH   1   7
BRANCH   2  20
ATOM     20  C   UNL     1      -3.874   2.385   0.327  0.00  0.00    +0.168 C 
BRANCH  20  21
ATOM     21  S   UNL     1      -4.447   3.470  -1.008  0.00  0.00    -0.106 S 
BRANCH  21  22
ATOM     22  C   UNL     1      -5.568   4.631  -0.180  0.00  0.00    +0.236 C 
ATOM     23  N   UNL     1      -4.858   5.339   0.893  0.00  0.00    -0.355 N 
ATOM     24  C   UNL     1      -5.460   5.058   2.012  0.00  0.00    +0.061 A 
ATOM     25  C   UNL     1      -5.218   5.461   3.405  0.00  0.00    +0.030 A 
ATOM     26  C   UNL     1      -6.026   5.002   4.380  0.00  0.00    +0.040 A 
ATOM     27  C   UNL     1      -7.110   4.139   4.124  0.00  0.00    +0.125 A 
ATOM     28  C   UNL     1      -7.419   3.709   2.880  0.00  0.00    +0.065 A 
ATOM     29  C   UNL     1      -6.606   4.147   1.740  0.00  0.00    +0.064 A 
ATOM     30  N   UNL     1      -6.667   3.899   0.461  0.00  0.00    -0.355 N 
ATOM     31  F   UNL     1      -7.870   3.725   5.161  0.00  0.00    -0.205 F 
ATOM     32  H   UNL     1      -4.082   5.911   0.787  0.00  0.00    +0.162 HD
ATOM     33  H   UNL     1      -7.319   3.336   0.016  0.00  0.00    +0.162 HD
ENDBRANCH  21  22
ENDBRANCH  20  21
ENDBRANCH   2  20
TORSDOF 6
