REMARK  Name = ZINC08923034
REMARK  7 active torsions:
REMARK  status: ('A' for Active; 'I' for Inactive)
REMARK    1  A    between atoms: C_4  and  C_7
REMARK    2  A    between atoms: C_7  and  C_8
REMARK    3  A    between atoms: C_8  and  N_9
REMARK    4  A    between atoms: C_16  and  C_19
REMARK    5  A    between atoms: C_16  and  O_32
REMARK    6  A    between atoms: C_19  and  C_20
REMARK    7  A    between atoms: C_20  and  C_22
REMARK                            x       y       z     vdW  Elec       q    Type
REMARK                         _______ _______ _______ _____ _____    ______ ____
ROOT
ATOM      1  N   UNL     1       2.509   1.345  -0.014  0.00  0.00    -0.268 N 
ATOM      2  C   UNL     1       1.186   1.787   0.000  0.00  0.00    +0.043 A 
ATOM      3  C   UNL     1      -0.013   1.076   0.008  0.00  0.00    +0.025 A 
ATOM      4  C   UNL     1      -1.217   1.748   0.017  0.00  0.00    +0.022 A 
ATOM      5  C   UNL     1      -1.246   3.131   0.029  0.00  0.00    +0.041 A 
ATOM      6  C   UNL     1      -0.059   3.845   0.022  0.00  0.00    +0.028 A 
ATOM      7  C   UNL     1       1.144   3.176   0.008  0.00  0.00    +0.016 A 
ATOM      8  C   UNL     1       2.580   3.645  -0.003  0.00  0.00    +0.175 C 
ATOM      9  C   UNL     1       3.386   2.363  -0.017  0.00  0.00    +0.257 C 
ATOM     10  O   UNL     1       4.596   2.273  -0.029  0.00  0.00    -0.272 OA
ATOM     11 CL   UNL     1      -2.766   3.970   0.046  0.00  0.00    -0.084 Cl
ENDROOT
BRANCH   8  12
ATOM     12  O   UNL     1       2.845   4.419  -1.175  0.00  0.00    -0.374 OA
ATOM     13  H   UNL     1       3.753   4.746  -1.234  0.00  0.00    +0.211 HD
ENDBRANCH   8  12
BRANCH   1  14
ATOM     14  C   UNL     1       2.898  -0.068  -0.025  0.00  0.00    +0.118 C 
BRANCH  14  15
ATOM     15  C   UNL     1       3.020  -0.552  -1.471  0.00  0.00    +0.054 C 
BRANCH  15  19
ATOM     16  C   UNL     1       4.154  -4.670  -1.503  0.00  0.00    +0.000 A 
ATOM     17  C   UNL     1       2.816  -4.322  -1.489  0.00  0.00    +0.000 A 
ATOM     18  C   UNL     1       2.450  -2.989  -1.478  0.00  0.00    +0.004 A 
ATOM     19  C   UNL     1       3.420  -2.005  -1.482  0.00  0.00    -0.046 A 
ATOM     20  C   UNL     1       4.758  -2.353  -1.502  0.00  0.00    +0.004 A 
ATOM     21  C   UNL     1       5.125  -3.686  -1.508  0.00  0.00    +0.000 A 
ENDBRANCH  15  19
ENDBRANCH  14  15
ENDBRANCH   1  14
BRANCH   8  22
ATOM     22  C   UNL     1       2.888   4.458   1.256  0.00  0.00    +0.129 C 
BRANCH  22  23
ATOM     23  C   UNL     1       4.324   4.913   1.220  0.00  0.00    +0.167 C 
ATOM     24  O   UNL     1       5.032   4.617   0.281  0.00  0.00    -0.292 OA
BRANCH  23  25
ATOM     25  C   UNL     1       4.869   5.718   2.326  0.00  0.00    +0.018 A 
ATOM     26  C   UNL     1       4.057   6.069   3.410  0.00  0.00    +0.011 A 
ATOM     27  C   UNL     1       4.581   6.818   4.437  0.00  0.00    +0.004 A 
ATOM     28  C   UNL     1       5.906   7.242   4.405  0.00  0.00    -0.044 A 
ATOM     29  C   UNL     1       6.712   6.902   3.339  0.00  0.00    -0.044 A 
ATOM     30  C   UNL     1       6.197   6.143   2.300  0.00  0.00    +0.015 A 
ATOM     31  C   UNL     1       8.156   7.321   3.249  0.00  0.00    +0.035 C 
ATOM     32  C   UNL     1       8.442   8.474   4.208  0.00  0.00    +0.005 C 
ATOM     33  C   UNL     1       7.928   8.085   5.599  0.00  0.00    +0.005 C 
ATOM     34  C   UNL     1       6.401   8.072   5.561  0.00  0.00    +0.035 C 
ENDBRANCH  23  25
ENDBRANCH  22  23
ENDBRANCH   8  22
TORSDOF 7
