REMARK  Name = ZINC66969576
REMARK  8 active torsions:
REMARK  status: ('A' for Active; 'I' for Inactive)
REMARK    1  A    between atoms: C_5  and  C_7
REMARK    2  A    between atoms: N_12  and  C_14
REMARK    3  A    between atoms: C_14  and  C_15
REMARK    4  A    between atoms: C_15  and  C_17
REMARK    5  A    between atoms: C_15  and  O_27
REMARK    6  A    between atoms: C_17  and  O_18
REMARK    7  A    between atoms: O_18  and  C_19
REMARK    8  A    between atoms: C_22  and  C_25
REMARK                            x       y       z     vdW  Elec       q    Type
REMARK                         _______ _______ _______ _____ _____    ______ ____
ROOT
ATOM      1  C   UNL     1       1.246  -2.165  -0.022  0.00  0.00    +0.094 A 
ATOM      2  C   UNL     1       0.032  -2.892  -0.019  0.00  0.00    +0.035 A 
ATOM      3  C   UNL     1       0.095  -4.254  -0.028  0.00  0.00    +0.074 A 
ATOM      4  C   UNL     1       1.372  -4.856  -0.039  0.00  0.00    +0.267 A 
ATOM      5  O   UNL     1       1.478  -6.072  -0.047  0.00  0.00    -0.266 OA
ATOM      6  N   UNL     1       2.472  -4.080  -0.040  0.00  0.00    -0.226 N 
ATOM      7  N   UNL     1       2.395  -2.799  -0.037  0.00  0.00    -0.168 NA
ENDROOT
BRANCH   1  12
ATOM      8  C   UNL     1      -0.017   1.376   0.010  0.00  0.00    +0.001 A 
ATOM      9  C   UNL     1       1.170   2.087   0.002  0.00  0.00    +0.003 A 
ATOM     10  C   UNL     1       2.382   1.422  -0.013  0.00  0.00    +0.039 A 
ATOM     11  C   UNL     1       2.414   0.040  -0.021  0.00  0.00    +0.133 A 
ATOM     12  C   UNL     1       1.219  -0.682  -0.013  0.00  0.00    +0.037 A 
ATOM     13  C   UNL     1       0.002  -0.004   0.002  0.00  0.00    +0.013 A 
ATOM     14  F   UNL     1       3.598  -0.610  -0.037  0.00  0.00    -0.205 F 
ENDBRANCH   1  12
BRANCH   6  15
ATOM     15  C   UNL     1       3.792  -4.715  -0.051  0.00  0.00    +0.182 C 
BRANCH  15  16
ATOM     16  C   UNL     1       4.244  -4.927  -1.498  0.00  0.00    +0.173 C 
BRANCH  16  17
ATOM     17  O   UNL     1       3.305  -5.768  -2.171  0.00  0.00    -0.387 OA
ATOM     18  H   UNL     1       3.204  -6.643  -1.772  0.00  0.00    +0.210 HD
ENDBRANCH  16  17
BRANCH  16  19
ATOM     19  C   UNL     1       5.623  -5.590  -1.509  0.00  0.00    +0.262 C 
BRANCH  19  20
ATOM     20  O   UNL     1       6.096  -5.682  -2.854  0.00  0.00    -0.489 OA
BRANCH  20  21
ATOM     21  C   UNL     1       7.314  -6.250  -3.042  0.00  0.00    +0.121 A 
ATOM     22  C   UNL     1       8.037  -6.715  -1.950  0.00  0.00    +0.047 A 
ATOM     23  C   UNL     1       9.274  -7.292  -2.135  0.00  0.00    +0.022 A 
ATOM     24  C   UNL     1       9.801  -7.410  -3.424  0.00  0.00    +0.052 A 
ATOM     25  C   UNL     1       9.071  -6.942  -4.520  0.00  0.00    +0.022 A 
ATOM     26  C   UNL     1       7.832  -6.371  -4.326  0.00  0.00    +0.047 A 
BRANCH  24  27
ATOM     27  C   UNL     1      11.087  -8.010  -3.622  0.00  0.00    +0.099 C 
ATOM     28  N   UNL     1      12.107  -8.485  -3.779  0.00  0.00    -0.191 NA
ENDBRANCH  24  27
ENDBRANCH  20  21
ENDBRANCH  19  20
ENDBRANCH  16  19
ENDBRANCH  15  16
ENDBRANCH   6  15
TORSDOF 8
