REMARK  Name = ZINC36610377
REMARK  15 active torsions:
REMARK  status: ('A' for Active; 'I' for Inactive)
REMARK    1  A    between atoms: C_1  and  C_2
REMARK    2  A    between atoms: C_2  and  C_3
REMARK    3  A    between atoms: C_3  and  C_4
REMARK    4  A    between atoms: C_3  and  C_6
REMARK    5  A    between atoms: C_4  and  C_5
REMARK    6  A    between atoms: C_6  and  C_8
REMARK    7  A    between atoms: C_6  and  N_22
REMARK    8  A    between atoms: N_10  and  C_11
REMARK    9  A    between atoms: C_11  and  S_12
REMARK   10  A    between atoms: S_12  and  C_15
REMARK   11  A    between atoms: C_18  and  C_21
REMARK   12  A    between atoms: N_22  and  C_23
REMARK   13  A    between atoms: C_29  and  C_31
REMARK   14  A    between atoms: C_35  and  O_38
REMARK   15  A    between atoms: C_36  and  O_37
REMARK                            x       y       z     vdW  Elec       q    Type
REMARK                         _______ _______ _______ _____ _____    ______ ____
ROOT
ATOM      1  C   UNL     1      -2.680  -0.079   1.384  0.00  0.00    +0.170 C 
ENDROOT
BRANCH   1   2
ATOM      2  C   UNL     1      -4.156  -0.381   1.394  0.00  0.00    +0.235 C 
ATOM      3  O   UNL     1      -4.950   0.465   1.042  0.00  0.00    -0.274 OA
ATOM      4  N   UNL     1      -4.594  -1.591   1.795  0.00  0.00    -0.295 N 
ATOM      5  H   UNL     1      -3.958  -2.270   2.071  0.00  0.00    +0.150 HD
BRANCH   4   6
ATOM      6  C   UNL     1      -6.030  -1.881   1.815  0.00  0.00    +0.278 C 
BRANCH   6   7
ATOM      7  S   UNL     1      -6.464  -2.886   0.369  0.00  0.00    +0.013 S 
ATOM      8  O   UNL     1      -7.857  -3.167   0.368  0.00  0.00    -0.168 OA
ATOM      9  O   UNL     1      -5.829  -2.372  -0.793  0.00  0.00    -0.168 OA
BRANCH   7  10
ATOM     10  C   UNL     1      -5.691  -4.444   0.652  0.00  0.00    +0.090 A 
ATOM     11  C   UNL     1      -4.368  -4.633   0.298  0.00  0.00    +0.027 A 
ATOM     12  C   UNL     1      -3.761  -5.855   0.520  0.00  0.00    +0.005 A 
ATOM     13  C   UNL     1      -4.477  -6.888   1.096  0.00  0.00    -0.050 A 
ATOM     14  C   UNL     1      -5.800  -6.698   1.451  0.00  0.00    +0.005 A 
ATOM     15  C   UNL     1      -6.405  -5.475   1.233  0.00  0.00    +0.027 A 
ATOM     16  C   UNL     1      -3.816  -8.220   1.337  0.00  0.00    +0.044 C 
ENDBRANCH   7  10
ENDBRANCH   6   7
ENDBRANCH   4   6
ENDBRANCH   1   2
BRANCH   1  17
ATOM     17  N   UNL     1      -2.472   1.334   1.058  0.00  0.00    -0.255 N 
ATOM     18  C   UNL     1      -1.699   2.102   1.851  0.00  0.00    +0.255 C 
ATOM     19  O   UNL     1      -1.521   3.273   1.577  0.00  0.00    -0.269 OA
BRANCH  17  20
ATOM     20  C   UNL     1      -3.077   1.886  -0.075  0.00  0.00    +0.037 A 
ATOM     21  C   UNL     1      -4.006   1.148  -0.798  0.00  0.00    +0.023 A 
ATOM     22  C   UNL     1      -4.601   1.696  -1.917  0.00  0.00    +0.002 A 
ATOM     23  C   UNL     1      -4.274   2.978  -2.318  0.00  0.00    +0.000 A 
ATOM     24  C   UNL     1      -3.349   3.716  -1.601  0.00  0.00    +0.002 A 
ATOM     25  C   UNL     1      -2.755   3.176  -0.478  0.00  0.00    +0.023 A 
ENDBRANCH  17  20
BRANCH  18  26
ATOM     26  C   UNL     1      -1.068   1.522   3.052  0.00  0.00    +0.082 A 
ATOM     27  C   UNL     1      -0.878   0.140   3.147  0.00  0.00    +0.017 A 
ATOM     28  C   UNL     1      -0.289  -0.398   4.270  0.00  0.00    +0.005 A 
ATOM     29  C   UNL     1       0.118   0.423   5.309  0.00  0.00    +0.049 A 
ATOM     30  C   UNL     1      -0.062   1.793   5.229  0.00  0.00    +0.159 A 
ATOM     31  C   UNL     1      -0.651   2.353   4.098  0.00  0.00    +0.171 A 
BRANCH  31  32
ATOM     32  O   UNL     1      -0.825   3.696   4.014  0.00  0.00    -0.503 OA
ATOM     33  H   UNL     1      -1.669   4.007   4.368  0.00  0.00    +0.292 HD
ENDBRANCH  31  32
BRANCH  30  34
ATOM     34  O   UNL     1       0.340   2.593   6.253  0.00  0.00    -0.503 OA
ATOM     35  H   UNL     1       1.251   2.907   6.172  0.00  0.00    +0.292 HD
ENDBRANCH  30  34
ENDBRANCH  18  26
ENDBRANCH   1  17
BRANCH   1  36
ATOM     36  C   UNL     1      -1.988  -0.951   0.335  0.00  0.00    +0.018 C 
BRANCH  36  38
ATOM     37  C   UNL     1      -4.087  -1.312  -0.971  0.00  0.00    +0.004 C 
ATOM     38  C   UNL     1      -2.665  -0.750  -1.022  0.00  0.00    +0.002 C 
ENDBRANCH  36  38
BRANCH  36  39
ATOM     39  C   UNL     1      -0.514  -0.555   0.234  0.00  0.00    +0.002 C 
ATOM     40  C   UNL     1       0.277  -1.239   1.351  0.00  0.00    +0.004 C 
ENDBRANCH  36  39
ENDBRANCH   1  36
TORSDOF 12
