REMARK  Name = ZINC12497105
REMARK  6 active torsions:
REMARK  status: ('A' for Active; 'I' for Inactive)
REMARK    1  A    between atoms: C_1  and  O_2
REMARK    2  A    between atoms: O_2  and  C_3
REMARK    3  A    between atoms: C_3  and  C_5
REMARK    4  A    between atoms: C_5  and  C_28
REMARK    5  A    between atoms: C_10  and  C_12
REMARK    6  A    between atoms: N_19  and  C_22
REMARK                            x       y       z     vdW  Elec       q    Type
REMARK                         _______ _______ _______ _____ _____    ______ ____
ROOT
ATOM      1  C   UNL     1      -5.957   0.431   0.381  0.00  0.00    +0.070 C 
ATOM      2  C   UNL     1      -4.602   0.467  -0.328  0.00  0.00    +0.090 C 
ATOM      3  C   UNL     1      -3.945  -0.763   0.415  0.00  0.00    +0.078 C 
ATOM      4  C   UNL     1      -4.993  -1.789   0.290  0.00  0.00    -0.019 C 
ATOM      5  C   UNL     1      -2.545  -0.555   0.145  0.00  0.00    +0.229 C 
ATOM      6  O   UNL     1      -1.695  -1.398  -0.045  0.00  0.00    -0.275 OA
ATOM      7  N   UNL     1      -2.387   0.809   0.150  0.00  0.00    -0.210 N 
ATOM      8  C   UNL     1      -3.576   1.479   0.117  0.00  0.00    +0.229 C 
ATOM      9  O   UNL     1      -3.767   2.645   0.388  0.00  0.00    -0.275 OA
ATOM     10  N   UNL     1      -6.225  -1.010   0.629  0.00  0.00    +0.398 N 
ATOM     11  H   UNL     1      -7.006  -1.323   0.041  0.00  0.00    -0.083 HD
ATOM     12  H   UNL     1      -6.464  -1.152   1.618  0.00  0.00    -0.083 HD
ENDROOT
BRANCH   7  13
ATOM     13  C   UNL     1      -1.138   1.445   0.191  0.00  0.00    +0.044 A 
ATOM     14  C   UNL     1       0.026   0.690   0.229  0.00  0.00    +0.024 A 
ATOM     15  C   UNL     1       1.255   1.320   0.264  0.00  0.00    +0.002 A 
ATOM     16  C   UNL     1       1.326   2.701   0.266  0.00  0.00    +0.000 A 
ATOM     17  C   UNL     1       0.168   3.455   0.235  0.00  0.00    +0.002 A 
ATOM     18  C   UNL     1      -1.064   2.831   0.200  0.00  0.00    +0.024 A 
ENDBRANCH   7  13
BRANCH   1  19
ATOM     19  C   UNL     1      -7.024   1.023  -0.503  0.00  0.00    -0.047 A 
ATOM     20  C   UNL     1      -6.700   2.016  -1.409  0.00  0.00    +0.003 A 
ATOM     21  C   UNL     1      -7.678   2.555  -2.223  0.00  0.00    +0.000 A 
ATOM     22  C   UNL     1      -8.983   2.109  -2.125  0.00  0.00    +0.000 A 
ATOM     23  C   UNL     1      -9.308   1.119  -1.216  0.00  0.00    +0.000 A 
ATOM     24  C   UNL     1      -8.329   0.576  -0.405  0.00  0.00    +0.003 A 
ENDBRANCH   1  19
BRANCH   4  25
ATOM     25  C   UNL     1      -5.062  -2.319  -1.119  0.00  0.00    -0.023 A 
ATOM     26  C   UNL     1      -4.547  -3.465  -1.627  0.00  0.00    +0.009 A 
ATOM     27  C   UNL     1      -4.736  -3.750  -2.966  0.00  0.00    +0.008 A 
ATOM     28  C   UNL     1      -5.431  -2.875  -3.732  0.00  0.00    +0.045 A 
ATOM     29  S   UNL     1      -5.850  -1.602  -2.552  0.00  0.00    -0.103 S 
ENDBRANCH   4  25
BRANCH   1  30
ATOM     30  C   UNL     1      -5.884   1.183   1.684  0.00  0.00    +0.301 C 
ATOM     31  O   UNL     1      -6.210   2.346   1.730  0.00  0.00    -0.252 OA
BRANCH  30  33
ATOM     32  C   UNL     1      -5.413   1.349   4.014  0.00  0.00    +0.280 C 
ATOM     33  O   UNL     1      -5.457   0.562   2.795  0.00  0.00    -0.469 OA
ENDBRANCH  30  33
ENDBRANCH   1  30
TORSDOF 5
