REMARK  Name = ZINC15225079
REMARK  7 active torsions:
REMARK  status: ('A' for Active; 'I' for Inactive)
REMARK    1  A    between atoms: C_1  and  C_2
REMARK    2  A    between atoms: C_2  and  C_4
REMARK    3  A    between atoms: C_2  and  O_6
REMARK    4  A    between atoms: O_6  and  C_7
REMARK    5  A    between atoms: C_7  and  C_9
REMARK    6  A    between atoms: C_11  and  S_16
REMARK    7  A    between atoms: S_16  and  N_19
REMARK                            x       y       z     vdW  Elec       q    Type
REMARK                         _______ _______ _______ _____ _____    ______ ____
ROOT
ATOM      1  C   UNL     1       4.593  -2.190  -2.741  0.00  0.00    +0.079 A 
ATOM      2  C   UNL     1       4.487  -1.465  -1.552  0.00  0.00    +0.045 A 
ATOM      3  C   UNL     1       3.718  -1.952  -0.516  0.00  0.00    +0.110 A 
ATOM      4  C   UNL     1       3.056  -3.161  -0.650  0.00  0.00    +0.030 A 
ATOM      5  C   UNL     1       3.151  -3.882  -1.826  0.00  0.00    +0.023 A 
ATOM      6  C   UNL     1       3.918  -3.407  -2.872  0.00  0.00    +0.055 A 
ATOM      7 CL   UNL     1       4.041  -4.317  -4.345  0.00  0.00    -0.083 Cl
ENDROOT
BRANCH   3   8
ATOM      8  S   UNL     1       3.584  -1.038   0.984  0.00  0.00    +0.075 S 
ATOM      9  O   UNL     1       4.738  -0.213   1.062  0.00  0.00    -0.150 OA
ATOM     10  O   UNL     1       3.245  -1.972   2.000  0.00  0.00    -0.150 OA
BRANCH   8  11
ATOM     11  N   UNL     1       2.286  -0.022   0.823  0.00  0.00    -0.203 N 
ATOM     12  C   UNL     1       2.474   1.366   0.380  0.00  0.00    +0.132 C 
ATOM     13  C   UNL     1       1.621   2.267   1.283  0.00  0.00    +0.025 C 
ATOM     14  C   UNL     1       0.148   1.908   1.088  0.00  0.00    +0.038 C 
ATOM     15  C   UNL     1      -0.058   0.424   1.244  0.00  0.00    -0.025 A 
ATOM     16  C   UNL     1       0.992  -0.472   1.107  0.00  0.00    +0.054 A 
ATOM     17  C   UNL     1       0.765  -1.836   1.253  0.00  0.00    +0.025 A 
ATOM     18  C   UNL     1      -0.504  -2.299   1.537  0.00  0.00    +0.002 A 
ATOM     19  C   UNL     1      -1.550  -1.405   1.675  0.00  0.00    +0.000 A 
ATOM     20  C   UNL     1      -1.327  -0.049   1.529  0.00  0.00    +0.005 A 
ENDBRANCH   8  11
ENDBRANCH   3   8
BRANCH   1  21
ATOM     21  C   UNL     1       5.414  -1.674  -3.854  0.00  0.00    +0.342 C 
ATOM     22  O   UNL     1       5.504  -2.308  -4.887  0.00  0.00    -0.245 OA
BRANCH  21  23
ATOM     23  O   UNL     1       6.064  -0.501  -3.724  0.00  0.00    -0.443 OA
BRANCH  23  25
ATOM     24  C   UNL     1       5.980   0.796  -5.784  0.00  0.00    +0.068 C 
ATOM     25  C   UNL     1       6.852  -0.055  -4.859  0.00  0.00    +0.275 C 
BRANCH  25  26
ATOM     26  C   UNL     1       7.989   0.748  -4.381  0.00  0.00    +0.107 C 
ATOM     27  N   UNL     1       8.867   1.368  -4.013  0.00  0.00    -0.193 NA
ENDBRANCH  25  26
ENDBRANCH  23  25
ENDBRANCH  21  23
ENDBRANCH   1  21
TORSDOF 6
