REMARK  Name = ZINC12462636
REMARK  4 active torsions:
REMARK  status: ('A' for Active; 'I' for Inactive)
REMARK    1  A    between atoms: C_1  and  C_2
REMARK    2  A    between atoms: N_10  and  N_11
REMARK    3  A    between atoms: N_11  and  C_12
REMARK    4  A    between atoms: C_15  and  N_18
REMARK                            x       y       z     vdW  Elec       q    Type
REMARK                         _______ _______ _______ _____ _____    ______ ____
ROOT
ATOM      1  C   UNL     1       0.686   1.507   0.071  0.00  0.00    +0.045 C 
ATOM      2  C   UNL     1       0.516   0.010   0.043  0.00  0.00    -0.036 A 
ATOM      3  C   UNL     1       0.482  -0.660  -1.169  0.00  0.00    +0.006 A 
ATOM      4  C   UNL     1       0.327  -2.030  -1.210  0.00  0.00    +0.024 A 
ATOM      5  C   UNL     1       0.203  -2.756  -0.030  0.00  0.00    +0.044 A 
ATOM      6  C   UNL     1       0.237  -2.075   1.194  0.00  0.00    +0.042 A 
ATOM      7  C   UNL     1       0.400  -0.694   1.226  0.00  0.00    +0.032 A 
ATOM      8 BR   UNL     1       0.454   0.217   2.882  0.00  0.00    -0.049 Br
ATOM      9  C   UNL     1       0.082  -3.104   2.248  0.00  0.00    +0.153 C 
ATOM     10  N   UNL     1       0.057  -2.918   3.549  0.00  0.00    -0.177 NA
ATOM     11  C   UNL     1      -0.038  -4.379   1.522  0.00  0.00    +0.269 C 
ATOM     12  O   UNL     1      -0.182  -5.479   2.025  0.00  0.00    -0.268 OA
ATOM     13  N   UNL     1       0.038  -4.115   0.206  0.00  0.00    -0.280 N 
ATOM     14  H   UNL     1      -0.014  -4.789  -0.490  0.00  0.00    +0.155 HD
ENDROOT
BRANCH  10  15
ATOM     15  N   UNL     1      -0.428  -1.827   4.036  0.00  0.00    -0.237 N 
ATOM     16  H   UNL     1      -0.860  -1.185   3.451  0.00  0.00    +0.174 HD
BRANCH  15  17
ATOM     17  C   UNL     1      -0.331  -1.569   5.404  0.00  0.00    +0.048 A 
ATOM     18  C   UNL     1       0.292  -2.485   6.242  0.00  0.00    +0.027 A 
ATOM     19  C   UNL     1       0.387  -2.227   7.596  0.00  0.00    +0.034 A 
ATOM     20  C   UNL     1      -0.139  -1.058   8.116  0.00  0.00    +0.126 A 
ATOM     21  C   UNL     1      -0.760  -0.144   7.285  0.00  0.00    +0.034 A 
ATOM     22  C   UNL     1      -0.853  -0.393   5.930  0.00  0.00    +0.027 A 
BRANCH  20  23
ATOM     23  N   UNL     1      -0.036  -0.785   9.568  0.00  0.00    +0.056 N 
ATOM     24  O   UNL     1       0.506  -1.583  10.296  0.00  0.00    -0.126 OA
ATOM     25  O   UNL     1      -0.495   0.236  10.024  0.00  0.00    -0.126 OA
ENDBRANCH  20  23
ENDBRANCH  15  17
ENDBRANCH  10  15
TORSDOF 3
