REMARK  Name = ZINC15958216
REMARK  4 active torsions:
REMARK  status: ('A' for Active; 'I' for Inactive)
REMARK    1  A    between atoms: C_12  and  C_15
REMARK    2  A    between atoms: C_15  and  C_16
REMARK    3  A    between atoms: C_19  and  O_22
REMARK    4  A    between atoms: N_25  and  C_28
REMARK                            x       y       z     vdW  Elec       q    Type
REMARK                         _______ _______ _______ _____ _____    ______ ____
ROOT
ATOM      1  C   UNL     1      -0.017   1.379   0.010  0.00  0.00    +0.000 A 
ATOM      2  C   UNL     1       1.173   2.084   0.002  0.00  0.00    +0.002 A 
ATOM      3  C   UNL     1       2.379   1.415  -0.012  0.00  0.00    +0.023 A 
ATOM      4  C   UNL     1       2.407   0.022  -0.019  0.00  0.00    +0.039 A 
ATOM      5  C   UNL     1       1.204  -0.677  -0.013  0.00  0.00    +0.003 A 
ATOM      6  C   UNL     1       0.002  -0.004   0.002  0.00  0.00    +0.008 A 
ATOM      7  C   UNL     1       1.575  -2.132  -0.029  0.00  0.00    +0.136 C 
ATOM      8  C   UNL     1       1.012  -2.873   1.191  0.00  0.00    +0.122 C 
ATOM      9  C   UNL     1       0.649  -4.286   0.656  0.00  0.00    +0.107 C 
ATOM     10  C   UNL     1       1.054  -4.264  -0.832  0.00  0.00    +0.072 C 
ATOM     11  N   UNL     1       1.019  -2.819  -1.210  0.00  0.00    -0.295 NA
ATOM     12  C   UNL     1      -0.857  -4.330   0.779  0.00  0.00    +0.227 C 
ATOM     13  O   UNL     1      -1.559  -5.265   0.460  0.00  0.00    -0.275 OA
ATOM     14  N   UNL     1      -1.294  -3.176   1.296  0.00  0.00    -0.238 N 
ATOM     15  C   UNL     1      -0.323  -2.277   1.576  0.00  0.00    +0.228 C 
ATOM     16  O   UNL     1      -0.486  -1.175   2.055  0.00  0.00    -0.275 OA
ATOM     17  C   UNL     1       3.079  -2.154  -0.039  0.00  0.00    +0.243 C 
ATOM     18  O   UNL     1       3.789  -3.136  -0.051  0.00  0.00    -0.273 OA
ATOM     19  N   UNL     1       3.483  -0.869  -0.032  0.00  0.00    -0.283 N 
ATOM     20  H   UNL     1       0.078  -2.508  -1.400  0.00  0.00    +0.124 HD
ATOM     21  H   UNL     1       4.413  -0.594  -0.035  0.00  0.00    +0.155 HD
ENDROOT
BRANCH  14  22
ATOM     22  C   UNL     1      -2.713  -2.906   1.544  0.00  0.00    +0.084 C 
ATOM     23  C   UNL     1      -3.236  -3.908   2.593  0.00  0.00    +0.023 C 
ATOM     24  C   UNL     1      -4.482  -3.341   3.216  0.00  0.00    +0.002 C 
ATOM     25  C   UNL     1      -5.766  -3.836   2.522  0.00  0.00    +0.000 C 
ATOM     26  C   UNL     1      -5.641  -3.868   0.986  0.00  0.00    +0.000 C 
ATOM     27  C   UNL     1      -4.933  -2.657   0.441  0.00  0.00    +0.002 C 
ATOM     28  C   UNL     1      -3.436  -2.993   0.284  0.00  0.00    +0.023 C 
ENDBRANCH  14  22
BRANCH  10  29
ATOM     29  C   UNL     1       0.041  -5.045  -1.672  0.00  0.00    +0.054 C 
BRANCH  29  30
ATOM     30  C   UNL     1       0.519  -5.114  -3.099  0.00  0.00    -0.046 A 
ATOM     31  C   UNL     1       0.160  -4.125  -3.996  0.00  0.00    +0.007 A 
ATOM     32  C   UNL     1       0.597  -4.187  -5.305  0.00  0.00    +0.045 A 
ATOM     33  C   UNL     1       1.395  -5.243  -5.720  0.00  0.00    +0.117 A 
ATOM     34  C   UNL     1       1.754  -6.234  -4.818  0.00  0.00    +0.045 A 
ATOM     35  C   UNL     1       1.320  -6.165  -3.508  0.00  0.00    +0.007 A 
BRANCH  33  36
ATOM     36  O   UNL     1       1.826  -5.306  -7.008  0.00  0.00    -0.507 OA
ATOM     37  H   UNL     1       2.672  -4.864  -7.162  0.00  0.00    +0.292 HD
ENDBRANCH  33  36
ENDBRANCH  29  30
ENDBRANCH  10  29
TORSDOF 4
