REMARK  Name = ZINC38670982
REMARK  8 active torsions:
REMARK  status: ('A' for Active; 'I' for Inactive)
REMARK    1  A    between atoms: C_1  and  N_2
REMARK    2  A    between atoms: C_10  and  C_12
REMARK    3  A    between atoms: C_12  and  C_14
REMARK    4  A    between atoms: C_12  and  N_31
REMARK    5  A    between atoms: C_14  and  N_15
REMARK    6  A    between atoms: C_16  and  C_18
REMARK    7  A    between atoms: C_21  and  O_24
REMARK    8  A    between atoms: O_24  and  C_25
REMARK                            x       y       z     vdW  Elec       q    Type
REMARK                         _______ _______ _______ _____ _____    ______ ____
ROOT
ATOM      1  C   UNL     1       5.122  -2.603  -0.298  0.00  0.00    -0.020 C 
ENDROOT
BRANCH   1  11
ATOM      2  C   UNL     1       0.206   1.494   0.979  0.00  0.00    +0.129 C 
ATOM      3  N   UNL     1       0.230   0.037   0.829  0.00  0.00    -0.333 N 
ATOM      4  C   UNL     1      -1.005  -0.748   0.962  0.00  0.00    +0.105 C 
ATOM      5  C   UNL     1      -0.693  -1.971   1.833  0.00  0.00    +0.024 C 
ATOM      6  C   UNL     1       0.340  -2.839   1.113  0.00  0.00    +0.038 C 
ATOM      7  C   UNL     1       1.521  -2.008   0.685  0.00  0.00    -0.026 A 
ATOM      8  C   UNL     1       1.428  -0.630   0.552  0.00  0.00    +0.033 A 
ATOM      9  C   UNL     1       2.535   0.107   0.146  0.00  0.00    +0.023 A 
ATOM     10  C   UNL     1       3.728  -0.532  -0.129  0.00  0.00    +0.004 A 
ATOM     11  C   UNL     1       3.820  -1.905   0.001  0.00  0.00    -0.059 A 
ATOM     12  C   UNL     1       2.722  -2.641   0.415  0.00  0.00    +0.007 A 
ENDBRANCH   1  11
BRANCH   1  13
ATOM     13  N   UNL     1       5.745  -1.993  -1.480  0.00  0.00    +0.385 N 
ATOM     14  C   UNL     1       4.820  -2.078  -2.617  0.00  0.00    -0.078 C 
ATOM     15  C   UNL     1       5.430  -1.373  -3.830  0.00  0.00    -0.019 C 
ATOM     16  C   UNL     1       6.754  -2.050  -4.195  0.00  0.00    -0.004 C 
ATOM     17  C   UNL     1       7.684  -2.021  -2.978  0.00  0.00    -0.019 C 
ATOM     18  C   UNL     1       6.990  -2.702  -1.797  0.00  0.00    -0.078 C 
ATOM     19  H   UNL     1       5.950  -1.024  -1.289  0.00  0.00    -0.081 HD
ENDBRANCH   1  13
BRANCH   1  20
ATOM     20  C   UNL     1       6.062  -2.464   0.902  0.00  0.00    +0.094 C 
BRANCH  20  21
ATOM     21  N   UNL     1       5.483  -3.154   2.057  0.00  0.00    -0.313 N 
ATOM     22  C   UNL     1       6.181  -3.244   3.207  0.00  0.00    +0.244 C 
ATOM     23  O   UNL     1       7.290  -2.752   3.285  0.00  0.00    -0.270 OA
ATOM     24  H   UNL     1       4.598  -3.546   1.995  0.00  0.00    +0.149 HD
BRANCH  22  25
ATOM     25  C   UNL     1       5.598  -3.938   4.372  0.00  0.00    +0.037 A 
ATOM     26  C   UNL     1       4.325  -4.509   4.282  0.00  0.00    +0.016 A 
ATOM     27  C   UNL     1       3.785  -5.157   5.370  0.00  0.00    +0.047 A 
ATOM     28  C   UNL     1       4.503  -5.243   6.557  0.00  0.00    +0.128 A 
ATOM     29  C   UNL     1       5.770  -4.677   6.650  0.00  0.00    +0.047 A 
ATOM     30  C   UNL     1       6.319  -4.033   5.564  0.00  0.00    +0.016 A 
BRANCH  28  31
ATOM     31  O   UNL     1       3.967  -5.881   7.628  0.00  0.00    -0.456 OA
BRANCH  31  32
ATOM     32  C   UNL     1       3.975  -7.240   7.630  0.00  0.00    +0.128 A 
ATOM     33  C   UNL     1       4.619  -7.933   6.615  0.00  0.00    +0.046 A 
ATOM     34  C   UNL     1       4.625  -9.315   6.620  0.00  0.00    +0.004 A 
ATOM     35  C   UNL     1       3.990 -10.007   7.634  0.00  0.00    +0.000 A 
ATOM     36  C   UNL     1       3.346  -9.319   8.646  0.00  0.00    +0.004 A 
ATOM     37  C   UNL     1       3.343  -7.937   8.650  0.00  0.00    +0.046 A 
ENDBRANCH  31  32
ENDBRANCH  28  31
ENDBRANCH  22  25
ENDBRANCH  20  21
ENDBRANCH   1  20
TORSDOF 7
