REMARK  Name = ZINC45549150
REMARK  9 active torsions:
REMARK  status: ('A' for Active; 'I' for Inactive)
REMARK    1  A    between atoms: C_1  and  C_2
REMARK    2  A    between atoms: C_2  and  C_3
REMARK    3  A    between atoms: C_2  and  C_4
REMARK    4  A    between atoms: C_2  and  N_5
REMARK    5  A    between atoms: C_6  and  C_8
REMARK    6  A    between atoms: C_8  and  N_9
REMARK    7  A    between atoms: N_9  and  C_10
REMARK    8  A    between atoms: N_13  and  C_14
REMARK    9  A    between atoms: C_17  and  O_20
REMARK                            x       y       z     vdW  Elec       q    Type
REMARK                         _______ _______ _______ _____ _____    ______ ____
ROOT
ATOM      1  N   UNL     1       4.051  -0.111  -2.677  0.00  0.00    -0.280 N 
ATOM      2  C   UNL     1       5.125  -0.892  -2.057  0.00  0.00    +0.134 C 
ATOM      3  C   UNL     1       4.328   1.073  -3.257  0.00  0.00    +0.303 C 
ATOM      4  O   UNL     1       3.437   1.722  -3.772  0.00  0.00    -0.253 OA
ATOM      5  N   UNL     1       5.593   1.540  -3.267  0.00  0.00    -0.296 N 
ATOM      6  H   UNL     1       6.303   1.023  -2.856  0.00  0.00    +0.151 HD
ENDROOT
BRANCH   5   7
ATOM      7  C   UNL     1       5.893   2.828  -3.897  0.00  0.00    +0.075 C 
ATOM      8  C   UNL     1       6.114   2.622  -5.397  0.00  0.00    +0.025 C 
ATOM      9  C   UNL     1       6.428   3.967  -6.056  0.00  0.00    +0.033 C 
ATOM     10  C   UNL     1       7.693   4.558  -5.430  0.00  0.00    +0.115 C 
ATOM     11  C   UNL     1       7.473   4.763  -3.930  0.00  0.00    +0.033 C 
ATOM     12  C   UNL     1       7.159   3.418  -3.272  0.00  0.00    +0.025 C 
BRANCH  10  13
ATOM     13  O   UNL     1       7.987   5.814  -6.045  0.00  0.00    -0.392 OA
ATOM     14  H   UNL     1       8.779   6.247  -5.697  0.00  0.00    +0.210 HD
ENDBRANCH  10  13
ENDBRANCH   5   7
BRANCH   1  15
ATOM     15  C   UNL     1       2.677  -0.618  -2.667  0.00  0.00    +0.204 C 
BRANCH  15  17
ATOM     16  N   UNL     1       0.688  -0.476  -1.203  0.00  0.00    -0.309 N 
ATOM     17  C   UNL     1       1.972  -0.132  -1.427  0.00  0.00    +0.231 C 
ATOM     18  O   UNL     1       2.559   0.569  -0.630  0.00  0.00    -0.274 OA
ATOM     19  H   UNL     1       0.218  -1.037  -1.840  0.00  0.00    +0.149 HD
BRANCH  16  21
ATOM     20  C   UNL     1      -0.019   1.526   0.010  0.00  0.00    +0.031 C 
ATOM     21  C   UNL     1       0.002  -0.004   0.002  0.00  0.00    +0.026 C 
ATOM     22  C   UNL     1       0.742  -0.511   1.242  0.00  0.00    +0.031 C 
ATOM     23  C   UNL     1      -1.433  -0.534   0.013  0.00  0.00    +0.031 C 
ENDBRANCH  16  21
ENDBRANCH  15  17
ENDBRANCH   1  15
TORSDOF 5
