REMARK  Name = ZINC06660978
REMARK  8 active torsions:
REMARK  status: ('A' for Active; 'I' for Inactive)
REMARK    1  A    between atoms: C_1  and  N_50
REMARK    2  A    between atoms: C_2  and  N_50
REMARK    3  A    between atoms: C_3  and  C_4
REMARK    4  A    between atoms: C_3  and  N_50
REMARK    5  A    between atoms: C_4  and  N_5
REMARK    6  A    between atoms: C_6  and  C_23
REMARK    7  A    between atoms: C_14  and  O_21
REMARK    8  A    between atoms: O_21  and  C_22
REMARK                            x       y       z     vdW  Elec       q    Type
REMARK                         _______ _______ _______ _____ _____    ______ ____
ROOT
ATOM      1  N   UNL     1       2.329  -2.680   0.814  0.00  0.00    -0.285 N 
ATOM      2  C   UNL     1       1.229  -2.185  -0.021  0.00  0.00    +0.144 C 
ATOM      3  C   UNL     1       1.504  -2.693  -1.413  0.00  0.00    +0.072 A 
ATOM      4  C   UNL     1       0.786  -2.545  -2.683  0.00  0.00    +0.199 A 
ATOM      5  O   UNL     1      -0.250  -1.909  -2.763  0.00  0.00    -0.287 OA
ATOM      6  C   UNL     1       1.381  -3.204  -3.860  0.00  0.00    +0.065 A 
ATOM      7  C   UNL     1       0.781  -3.128  -5.118  0.00  0.00    +0.019 A 
ATOM      8  C   UNL     1       1.362  -3.752  -6.184  0.00  0.00    +0.046 A 
ATOM      9  C   UNL     1       2.550  -4.464  -6.021  0.00  0.00    +0.124 A 
ATOM     10  C   UNL     1       3.157  -4.549  -4.780  0.00  0.00    +0.092 A 
ATOM     11  C   UNL     1       2.580  -3.920  -3.683  0.00  0.00    +0.143 A 
ATOM     12  O   UNL     1       3.158  -3.993  -2.470  0.00  0.00    -0.449 OA
ATOM     13  C   UNL     1       2.653  -3.408  -1.366  0.00  0.00    +0.199 A 
ATOM     14  C   UNL     1       3.157  -3.392   0.030  0.00  0.00    +0.283 C 
ATOM     15  O   UNL     1       4.172  -3.942   0.409  0.00  0.00    -0.267 OA
ENDROOT
BRANCH   2  16
ATOM     16  C   UNL     1       1.208  -0.678  -0.013  0.00  0.00    -0.021 A 
ATOM     17  C   UNL     1       2.396   0.029  -0.021  0.00  0.00    +0.006 A 
ATOM     18  C   UNL     1       2.378   1.411  -0.013  0.00  0.00    +0.002 A 
ATOM     19  C   UNL     1       1.172   2.087   0.002  0.00  0.00    +0.020 A 
ATOM     20  C   UNL     1      -0.017   1.379   0.010  0.00  0.00    +0.041 A 
ATOM     21  C   UNL     1       0.002  -0.004   0.002  0.00  0.00    +0.025 A 
ATOM     22 CL   UNL     1      -1.532   2.227   0.021  0.00  0.00    -0.084 Cl
ENDBRANCH   2  16
BRANCH   9  23
ATOM     23  O   UNL     1       3.117  -5.080  -7.089  0.00  0.00    -0.495 OA
ATOM     24  C   UNL     1       2.442  -4.955  -8.343  0.00  0.00    +0.277 C 
ENDBRANCH   9  23
BRANCH   1  25
ATOM     25  C   UNL     1       2.497  -2.441   2.250  0.00  0.00    +0.090 C 
BRANCH  25  26
ATOM     26  C   UNL     1       1.799  -3.553   3.037  0.00  0.00    -0.060 C 
BRANCH  26  29
ATOM     27  C   UNL     1       1.118  -4.217   5.263  0.00  0.00    -0.097 C 
ATOM     28  C   UNL     1       3.376  -3.437   4.870  0.00  0.00    -0.097 C 
ATOM     29  N   UNL     1       1.958  -3.285   4.482  0.00  0.00    +0.377 N 
ATOM     30  H   UNL     1       1.660  -2.323   4.678  0.00  0.00    -0.083 HD
ENDBRANCH  26  29
ENDBRANCH  25  26
ENDBRANCH   1  25
TORSDOF 5
