REMARK  Name = ZINC37645695
REMARK  6 active torsions:
REMARK  status: ('A' for Active; 'I' for Inactive)
REMARK    1  A    between atoms: C_1  and  N_2
REMARK    2  A    between atoms: C_5  and  C_8
REMARK    3  A    between atoms: C_8  and  N_9
REMARK    4  A    between atoms: N_9  and  S_10
REMARK    5  A    between atoms: S_10  and  C_13
REMARK    6  A    between atoms: C_16  and  N_20
REMARK                            x       y       z     vdW  Elec       q    Type
REMARK                         _______ _______ _______ _____ _____    ______ ____
ROOT
ATOM      1  S   UNL     1      -0.154  -4.979   3.725  0.00  0.00    +0.061 S 
ATOM      2  O   UNL     1      -1.264  -5.485   4.453  0.00  0.00    -0.153 OA
ATOM      3  O   UNL     1       0.336  -5.606   2.548  0.00  0.00    -0.153 OA
ENDROOT
BRANCH   1   4
ATOM      4  C   UNL     1       1.197  -4.903   4.854  0.00  0.00    +0.133 A 
ATOM      5  C   UNL     1       2.496  -4.926   4.379  0.00  0.00    +0.047 A 
ATOM      6  C   UNL     1       3.557  -4.867   5.262  0.00  0.00    +0.040 A 
ATOM      7  C   UNL     1       3.318  -4.785   6.628  0.00  0.00    +0.027 A 
ATOM      8  C   UNL     1       2.013  -4.761   7.102  0.00  0.00    +0.040 A 
ATOM      9  C   UNL     1       0.956  -4.815   6.213  0.00  0.00    +0.047 A 
ATOM     10 BR   UNL     1      -0.822  -4.775   6.857  0.00  0.00    -0.048 Br
ATOM     11 BR   UNL     1       2.820  -5.039   2.519  0.00  0.00    -0.048 Br
BRANCH   7  12
ATOM     12  N   UNL     1       4.389  -4.726   7.523  0.00  0.00    -0.358 N 
ATOM     13  H   UNL     1       5.300  -4.742   7.191  0.00  0.00    +0.142 HD
ATOM     14  H   UNL     1       4.221  -4.668   8.477  0.00  0.00    +0.142 HD
ENDBRANCH   7  12
ENDBRANCH   1   4
BRANCH   1  15
ATOM     15  N   UNL     1      -0.531  -3.421   3.308  0.00  0.00    -0.190 NA
ATOM     16  H   UNL     1      -1.391  -3.047   3.558  0.00  0.00    +0.148 HD
BRANCH  15  17
ATOM     17  C   UNL     1       0.432  -2.608   2.562  0.00  0.00    +0.107 C 
BRANCH  17  22
ATOM     18  C   UNL     1      -0.018   1.465   0.010  0.00  0.00    -0.096 C 
ATOM     19  N   UNL     1       0.002  -0.004   0.002  0.00  0.00    +0.378 N 
ATOM     20  C   UNL     1      -1.383  -0.521   0.034  0.00  0.00    -0.079 C 
ATOM     21  C   UNL     1      -1.309  -1.797   0.908  0.00  0.00    -0.016 C 
ATOM     22  C   UNL     1      -0.274  -1.379   1.986  0.00  0.00    -0.014 C 
ATOM     23  C   UNL     1       0.714  -0.497   1.195  0.00  0.00    -0.075 C 
ATOM     24  H   UNL     1       0.466  -0.334  -0.831  0.00  0.00    -0.082 HD
ENDBRANCH  17  22
ENDBRANCH  15  17
ENDBRANCH   1  15
TORSDOF 5
