REMARK  Name = ZINC08770044
REMARK  10 active torsions:
REMARK  status: ('A' for Active; 'I' for Inactive)
REMARK    1  A    between atoms: C_1  and  C_2
REMARK    2  A    between atoms: C_5  and  C_8
REMARK    3  A    between atoms: C_9  and  C_35
REMARK    4  A    between atoms: C_17  and  C_19
REMARK    5  A    between atoms: C_19  and  N_63
REMARK    6  A    between atoms: C_23  and  C_25
REMARK    7  A    between atoms: C_27  and  O_33
REMARK    8  A    between atoms: C_30  and  O_31
REMARK    9  A    between atoms: O_31  and  C_32
REMARK   10  A    between atoms: O_33  and  C_34
REMARK                            x       y       z     vdW  Elec       q    Type
REMARK                         _______ _______ _______ _____ _____    ______ ____
ROOT
ATOM      1  C   UNL     1       0.891   3.127   8.929  0.00  0.00    +0.007 A 
ATOM      2  C   UNL     1       1.058   4.461   8.756  0.00  0.00    -0.003 A 
ATOM      3  S   UNL     1      -0.176   4.876   7.539  0.00  0.00    -0.073 S 
ATOM      4  C   UNL     1      -0.880   3.267   7.294  0.00  0.00    +0.116 A 
ATOM      5  C   UNL     1      -0.142   2.445   8.161  0.00  0.00    +0.080 A 
ATOM      6  C   UNL     1      -0.510   1.061   8.166  0.00  0.00    +0.260 A 
ATOM      7  O   UNL     1       0.073   0.269   8.886  0.00  0.00    -0.267 OA
ATOM      8  N   UNL     1      -1.509   0.648   7.364  0.00  0.00    -0.312 N 
ATOM      9  H   UNL     1      -1.762  -0.288   7.363  0.00  0.00    +0.170 HD
ATOM     10  C   UNL     1      -2.169   1.517   6.556  0.00  0.00    +0.094 A 
ATOM     11  N   UNL     1      -1.854   2.784   6.526  0.00  0.00    -0.229 NA
ATOM     12  C   UNL     1       2.050   5.374   9.430  0.00  0.00    +0.052 C 
ENDROOT
BRANCH   1  17
ATOM     13  C   UNL     1       4.203   0.213  12.630  0.00  0.00    +0.044 C 
ATOM     14  C   UNL     1       3.337   0.976  11.661  0.00  0.00    -0.050 A 
ATOM     15  C   UNL     1       3.903   1.560  10.542  0.00  0.00    +0.004 A 
ATOM     16  C   UNL     1       3.114   2.259   9.652  0.00  0.00    +0.009 A 
ATOM     17  C   UNL     1       1.744   2.377   9.882  0.00  0.00    -0.016 A 
ATOM     18  C   UNL     1       1.180   1.791  11.014  0.00  0.00    +0.009 A 
ATOM     19  C   UNL     1       1.978   1.089  11.895  0.00  0.00    +0.004 A 
ENDBRANCH   1  17
BRANCH  10  20
ATOM     20  C   UNL     1      -3.281   1.010   5.675  0.00  0.00    -0.002 C 
BRANCH  20  25
ATOM     21  C   UNL     1      -4.685   2.998   5.754  0.00  0.00    -0.077 C 
ATOM     22  C   UNL     1      -5.597   3.750   4.761  0.00  0.00    -0.020 C 
ATOM     23  C   UNL     1      -5.652   2.851   3.509  0.00  0.00    -0.012 C 
ATOM     24  C   UNL     1      -4.769   1.632   3.850  0.00  0.00    -0.033 C 
ATOM     25  N   UNL     1      -3.872   2.137   4.887  0.00  0.00    +0.389 N 
ATOM     26  H   UNL     1      -3.115   2.683   4.460  0.00  0.00    -0.080 HD
BRANCH  24  27
ATOM     27  C   UNL     1      -3.999   1.184   2.634  0.00  0.00    -0.016 A 
ATOM     28  C   UNL     1      -2.684   1.575   2.467  0.00  0.00    +0.051 A 
ATOM     29  C   UNL     1      -1.976   1.163   1.348  0.00  0.00    +0.121 A 
ATOM     30  C   UNL     1      -2.589   0.364   0.394  0.00  0.00    +0.049 A 
ATOM     31  C   UNL     1      -3.901  -0.031   0.564  0.00  0.00    +0.049 A 
ATOM     32  C   UNL     1      -4.610   0.381   1.683  0.00  0.00    +0.122 A 
BRANCH  32  33
ATOM     33  O   UNL     1      -5.904  -0.002   1.848  0.00  0.00    -0.495 OA
ATOM     34  C   UNL     1      -6.470  -0.830   0.829  0.00  0.00    +0.277 C 
ENDBRANCH  32  33
BRANCH  29  35
ATOM     35  O   UNL     1      -0.682   1.547   1.184  0.00  0.00    -0.495 OA
ATOM     36  C   UNL     1      -0.013   1.086   0.008  0.00  0.00    +0.277 C 
ENDBRANCH  29  35
ENDBRANCH  24  27
ENDBRANCH  20  25
ENDBRANCH  10  20
TORSDOF 6
