REMARK  Name = ZINC63818485
REMARK  10 active torsions:
REMARK  status: ('A' for Active; 'I' for Inactive)
REMARK    1  A    between atoms: C_1  and  C_2
REMARK    2  A    between atoms: C_8  and  O_31
REMARK    3  A    between atoms: N_13  and  C_14
REMARK    4  A    between atoms: C_18  and  C_20
REMARK    5  A    between atoms: N_22  and  C_23
REMARK    6  A    between atoms: C_23  and  C_24
REMARK    7  A    between atoms: C_24  and  C_25
REMARK    8  A    between atoms: O_31  and  C_32
REMARK    9  A    between atoms: C_32  and  C_33
REMARK   10  A    between atoms: C_33  and  C_35
REMARK                            x       y       z     vdW  Elec       q    Type
REMARK                         _______ _______ _______ _____ _____    ______ ____
ROOT
ATOM      1  C   UNL     1      -0.023  -0.742   2.360  0.00  0.00    +0.039 A 
ATOM      2  C   UNL     1      -1.104  -1.616   2.328  0.00  0.00    +0.023 A 
ATOM      3  C   UNL     1      -1.825  -1.873   3.479  0.00  0.00    +0.003 A 
ATOM      4  C   UNL     1      -1.476  -1.264   4.668  0.00  0.00    +0.013 A 
ATOM      5  C   UNL     1      -0.392  -0.386   4.710  0.00  0.00    +0.038 A 
ATOM      6  C   UNL     1       0.339  -0.130   3.550  0.00  0.00    +0.036 A 
ENDROOT
BRANCH   1  18
ATOM      7  C   UNL     1       0.943   1.892   0.689  0.00  0.00    +0.050 C 
ATOM      8  C   UNL     1       0.262   0.580   0.292  0.00  0.00    +0.163 C 
ATOM      9  N   UNL     1       0.615   0.250  -1.094  0.00  0.00    -0.325 N 
ATOM     10  C   UNL     1       1.884  -0.260  -1.353  0.00  0.00    +0.041 A 
ATOM     11  C   UNL     1       2.526  -0.046  -2.561  0.00  0.00    +0.027 A 
ATOM     12  C   UNL     1       3.788  -0.570  -2.769  0.00  0.00    +0.047 A 
ATOM     13  C   UNL     1       4.417  -1.310  -1.774  0.00  0.00    +0.122 A 
ATOM     14  C   UNL     1       3.787  -1.533  -0.563  0.00  0.00    +0.060 A 
ATOM     15  C   UNL     1       2.514  -1.010  -0.345  0.00  0.00    +0.062 A 
ATOM     16  C   UNL     1       1.795  -1.225   0.923  0.00  0.00    +0.254 C 
ATOM     17  O   UNL     1       2.183  -2.061   1.716  0.00  0.00    -0.270 OA
ATOM     18  N   UNL     1       0.703  -0.485   1.192  0.00  0.00    -0.249 N 
ATOM     19  H   UNL     1      -0.023   0.383  -1.813  0.00  0.00    +0.148 HD
BRANCH  13  20
ATOM     20  O   UNL     1       5.660  -1.817  -1.994  0.00  0.00    -0.488 OA
BRANCH  20  21
ATOM     21  C   UNL     1       6.254  -1.551  -3.266  0.00  0.00    +0.259 C 
BRANCH  21  22
ATOM     22  C   UNL     1       7.618  -2.188  -3.326  0.00  0.00    -0.043 C 
ATOM     23  C   UNL     1       8.074  -2.858  -2.298  0.00  0.00    +0.011 C 
ATOM     24  C   UNL     1       8.458  -2.053  -4.570  0.00  0.00    +0.042 C 
ENDBRANCH  21  22
ENDBRANCH  20  21
ENDBRANCH  13  20
ENDBRANCH   1  18
BRANCH   5  25
ATOM     25  C   UNL     1      -0.016   0.267   5.982  0.00  0.00    +0.244 C 
ATOM     26  O   UNL     1       0.928   1.032   6.017  0.00  0.00    -0.270 OA
ATOM     27  N   UNL     1      -0.720   0.015   7.103  0.00  0.00    -0.311 N 
ATOM     28  H   UNL     1      -1.474  -0.595   7.075  0.00  0.00    +0.149 HD
BRANCH  27  29
ATOM     29  C   UNL     1      -0.348   0.662   8.364  0.00  0.00    +0.110 C 
BRANCH  29  30
ATOM     30  C   UNL     1      -1.300   0.208   9.471  0.00  0.00    +0.073 C 
BRANCH  30  31
ATOM     31  C   UNL     1      -0.917   0.874  10.768  0.00  0.00    +0.035 A 
ATOM     32  H   UNL     1      -0.830   3.100  12.951  0.00  0.00    +0.166 HD
ATOM     33  C   UNL     1      -1.307   2.097  11.175  0.00  0.00    +0.105 A 
ATOM     34  N   UNL     1      -0.735   2.307  12.400  0.00  0.00    -0.352 N 
ATOM     35  C   UNL     1      -0.015   1.205  12.700  0.00  0.00    +0.171 A 
ATOM     36  N   UNL     1      -0.133   0.350  11.721  0.00  0.00    -0.350 N 
ATOM     37  H   UNL     1       0.283  -0.526  11.688  0.00  0.00    +0.166 HD
ENDBRANCH  30  31
ENDBRANCH  29  30
ENDBRANCH  27  29
ENDBRANCH   5  25
TORSDOF 8
