REMARK  Name = ZINC21426068
REMARK  8 active torsions:
REMARK  status: ('A' for Active; 'I' for Inactive)
REMARK    1  A    between atoms: C_1  and  C_2
REMARK    2  A    between atoms: C_7  and  N_8
REMARK    3  A    between atoms: C_12  and  C_14
REMARK    4  A    between atoms: C_14  and  S_15
REMARK    5  A    between atoms: S_15  and  C_16
REMARK    6  A    between atoms: C_17  and  C_25
REMARK    7  A    between atoms: C_19  and  C_23
REMARK    8  A    between atoms: C_20  and  N_22
REMARK                            x       y       z     vdW  Elec       q    Type
REMARK                         _______ _______ _______ _____ _____    ______ ____
ROOT
ATOM      1  N   UNL     1       2.116  -0.004   1.231  0.00  0.00    -0.296 N 
ATOM      2  C   UNL     1       2.795   0.128   2.388  0.00  0.00    +0.306 C 
ATOM      3  O   UNL     1       2.267  -0.174   3.440  0.00  0.00    -0.252 OA
ATOM      4  N   UNL     1       4.059   0.594   2.379  0.00  0.00    -0.240 N 
ATOM      5  C   UNL     1       4.738   0.726   3.536  0.00  0.00    +0.231 C 
ATOM      6  O   UNL     1       4.211   0.424   4.585  0.00  0.00    -0.274 OA
ATOM      7  H   UNL     1       2.538   0.237   0.392  0.00  0.00    +0.151 HD
ATOM      8  H   UNL     1       4.481   0.835   1.539  0.00  0.00    +0.159 HD
ENDROOT
BRANCH   1  15
ATOM      9  C   UNL     1      -0.019   1.526   0.010  0.00  0.00    +0.009 C 
ATOM     10  C   UNL     1       0.002  -0.004   0.002  0.00  0.00    +0.006 C 
ATOM     11  C   UNL     1       0.718  -0.497  -1.257  0.00  0.00    +0.005 C 
ATOM     12  C   UNL     1       0.739  -2.027  -1.265  0.00  0.00    +0.000 C 
ATOM     13  C   UNL     1       1.479  -2.534  -0.026  0.00  0.00    +0.002 C 
ATOM     14  C   UNL     1       0.763  -2.041   1.233  0.00  0.00    +0.022 C 
ATOM     15  C   UNL     1       0.742  -0.511   1.242  0.00  0.00    +0.077 C 
ENDBRANCH   1  15
BRANCH   5  16
ATOM     16  C   UNL     1       6.152   1.247   3.525  0.00  0.00    +0.172 C 
BRANCH  16  17
ATOM     17  S   UNL     1       6.787   1.308   5.223  0.00  0.00    -0.095 S 
BRANCH  17  18
ATOM     18  C   UNL     1       8.426   1.929   5.043  0.00  0.00    +0.117 A 
ATOM     19  C   UNL     1       9.233   2.104   6.185  0.00  0.00    +0.085 A 
ATOM     20  C   UNL     1      10.531   2.597   6.031  0.00  0.00    +0.043 A 
ATOM     21  C   UNL     1      10.976   2.899   4.741  0.00  0.00    +0.092 A 
ATOM     22  C   UNL     1      10.107   2.697   3.651  0.00  0.00    +0.135 A 
ATOM     23  N   UNL     1       8.886   2.222   3.837  0.00  0.00    -0.224 NA
BRANCH  22  24
ATOM     24  N   UNL     1      10.537   2.992   2.373  0.00  0.00    -0.342 N 
ATOM     25  H   UNL     1      11.432   3.337   2.230  0.00  0.00    +0.144 HD
ATOM     26  H   UNL     1       9.943   2.855   1.618  0.00  0.00    +0.144 HD
ENDBRANCH  22  24
BRANCH  21  27
ATOM     27  C   UNL     1      12.298   3.408   4.531  0.00  0.00    +0.103 C 
ATOM     28  N   UNL     1      13.346   3.812   4.364  0.00  0.00    -0.191 NA
ENDBRANCH  21  27
BRANCH  19  29
ATOM     29  C   UNL     1       8.730   1.780   7.486  0.00  0.00    +0.102 C 
ATOM     30  N   UNL     1       8.331   1.523   8.518  0.00  0.00    -0.191 NA
ENDBRANCH  19  29
ENDBRANCH  17  18
ENDBRANCH  16  17
ENDBRANCH   5  16
TORSDOF 7
