REMARK  Name = ZINC13839120
REMARK  9 active torsions:
REMARK  status: ('A' for Active; 'I' for Inactive)
REMARK    1  A    between atoms: C_1  and  C_2
REMARK    2  A    between atoms: C_2  and  O_3
REMARK    3  A    between atoms: O_3  and  C_4
REMARK    4  A    between atoms: C_6  and  C_14
REMARK    5  A    between atoms: C_8  and  N_11
REMARK    6  A    between atoms: C_9  and  O_10
REMARK    7  A    between atoms: N_15  and  N_16
REMARK    8  A    between atoms: C_17  and  C_19
REMARK    9  A    between atoms: C_19  and  C_20
REMARK                            x       y       z     vdW  Elec       q    Type
REMARK                         _______ _______ _______ _____ _____    ______ ____
ROOT
ATOM      1  C   UNL     1      -1.498  -1.849   0.006  0.00  0.00    +0.165 A 
ATOM      2  C   UNL     1      -0.391  -2.676  -0.003  0.00  0.00    +0.059 A 
ATOM      3  C   UNL     1      -0.559  -4.063  -0.009  0.00  0.00    +0.000 A 
ATOM      4  C   UNL     1      -1.846  -4.608  -0.005  0.00  0.00    +0.046 A 
ATOM      5  C   UNL     1      -2.946  -3.776   0.004  0.00  0.00    +0.172 A 
ATOM      6  C   UNL     1      -2.779  -2.399   0.016  0.00  0.00    +0.189 A 
ENDROOT
BRANCH   5   7
ATOM      7  N   UNL     1      -4.308  -4.355   0.007  0.00  0.00    +0.060 N 
ATOM      8  O   UNL     1      -4.456  -5.555   0.002  0.00  0.00    -0.126 OA
ATOM      9  O   UNL     1      -5.274  -3.627   0.016  0.00  0.00    -0.126 OA
ENDBRANCH   5   7
BRANCH   6  10
ATOM     10  O   UNL     1      -3.866  -1.584   0.030  0.00  0.00    -0.502 OA
ATOM     11  H   UNL     1      -4.189  -1.344  -0.849  0.00  0.00    +0.292 HD
ENDBRANCH   6  10
BRANCH   3  12
ATOM     12  C   UNL     1       0.619  -4.950  -0.019  0.00  0.00    +0.138 C 
ATOM     13  N   UNL     1       0.461  -6.238  -0.025  0.00  0.00    -0.188 NA
BRANCH  13  14
ATOM     14  N   UNL     1       1.580  -7.081  -0.035  0.00  0.00    -0.207 N 
ATOM     15  C   UNL     1       1.416  -8.419  -0.040  0.00  0.00    +0.237 C 
ATOM     16  O   UNL     1       0.299  -8.893  -0.037  0.00  0.00    -0.274 OA
ATOM     17  H   UNL     1       2.473  -6.702  -0.037  0.00  0.00    +0.177 HD
BRANCH  15  18
ATOM     18  C   UNL     1       2.620  -9.326  -0.051  0.00  0.00    +0.132 C 
BRANCH  18  19
ATOM     19  C   UNL     1       2.166 -10.763  -0.055  0.00  0.00    -0.039 A 
ATOM     20  C   UNL     1       1.959 -11.426   1.140  0.00  0.00    +0.005 A 
ATOM     21  C   UNL     1       1.542 -12.744   1.136  0.00  0.00    +0.015 A 
ATOM     22  C   UNL     1       1.333 -13.399  -0.064  0.00  0.00    +0.018 A 
ATOM     23  C   UNL     1       1.540 -12.736  -1.260  0.00  0.00    +0.015 A 
ATOM     24  C   UNL     1       1.952 -11.416  -1.255  0.00  0.00    +0.005 A 
ATOM     25 BR   UNL     1       0.764 -15.203  -0.070  0.00  0.00    -0.050 Br
ENDBRANCH  18  19
ENDBRANCH  15  18
ENDBRANCH  13  14
ENDBRANCH   3  12
BRANCH   1  26
ATOM     26  O   UNL     1      -1.339  -0.499   0.012  0.00  0.00    -0.488 OA
BRANCH  26  28
ATOM     27  C   UNL     1      -0.019   1.526   0.010  0.00  0.00    +0.048 C 
ATOM     28  C   UNL     1       0.002  -0.004   0.002  0.00  0.00    +0.226 C 
ENDBRANCH  26  28
ENDBRANCH   1  26
TORSDOF 8
