REMARK  Name = ZINC59890631
REMARK  10 active torsions:
REMARK  status: ('A' for Active; 'I' for Inactive)
REMARK    1  A    between atoms: C_1  and  C_2
REMARK    2  A    between atoms: C_2  and  C_3
REMARK    3  A    between atoms: C_3  and  C_4
REMARK    4  A    between atoms: C_4  and  C_5
REMARK    5  A    between atoms: C_5  and  C_25
REMARK    6  A    between atoms: N_6  and  N_7
REMARK    7  A    between atoms: C_10  and  S_13
REMARK    8  A    between atoms: S_13  and  C_14
REMARK    9  A    between atoms: C_14  and  C_15
REMARK   10  A    between atoms: N_17  and  C_18
REMARK                            x       y       z     vdW  Elec       q    Type
REMARK                         _______ _______ _______ _____ _____    ______ ____
ROOT
ATOM      1  N   UNL     1      -4.582  -3.748  -0.968  0.00  0.00    -0.205 N 
ATOM      2  C   UNL     1      -5.066  -4.454  -2.054  0.00  0.00    +0.232 A 
ATOM      3  N   UNL     1      -4.400  -4.736  -3.154  0.00  0.00    -0.186 NA
ATOM      4  C   UNL     1      -5.181  -5.431  -3.988  0.00  0.00    +0.211 A 
ATOM      5  N   UNL     1      -6.356  -5.599  -3.430  0.00  0.00    -0.144 NA
ATOM      6  N   UNL     1      -6.304  -4.979  -2.171  0.00  0.00    -0.245 N 
ATOM      7  H   UNL     1      -5.150  -3.592  -0.198  0.00  0.00    +0.177 HD
ATOM      8  H   UNL     1      -7.018  -4.934  -1.516  0.00  0.00    +0.192 HD
ENDROOT
BRANCH   1  10
ATOM      9  C   UNL     1      -2.821  -2.603   0.025  0.00  0.00    +0.034 C 
ATOM     10  N   UNL     1      -3.269  -3.256  -0.981  0.00  0.00    -0.189 NA
ATOM     11  C   UNL     1      -3.704  -2.362   1.222  0.00  0.00    +0.062 C 
BRANCH   9  12
ATOM     12  C   UNL     1      -1.409  -2.075   0.011  0.00  0.00    +0.052 C 
BRANCH  12  13
ATOM     13  C   UNL     1      -1.437  -0.545   0.026  0.00  0.00    +0.006 C 
BRANCH  13  15
ATOM     14  C   UNL     1      -0.032   1.520   0.028  0.00  0.00    +0.004 C 
ATOM     15  C   UNL     1      -0.004  -0.009   0.012  0.00  0.00    -0.003 C 
ENDBRANCH  13  15
ENDBRANCH  12  13
ENDBRANCH   9  12
ENDBRANCH   1  10
BRANCH   4  16
ATOM     16  S   UNL     1      -4.709  -6.023  -5.579  0.00  0.00    -0.075 S 
BRANCH  16  17
ATOM     17  C   UNL     1      -6.192  -6.871  -6.189  0.00  0.00    +0.173 C 
BRANCH  17  18
ATOM     18  C   UNL     1      -5.921  -7.433  -7.561  0.00  0.00    +0.227 C 
ATOM     19  O   UNL     1      -4.834  -7.276  -8.076  0.00  0.00    -0.275 OA
ATOM     20  N   UNL     1      -6.886  -8.109  -8.215  0.00  0.00    -0.285 N 
ATOM     21  H   UNL     1      -7.731  -8.293  -7.777  0.00  0.00    +0.155 HD
BRANCH  20  22
ATOM     22  C   UNL     1      -6.667  -8.546  -9.527  0.00  0.00    +0.033 A 
ATOM     23  C   UNL     1      -7.713  -8.555 -10.440  0.00  0.00    +0.024 A 
ATOM     24  C   UNL     1      -7.494  -8.987 -11.734  0.00  0.00    +0.016 A 
ATOM     25  C   UNL     1      -6.235  -9.411 -12.120  0.00  0.00    +0.013 A 
ATOM     26  C   UNL     1      -5.192  -9.403 -11.211  0.00  0.00    +0.016 A 
ATOM     27  C   UNL     1      -5.403  -8.967  -9.918  0.00  0.00    +0.024 A 
ATOM     28  I   UNL     1      -5.909 -10.066 -14.082  0.00  0.00    -0.044 I 
ENDBRANCH  20  22
ENDBRANCH  17  18
ENDBRANCH  16  17
ENDBRANCH   4  16
TORSDOF 8
