REMARK  Name = ZINC22134098
REMARK  8 active torsions:
REMARK  status: ('A' for Active; 'I' for Inactive)
REMARK    1  A    between atoms: C_1  and  C_2
REMARK    2  A    between atoms: C_2  and  C_3
REMARK    3  A    between atoms: C_9  and  C_13
REMARK    4  A    between atoms: C_13  and  S_14
REMARK    5  A    between atoms: S_14  and  C_15
REMARK    6  A    between atoms: N_19  and  C_20
REMARK    7  A    between atoms: C_23  and  C_27
REMARK    8  A    between atoms: C_25  and  C_26
REMARK                            x       y       z     vdW  Elec       q    Type
REMARK                         _______ _______ _______ _____ _____    ______ ____
ROOT
ATOM      1  S   UNL     1       2.437  -2.356   2.481  0.00  0.00    -0.081 S 
ENDROOT
BRANCH   1   2
ATOM      2  C   UNL     1       1.722  -2.892   0.963  0.00  0.00    +0.174 A 
ATOM      3  N   UNL     1       1.565  -4.140   0.586  0.00  0.00    -0.230 NA
ATOM      4  C   UNL     1       0.987  -4.170  -0.627  0.00  0.00    +0.131 A 
ATOM      5  C   UNL     1       0.767  -2.905  -1.023  0.00  0.00    +0.113 A 
ATOM      6  N   UNL     1       1.237  -2.082  -0.021  0.00  0.00    -0.294 N 
BRANCH   6   7
ATOM      7  C   UNL     1       1.215  -0.680  -0.013  0.00  0.00    +0.051 A 
ATOM      8  C   UNL     1       0.002  -0.004   0.002  0.00  0.00    +0.027 A 
ATOM      9  C   UNL     1      -0.017   1.377   0.010  0.00  0.00    +0.005 A 
ATOM     10  C   UNL     1       1.171   2.086   0.002  0.00  0.00    -0.050 A 
ATOM     11  C   UNL     1       2.380   1.415  -0.013  0.00  0.00    +0.008 A 
ATOM     12  C   UNL     1       2.405   0.034  -0.021  0.00  0.00    -0.026 A 
ATOM     13  C   UNL     1       3.723  -0.696  -0.038  0.00  0.00    +0.046 C 
ATOM     14  C   UNL     1       1.147   3.593   0.011  0.00  0.00    +0.044 C 
ENDBRANCH   6   7
ENDBRANCH   1   2
BRANCH   1  15
ATOM     15  C   UNL     1       2.825  -3.958   3.229  0.00  0.00    +0.133 C 
BRANCH  15  22
ATOM     16  C   UNL     1       6.644  -2.685   8.104  0.00  0.00    +0.102 A 
ATOM     17  N   UNL     1       5.410  -3.085   8.175  0.00  0.00    -0.159 NA
ATOM     18  N   UNL     1       4.658  -3.337   7.032  0.00  0.00    -0.171 N 
ATOM     19  C   UNL     1       3.360  -3.758   6.974  0.00  0.00    +0.275 A 
ATOM     20  O   UNL     1       2.734  -3.954   8.004  0.00  0.00    -0.266 OA
ATOM     21  C   UNL     1       2.751  -3.964   5.736  0.00  0.00    +0.096 A 
ATOM     22  C   UNL     1       3.464  -3.741   4.577  0.00  0.00    +0.060 A 
ATOM     23  N   UNL     1       4.728  -3.337   4.669  0.00  0.00    -0.225 NA
ATOM     24  C   UNL     1       5.290  -3.140   5.835  0.00  0.00    +0.199 A 
ATOM     25  S   UNL     1       6.912  -2.611   6.340  0.00  0.00    -0.033 S 
BRANCH  16  27
ATOM     26  C   UNL     1       6.906  -2.582  10.568  0.00  0.00    +0.011 C 
ATOM     27  C   UNL     1       7.602  -2.366   9.222  0.00  0.00    +0.061 C 
ENDBRANCH  16  27
ENDBRANCH  15  22
ENDBRANCH   1  15
TORSDOF 5
