REMARK  Name = ZINC34755815
REMARK  4 active torsions:
REMARK  status: ('A' for Active; 'I' for Inactive)
REMARK    1  A    between atoms: C_4  and  C_7
REMARK    2  A    between atoms: C_7  and  C_8
REMARK    3  A    between atoms: N_24  and  C_27
REMARK    4  A    between atoms: C_27  and  C_28
REMARK                            x       y       z     vdW  Elec       q    Type
REMARK                         _______ _______ _______ _____ _____    ______ ____
ROOT
ATOM      1  C   UNL     1       4.154  -0.954   1.382  0.00  0.00    +0.137 A 
ATOM      2  N   UNL     1       4.907  -0.054   1.989  0.00  0.00    -0.216 NA
ATOM      3  C   UNL     1       5.347  -0.222   3.225  0.00  0.00    +0.133 A 
ATOM      4  C   UNL     1       5.002  -1.410   3.928  0.00  0.00    +0.051 A 
ATOM      5  C   UNL     1       5.370  -1.812   5.287  0.00  0.00    -0.025 A 
ATOM      6  C   UNL     1       4.906  -3.001   5.720  0.00  0.00    -0.004 A 
ATOM      7  S   UNL     1       3.965  -3.651   4.365  0.00  0.00    -0.073 S 
ATOM      8  C   UNL     1       4.197  -2.321   3.216  0.00  0.00    +0.114 A 
ATOM      9  N   UNL     1       3.796  -2.071   1.984  0.00  0.00    -0.224 NA
ATOM     10  C   UNL     1       5.140  -3.634   7.057  0.00  0.00    +0.043 C 
ATOM     11  C   UNL     1       6.300  -2.900   7.745  0.00  0.00    +0.005 C 
ATOM     12  C   UNL     1       6.057  -1.391   7.637  0.00  0.00    +0.005 C 
ATOM     13  C   UNL     1       6.239  -0.938   6.188  0.00  0.00    +0.037 C 
ATOM     14  N   UNL     1       6.134   0.744   3.827  0.00  0.00    -0.318 N 
ATOM     15  C   UNL     1       7.601   0.644   3.808  0.00  0.00    +0.088 C 
ATOM     16  C   UNL     1       8.173   1.978   3.317  0.00  0.00    -0.059 C 
ATOM     17  N   UNL     1       7.651   3.069   4.149  0.00  0.00    +0.387 N 
ATOM     18  C   UNL     1       6.196   3.176   3.979  0.00  0.00    -0.059 C 
ATOM     19  C   UNL     1       5.527   1.904   4.497  0.00  0.00    +0.088 C 
ATOM     20  H   UNL     1       7.862   2.882   5.118  0.00  0.00    -0.081 HD
ENDROOT
BRANCH   1  21
ATOM     21  C   UNL     1       3.688  -0.695  -0.028  0.00  0.00    +0.111 C 
BRANCH  21  25
ATOM     22  C   UNL     1      -0.049   1.372   0.061  0.00  0.00    +0.000 A 
ATOM     23  C   UNL     1       1.135   2.086   0.049  0.00  0.00    +0.000 A 
ATOM     24  C   UNL     1       2.345   1.417   0.020  0.00  0.00    +0.004 A 
ATOM     25  C   UNL     1       2.370   0.035   0.004  0.00  0.00    -0.040 A 
ATOM     26  C   UNL     1       1.186  -0.679   0.017  0.00  0.00    +0.004 A 
ATOM     27  C   UNL     1      -0.024  -0.010   0.044  0.00  0.00    +0.000 A 
ENDBRANCH  21  25
ENDBRANCH   1  21
BRANCH  17  28
ATOM     28  C   UNL     1       8.283   4.333   3.750  0.00  0.00    +0.018 C 
BRANCH  28  29
ATOM     29  C   UNL     1       7.842   5.432   4.681  0.00  0.00    +0.194 C 
ATOM     30  O   UNL     1       7.076   5.187   5.589  0.00  0.00    -0.278 OA
ATOM     31  N   UNL     1       8.298   6.688   4.506  0.00  0.00    -0.331 N 
ATOM     32  H   UNL     1       8.911   6.885   3.780  0.00  0.00    +0.145 HD
ATOM     33  H   UNL     1       8.014   7.396   5.106  0.00  0.00    +0.145 HD
ENDBRANCH  28  29
ENDBRANCH  17  28
TORSDOF 4
