REMARK  Name = ZINC19948479
REMARK  10 active torsions:
REMARK  status: ('A' for Active; 'I' for Inactive)
REMARK    1  A    between atoms: C_1  and  C_2
REMARK    2  A    between atoms: C_5  and  N_9
REMARK    3  A    between atoms: C_6  and  C_8
REMARK    4  A    between atoms: N_9  and  C_10
REMARK    5  A    between atoms: N_9  and  S_24
REMARK    6  A    between atoms: C_10  and  C_11
REMARK    7  A    between atoms: N_13  and  N_14
REMARK    8  A    between atoms: C_15  and  C_16
REMARK    9  A    between atoms: C_15  and  C_17
REMARK   10  A    between atoms: S_24  and  C_27
REMARK                            x       y       z     vdW  Elec       q    Type
REMARK                         _______ _______ _______ _____ _____    ______ ____
ROOT
ATOM      1  N   UNL     1       0.141  -4.155  -0.352  0.00  0.00    -0.194 N 
ENDROOT
BRANCH   1   6
ATOM      2  C   UNL     1       1.033   1.369   0.571  0.00  0.00    +0.044 C 
ATOM      3  C   UNL     1       0.796  -0.099   0.325  0.00  0.00    -0.050 A 
ATOM      4  C   UNL     1       0.931  -1.003   1.363  0.00  0.00    +0.005 A 
ATOM      5  C   UNL     1       0.715  -2.348   1.142  0.00  0.00    +0.025 A 
ATOM      6  C   UNL     1       0.360  -2.794  -0.125  0.00  0.00    +0.055 A 
ATOM      7  C   UNL     1       0.225  -1.884  -1.165  0.00  0.00    -0.028 A 
ATOM      8  C   UNL     1       0.438  -0.539  -0.936  0.00  0.00    +0.008 A 
ATOM      9  C   UNL     1      -0.159  -2.363  -2.541  0.00  0.00    +0.046 C 
ENDBRANCH   1   6
BRANCH   1  10
ATOM     10  S   UNL     1      -1.389  -4.777  -0.234  0.00  0.00    +0.075 S 
ATOM     11  O   UNL     1      -1.247  -6.129   0.182  0.00  0.00    -0.150 OA
ATOM     12  O   UNL     1      -2.158  -3.832   0.497  0.00  0.00    -0.150 OA
BRANCH  10  13
ATOM     13  C   UNL     1      -2.061  -4.820  -1.863  0.00  0.00    +0.109 A 
ATOM     14  C   UNL     1      -2.878  -3.795  -2.300  0.00  0.00    +0.029 A 
ATOM     15  C   UNL     1      -3.406  -3.828  -3.578  0.00  0.00    +0.002 A 
ATOM     16  C   UNL     1      -3.115  -4.887  -4.418  0.00  0.00    +0.000 A 
ATOM     17  C   UNL     1      -2.297  -5.912  -3.980  0.00  0.00    +0.002 A 
ATOM     18  C   UNL     1      -1.767  -5.877  -2.704  0.00  0.00    +0.029 A 
ENDBRANCH  10  13
ENDBRANCH   1  10
BRANCH   1  19
ATOM     19  C   UNL     1       1.264  -5.031  -0.695  0.00  0.00    +0.228 C 
BRANCH  19  20
ATOM     20  C   UNL     1       1.951  -5.484   0.568  0.00  0.00    +0.251 C 
ATOM     21  O   UNL     1       1.484  -5.195   1.649  0.00  0.00    -0.272 OA
ATOM     22  N   UNL     1       3.084  -6.209   0.495  0.00  0.00    -0.205 N 
ATOM     23  H   UNL     1       3.458  -6.440  -0.370  0.00  0.00    +0.177 HD
BRANCH  22  24
ATOM     24  N   UNL     1       3.723  -6.630   1.668  0.00  0.00    -0.185 NA
ATOM     25  C   UNL     1       4.814  -7.329   1.598  0.00  0.00    +0.063 C 
ATOM     26  C   UNL     1       5.394  -7.688   0.254  0.00  0.00    +0.068 C 
BRANCH  25  27
ATOM     27  C   UNL     1       5.487  -7.772   2.834  0.00  0.00    -0.002 A 
ATOM     28  C   UNL     1       6.665  -8.520   2.762  0.00  0.00    +0.011 A 
ATOM     29  C   UNL     1       7.289  -8.931   3.921  0.00  0.00    +0.016 A 
ATOM     30  C   UNL     1       6.750  -8.604   5.154  0.00  0.00    +0.018 A 
ATOM     31  C   UNL     1       5.583  -7.864   5.232  0.00  0.00    +0.016 A 
ATOM     32  C   UNL     1       4.952  -7.442   4.081  0.00  0.00    +0.011 A 
ATOM     33 BR   UNL     1       7.612  -9.172   6.738  0.00  0.00    -0.050 Br
ENDBRANCH  25  27
ENDBRANCH  22  24
ENDBRANCH  19  20
ENDBRANCH   1  19
TORSDOF 7
