REMARK  Name = ZINC66543060
REMARK  10 active torsions:
REMARK  status: ('A' for Active; 'I' for Inactive)
REMARK    1  A    between atoms: C_1  and  C_2
REMARK    2  A    between atoms: C_2  and  N_3
REMARK    3  A    between atoms: N_3  and  C_4
REMARK    4  A    between atoms: N_3  and  C_6
REMARK    5  A    between atoms: C_4  and  C_5
REMARK    6  A    between atoms: N_9  and  C_12
REMARK    7  A    between atoms: C_12  and  C_14
REMARK    8  A    between atoms: C_12  and  C_15
REMARK    9  A    between atoms: N_17  and  C_18
REMARK   10  A    between atoms: C_19  and  C_26
REMARK                            x       y       z     vdW  Elec       q    Type
REMARK                         _______ _______ _______ _____ _____    ______ ____
ROOT
ATOM      1  C   UNL     1       4.426  -5.449   1.388  0.00  0.00    +0.235 C 
ATOM      2  O   UNL     1       4.857  -4.574   0.666  0.00  0.00    -0.274 OA
ATOM      3  N   UNL     1       5.018  -6.660   1.407  0.00  0.00    -0.278 N 
ATOM      4  H   UNL     1       4.673  -7.359   1.984  0.00  0.00    +0.155 HD
ENDROOT
BRANCH   3   5
ATOM      5  C   UNL     1       6.121  -6.905   0.603  0.00  0.00    +0.084 A 
ATOM      6  C   UNL     1       6.846  -8.077   0.489  0.00  0.00    +0.068 A 
ATOM      7  C   UNL     1       7.975  -8.078  -0.440  0.00  0.00    -0.023 A 
ATOM      8  C   UNL     1       8.164  -6.907  -1.075  0.00  0.00    -0.004 A 
ATOM      9  S   UNL     1       6.876  -5.852  -0.462  0.00  0.00    -0.077 S 
ATOM     10  C   UNL     1       9.339  -6.962  -2.014  0.00  0.00    +0.043 C 
ATOM     11  C   UNL     1      10.137  -8.207  -1.568  0.00  0.00    +0.010 C 
ATOM     12  C   UNL     1       9.038  -9.068  -0.912  0.00  0.00    +0.037 C 
BRANCH   6  13
ATOM     13  C   UNL     1       6.497  -9.269   1.267  0.00  0.00    +0.244 C 
ATOM     14  O   UNL     1       5.714 -10.084   0.815  0.00  0.00    -0.270 OA
ATOM     15  N   UNL     1       7.043  -9.463   2.484  0.00  0.00    -0.325 N 
ATOM     16  H   UNL     1       7.667  -8.813   2.845  0.00  0.00    +0.145 HD
ATOM     17  H   UNL     1       6.812 -10.252   2.999  0.00  0.00    +0.145 HD
ENDBRANCH   6  13
ENDBRANCH   3   5
BRANCH   1  18
ATOM     18  C   UNL     1       3.228  -5.182   2.262  0.00  0.00    +0.140 C 
ATOM     19  C   UNL     1       2.102  -6.150   1.894  0.00  0.00    +0.034 C 
BRANCH  18  23
ATOM     20  C   UNL     1       0.884  -1.689   1.496  0.00  0.00    -0.066 C 
ATOM     21  C   UNL     1       1.418  -1.944   2.908  0.00  0.00    +0.000 C 
ATOM     22  C   UNL     1       1.762  -3.428   3.058  0.00  0.00    +0.083 C 
ATOM     23  N   UNL     1       2.772  -3.800   2.059  0.00  0.00    -0.292 NA
ATOM     24  C   UNL     1       2.265  -3.609   0.694  0.00  0.00    +0.083 C 
ATOM     25  C   UNL     1       1.935  -2.131   0.474  0.00  0.00    +0.000 C 
BRANCH  20  26
ATOM     26  N   UNL     1       0.607  -0.256   1.327  0.00  0.00    +0.381 N 
ATOM     27  H   UNL     1      -0.018   0.053   2.056  0.00  0.00    -0.081 HD
BRANCH  26  29
ATOM     28  C   UNL     1       1.564   1.998   1.355  0.00  0.00    -0.017 C 
ATOM     29  C   UNL     1       1.865   0.498   1.406  0.00  0.00    -0.082 C 
ENDBRANCH  26  29
BRANCH  26  30
ATOM     30  C   UNL     1      -0.019  -0.030   0.017  0.00  0.00    -0.082 C 
ATOM     31  C   UNL     1      -1.396  -0.695  -0.012  0.00  0.00    -0.017 C 
ENDBRANCH  26  30
ENDBRANCH  20  26
ENDBRANCH  18  23
ENDBRANCH   1  18
TORSDOF 7
