REMARK  Name = ZINC36321501
REMARK  6 active torsions:
REMARK  status: ('A' for Active; 'I' for Inactive)
REMARK    1  A    between atoms: C_1  and  C_2
REMARK    2  A    between atoms: C_3  and  C_24
REMARK    3  A    between atoms: C_4  and  C_16
REMARK    4  A    between atoms: N_9  and  C_10
REMARK    5  A    between atoms: C_24  and  O_26
REMARK    6  A    between atoms: O_26  and  C_27
REMARK                            x       y       z     vdW  Elec       q    Type
REMARK                         _______ _______ _______ _____ _____    ______ ____
ROOT
ATOM      1  C   UNL     1       0.004   1.321  -1.022  0.00  0.00    +0.062 C 
ATOM      2  C   UNL     1       0.013  -0.092  -0.500  0.00  0.00    +0.027 C 
ATOM      3  C   UNL     1      -1.147  -0.780  -0.424  0.00  0.00    +0.078 C 
ATOM      4  C   UNL     1      -1.093  -2.198   0.107  0.00  0.00    +0.141 C 
ATOM      5  N   UNL     1       0.230  -2.714   0.498  0.00  0.00    -0.315 N 
ATOM      6  C   UNL     1       1.299  -1.905   0.363  0.00  0.00    +0.142 C 
ATOM      7  S   UNL     1       2.843  -2.492   0.814  0.00  0.00    -0.018 S 
ATOM      8  N   UNL     1       1.195  -0.659  -0.117  0.00  0.00    -0.255 N 
ATOM      9  H   UNL     1       0.329  -3.614   0.845  0.00  0.00    +0.149 HD
ENDROOT
BRANCH   4  10
ATOM     10  C   UNL     1      -1.997  -2.280   1.310  0.00  0.00    -0.021 A 
ATOM     11  C   UNL     1      -1.558  -1.815   2.536  0.00  0.00    +0.008 A 
ATOM     12  C   UNL     1      -2.386  -1.888   3.640  0.00  0.00    +0.040 A 
ATOM     13  C   UNL     1      -3.656  -2.428   3.518  0.00  0.00    +0.137 A 
ATOM     14  C   UNL     1      -4.094  -2.893   2.290  0.00  0.00    +0.053 A 
ATOM     15  C   UNL     1      -3.266  -2.814   1.185  0.00  0.00    +0.024 A 
ATOM     16 BR   UNL     1      -5.827  -3.631   2.121  0.00  0.00    -0.047 Br
ATOM     17  F   UNL     1      -4.466  -2.500   4.597  0.00  0.00    -0.204 F 
ENDBRANCH   4  10
BRANCH   8  18
ATOM     18  C   UNL     1       2.362   0.107  -0.226  0.00  0.00    +0.040 A 
ATOM     19  C   UNL     1       2.774   0.903   0.834  0.00  0.00    +0.024 A 
ATOM     20  C   UNL     1       3.925   1.657   0.723  0.00  0.00    +0.002 A 
ATOM     21  C   UNL     1       4.668   1.620  -0.443  0.00  0.00    +0.000 A 
ATOM     22  C   UNL     1       4.261   0.828  -1.500  0.00  0.00    +0.002 A 
ATOM     23  C   UNL     1       3.113   0.067  -1.393  0.00  0.00    +0.024 A 
ENDBRANCH   8  18
BRANCH   3  24
ATOM     24  C   UNL     1      -2.372  -0.196  -0.825  0.00  0.00    +0.339 C 
ATOM     25  O   UNL     1      -2.392   0.945  -1.247  0.00  0.00    -0.245 OA
BRANCH  24  26
ATOM     26  O   UNL     1      -3.517  -0.904  -0.739  0.00  0.00    -0.465 OA
ATOM     27  C   UNL     1      -4.716  -0.251  -1.161  0.00  0.00    +0.280 C 
ENDBRANCH  24  26
ENDBRANCH   3  24
TORSDOF 4
