REMARK  Name = ZINC64925905
REMARK  8 active torsions:
REMARK  status: ('A' for Active; 'I' for Inactive)
REMARK    1  A    between atoms: C_1  and  C_2
REMARK    2  A    between atoms: C_2  and  C_3
REMARK    3  A    between atoms: C_3  and  N_4
REMARK    4  A    between atoms: C_8  and  C_21
REMARK    5  A    between atoms: N_11  and  C_20
REMARK    6  A    between atoms: N_14  and  C_17
REMARK    7  A    between atoms: C_17  and  C_18
REMARK    8  A    between atoms: C_18  and  C_19
REMARK                            x       y       z     vdW  Elec       q    Type
REMARK                         _______ _______ _______ _____ _____    ______ ____
ROOT
ATOM      1  N   UNL     1      -1.321  -1.928  -0.107  0.00  0.00    -0.294 N 
ATOM      2  C   UNL     1      -1.343  -2.541  -1.312  0.00  0.00    +0.254 A 
ATOM      3  O   UNL     1      -1.650  -1.896  -2.297  0.00  0.00    -0.268 OA
ATOM      4  C   UNL     1      -0.973  -3.890  -1.449  0.00  0.00    +0.084 A 
ATOM      5  C   UNL     1      -0.691  -4.631  -0.313  0.00  0.00    +0.058 A 
ATOM      6  C   UNL     1      -0.860  -3.989   0.983  0.00  0.00    +0.093 A 
ATOM      7  C   UNL     1      -1.283  -2.641   1.036  0.00  0.00    +0.133 A 
ATOM      8  N   UNL     1      -1.717  -2.207   2.257  0.00  0.00    -0.282 N 
ATOM      9  C   UNL     1      -1.195  -2.724   3.388  0.00  0.00    +0.333 A 
ATOM     10  O   UNL     1      -1.262  -2.093   4.417  0.00  0.00    -0.246 OA
ATOM     11  N   UNL     1      -0.656  -3.953   3.398  0.00  0.00    -0.260 N 
ATOM     12  C   UNL     1      -0.573  -4.667   2.249  0.00  0.00    +0.267 A 
ATOM     13  O   UNL     1      -0.270  -5.843   2.315  0.00  0.00    -0.267 OA
ATOM     14  C   UNL     1      -2.820  -1.255   2.414  0.00  0.00    +0.155 C 
ENDROOT
BRANCH   5  15
ATOM     15  C   UNL     1      -0.229  -6.035  -0.461  0.00  0.00    +0.248 C 
ATOM     16  O   UNL     1      -1.016  -6.950  -0.327  0.00  0.00    -0.270 OA
ATOM     17  N   UNL     1       1.063  -6.293  -0.745  0.00  0.00    -0.295 N 
ATOM     18  C   UNL     1       2.050  -5.205  -0.791  0.00  0.00    +0.127 C 
ATOM     19  C   UNL     1       3.197  -5.543   0.169  0.00  0.00    +0.125 C 
ATOM     20  N   UNL     1       3.644  -6.917  -0.098  0.00  0.00    -0.314 N 
ATOM     21  C   UNL     1       2.657  -8.005  -0.052  0.00  0.00    +0.125 C 
ATOM     22  C   UNL     1       1.511  -7.668  -1.007  0.00  0.00    +0.127 C 
ATOM     23  C   UNL     1       4.977  -7.183  -0.391  0.00  0.00    +0.099 A 
ATOM     24  C   UNL     1       5.926  -6.173  -0.262  0.00  0.00    +0.042 A 
ATOM     25  C   UNL     1       7.248  -6.452  -0.556  0.00  0.00    +0.005 A 
ATOM     26  C   UNL     1       7.579  -7.736  -0.970  0.00  0.00    +0.018 A 
ATOM     27  C   UNL     1       6.586  -8.689  -1.076  0.00  0.00    +0.084 A 
ATOM     28  N   UNL     1       5.333  -8.396  -0.784  0.00  0.00    -0.350 N 
ATOM     29  H   UNL     1       4.655  -9.086  -0.863  0.00  0.00    +0.166 HD
ENDBRANCH   5  15
BRANCH   1  30
ATOM     30  C   UNL     1      -1.329  -0.463  -0.130  0.00  0.00    +0.126 C 
BRANCH  30  32
ATOM     31  C   UNL     1       0.086   1.580  -0.384  0.00  0.00    +0.005 C 
ATOM     32  C   UNL     1       0.094   0.051  -0.360  0.00  0.00    +0.018 C 
ENDBRANCH  30  32
ENDBRANCH   1  30
BRANCH  11  33
ATOM     33  C   UNL     1      -0.156  -4.525   4.648  0.00  0.00    +0.130 C 
BRANCH  33  34
ATOM     34  C   UNL     1      -1.309  -5.194   5.400  0.00  0.00    +0.018 C 
ATOM     35  C   UNL     1      -0.813  -5.684   6.761  0.00  0.00    +0.005 C 
ENDBRANCH  33  34
ENDBRANCH  11  33
TORSDOF 5
