REMARK  Name = ZINC36083215
REMARK  6 active torsions:
REMARK  status: ('A' for Active; 'I' for Inactive)
REMARK    1  A    between atoms: C_1  and  C_2
REMARK    2  A    between atoms: C_2  and  N_3
REMARK    3  A    between atoms: N_3  and  C_4
REMARK    4  A    between atoms: C_4  and  C_5
REMARK    5  A    between atoms: C_17  and  C_20
REMARK    6  A    between atoms: C_27  and  C_29
REMARK                            x       y       z     vdW  Elec       q    Type
REMARK                         _______ _______ _______ _____ _____    ______ ____
ROOT
ATOM      1  C   UNL     1      -1.831  -1.865  -1.855  0.00  0.00    +0.233 C 
ATOM      2  O   UNL     1      -1.171  -2.656  -1.214  0.00  0.00    -0.274 OA
ATOM      3  N   UNL     1      -2.454  -2.265  -2.981  0.00  0.00    -0.299 N 
ATOM      4  C   UNL     1      -2.307  -3.664  -3.381  0.00  0.00    +0.109 C 
ATOM      5  C   UNL     1      -3.529  -4.421  -2.898  0.00  0.00    +0.038 C 
ATOM      6  C   UNL     1      -4.654  -4.330  -3.932  0.00  0.00    +0.108 C 
ATOM      7  N   UNL     1      -4.773  -2.988  -4.522  0.00  0.00    -0.312 N 
ATOM      8  C   UNL     1      -4.691  -1.766  -3.743  0.00  0.00    +0.125 C 
ATOM      9  C   UNL     1      -3.215  -1.299  -3.695  0.00  0.00    +0.126 C 
ATOM     10  C   UNL     1      -4.972  -2.885  -5.894  0.00  0.00    +0.144 A 
ATOM     11  C   UNL     1      -5.264  -4.025  -6.646  0.00  0.00    +0.047 A 
ATOM     12  C   UNL     1      -5.454  -3.873  -8.007  0.00  0.00    +0.033 A 
ATOM     13  C   UNL     1      -5.342  -2.587  -8.546  0.00  0.00    +0.093 A 
ATOM     14  N   UNL     1      -5.061  -1.562  -7.754  0.00  0.00    -0.147 NA
ATOM     15  N   UNL     1      -4.890  -1.704  -6.489  0.00  0.00    -0.134 NA
ENDROOT
BRANCH  13  16
ATOM     16  C   UNL     1      -5.536  -2.371 -10.001  0.00  0.00    +0.002 A 
ATOM     17  C   UNL     1      -5.837  -3.447 -10.834  0.00  0.00    +0.013 A 
ATOM     18  C   UNL     1      -6.017  -3.242 -12.186  0.00  0.00    +0.039 A 
ATOM     19  C   UNL     1      -5.899  -1.967 -12.716  0.00  0.00    +0.123 A 
ATOM     20  C   UNL     1      -5.600  -0.894 -11.892  0.00  0.00    +0.039 A 
ATOM     21  C   UNL     1      -5.424  -1.090 -10.538  0.00  0.00    +0.013 A 
ATOM     22  F   UNL     1      -6.075  -1.770 -14.041  0.00  0.00    -0.205 F 
ENDBRANCH  13  16
BRANCH   1  23
ATOM     23  C   UNL     1      -1.953  -0.436  -1.393  0.00  0.00    +0.204 C 
BRANCH  23  24
ATOM     24  N   UNL     1      -1.190  -0.256  -0.155  0.00  0.00    -0.286 N 
ATOM     25  C   UNL     1      -1.784  -0.456   1.038  0.00  0.00    +0.282 C 
ATOM     26  O   UNL     1      -2.924  -0.879   1.087  0.00  0.00    -0.267 OA
BRANCH  25  27
ATOM     27  C   UNL     1      -1.056  -0.164   2.277  0.00  0.00    +0.189 A 
ATOM     28  C   UNL     1      -1.532  -0.335   3.546  0.00  0.00    +0.054 A 
ATOM     29  C   UNL     1      -0.507   0.067   4.418  0.00  0.00    +0.042 A 
ATOM     30  C   UNL     1       0.535   0.459   3.653  0.00  0.00    +0.196 A 
ATOM     31  O   UNL     1       0.203   0.314   2.364  0.00  0.00    -0.458 OA
ENDBRANCH  25  27
BRANCH  24  33
ATOM     32  C   UNL     1       0.327   1.660  -0.068  0.00  0.00    +0.024 C 
ATOM     33  C   UNL     1       0.219   0.141  -0.215  0.00  0.00    +0.105 C 
ENDBRANCH  24  33
ENDBRANCH  23  24
ENDBRANCH   1  23
TORSDOF 5
