REMARK  Name = ZINC60362709
REMARK  6 active torsions:
REMARK  status: ('A' for Active; 'I' for Inactive)
REMARK    1  A    between atoms: N_4  and  C_7
REMARK    2  A    between atoms: C_14  and  N_16
REMARK    3  A    between atoms: C_17  and  C_19
REMARK    4  A    between atoms: C_19  and  S_20
REMARK    5  A    between atoms: S_20  and  C_21
REMARK    6  A    between atoms: N_25  and  C_26
REMARK                            x       y       z     vdW  Elec       q    Type
REMARK                         _______ _______ _______ _____ _____    ______ ____
ROOT
ATOM      1  C   UNL     1       2.849  -0.295  -2.473  0.00  0.00    -0.025 C 
ATOM      2  C   UNL     1       2.662  -1.822  -2.330  0.00  0.00    +0.152 C 
ATOM      3  S   UNL     1       4.362  -2.430  -2.716  0.00  0.00    -0.031 S 
ATOM      4  O   UNL     1       4.643  -3.575  -1.923  0.00  0.00    -0.174 OA
ATOM      5  O   UNL     1       4.532  -2.490  -4.125  0.00  0.00    -0.174 OA
ATOM      6  C   UNL     1       5.289  -0.981  -2.047  0.00  0.00    +0.186 C 
ATOM      7  C   UNL     1       4.291   0.163  -2.315  0.00  0.00    +0.082 C 
ENDROOT
BRANCH   1  11
ATOM      8  C   UNL     1      -0.237   1.954  -0.581  0.00  0.00    -0.004 C 
ATOM      9  C   UNL     1       1.182   2.527  -0.643  0.00  0.00    -0.019 C 
ATOM     10  C   UNL     1       1.967   1.812  -1.746  0.00  0.00    -0.078 C 
ATOM     11  N   UNL     1       2.030   0.375  -1.454  0.00  0.00    +0.384 N 
ATOM     12  C   UNL     1       0.677  -0.195  -1.463  0.00  0.00    -0.078 C 
ATOM     13  C   UNL     1      -0.157   0.442  -0.350  0.00  0.00    -0.019 C 
ATOM     14  H   UNL     1       2.446   0.236  -0.545  0.00  0.00    -0.081 HD
ENDBRANCH   1  11
BRANCH   7  15
ATOM     15  N   UNL     1       4.360   1.113  -1.201  0.00  0.00    -0.312 N 
ATOM     16  C   UNL     1       5.115   2.225  -1.310  0.00  0.00    +0.224 C 
ATOM     17  O   UNL     1       5.736   2.439  -2.329  0.00  0.00    -0.275 OA
ATOM     18  H   UNL     1       3.864   0.942  -0.386  0.00  0.00    +0.149 HD
BRANCH  16  19
ATOM     19  C   UNL     1       5.186   3.201  -0.165  0.00  0.00    +0.173 C 
BRANCH  19  20
ATOM     20  S   UNL     1       6.274   4.582  -0.614  0.00  0.00    -0.075 S 
BRANCH  20  21
ATOM     21  C   UNL     1       6.253   5.622   0.808  0.00  0.00    +0.210 A 
ATOM     22  N   UNL     1       5.591   5.406   1.924  0.00  0.00    -0.101 NA
ATOM     23  N   UNL     1       5.794   6.361   2.759  0.00  0.00    -0.022 NA
ATOM     24  N   UNL     1       6.585   7.241   2.249  0.00  0.00    -0.043 NA
ATOM     25  N   UNL     1       6.919   6.791   0.960  0.00  0.00    -0.217 N 
BRANCH  25  26
ATOM     26  C   UNL     1       7.798   7.447  -0.012  0.00  0.00    +0.112 C 
ATOM     27  C   UNL     1       8.597   8.661   0.465  0.00  0.00    +0.029 C 
ATOM     28  C   UNL     1       7.409   8.850  -0.481  0.00  0.00    +0.029 C 
ENDBRANCH  25  26
ENDBRANCH  20  21
ENDBRANCH  19  20
ENDBRANCH  16  19
ENDBRANCH   7  15
TORSDOF 6
