REMARK  Name = ZINC02324976
REMARK  8 active torsions:
REMARK  status: ('A' for Active; 'I' for Inactive)
REMARK    1  A    between atoms: C_9  and  O_36
REMARK    2  A    between atoms: C_10  and  C_11
REMARK    3  A    between atoms: N_12  and  N_13
REMARK    4  A    between atoms: C_14  and  C_16
REMARK    5  A    between atoms: C_16  and  S_17
REMARK    6  A    between atoms: S_17  and  C_18
REMARK    7  A    between atoms: C_21  and  C_29
REMARK    8  A    between atoms: N_22  and  C_23
REMARK                            x       y       z     vdW  Elec       q    Type
REMARK                         _______ _______ _______ _____ _____    ______ ____
ROOT
ATOM      1  C   UNL     1       9.807   0.176   0.079  0.00  0.00    +0.174 C 
ENDROOT
BRANCH   1   3
ATOM      2  N   UNL     1       7.337   0.034   0.116  0.00  0.00    -0.206 N 
ATOM      3  C   UNL     1       8.522  -0.558   0.365  0.00  0.00    +0.242 C 
ATOM      4  O   UNL     1       8.554  -1.683   0.820  0.00  0.00    -0.273 OA
ATOM      5  H   UNL     1       7.312   0.933  -0.248  0.00  0.00    +0.177 HD
BRANCH   2   7
ATOM      6  C   UNL     1       5.001  -0.077   0.142  0.00  0.00    +0.142 C 
ATOM      7  N   UNL     1       6.143  -0.648   0.382  0.00  0.00    -0.188 NA
BRANCH   6  17
ATOM      8  C   UNL     1      -0.027   0.968  -0.321  0.00  0.00    +0.001 A 
ATOM      9  C   UNL     1       1.138   1.678  -0.598  0.00  0.00    +0.001 A 
ATOM     10  C   UNL     1       2.364   1.129  -0.367  0.00  0.00    +0.009 A 
ATOM     11  C   UNL     1       2.455  -0.166   0.157  0.00  0.00    -0.006 A 
ATOM     12  C   UNL     1       1.271  -0.891   0.440  0.00  0.00    -0.017 A 
ATOM     13  C   UNL     1       0.024  -0.293   0.189  0.00  0.00    +0.008 A 
ATOM     14  C   UNL     1       1.364  -2.191   0.967  0.00  0.00    +0.012 A 
ATOM     15  C   UNL     1       2.576  -2.760   1.207  0.00  0.00    +0.046 A 
ATOM     16  C   UNL     1       3.768  -2.086   0.945  0.00  0.00    +0.126 A 
ATOM     17  C   UNL     1       3.748  -0.793   0.421  0.00  0.00    +0.044 A 
BRANCH  16  18
ATOM     18  O   UNL     1       4.955  -2.692   1.201  0.00  0.00    -0.506 OA
ATOM     19  H   UNL     1       5.306  -3.200   0.456  0.00  0.00    +0.292 HD
ENDBRANCH  16  18
ENDBRANCH   6  17
ENDBRANCH   2   7
ENDBRANCH   1   3
BRANCH   1  20
ATOM     20  S   UNL     1      11.216  -0.879   0.517  0.00  0.00    -0.077 S 
BRANCH  20  21
ATOM     21  C   UNL     1      12.623   0.108   0.129  0.00  0.00    +0.193 A 
ATOM     22  N   UNL     1      12.609   1.329  -0.359  0.00  0.00    -0.122 NA
ATOM     23  N   UNL     1      13.812   1.753  -0.522  0.00  0.00    -0.128 NA
ATOM     24  C   UNL     1      14.667   0.830  -0.148  0.00  0.00    +0.165 A 
ATOM     25  N   UNL     1      13.932  -0.250   0.284  0.00  0.00    -0.299 N 
BRANCH  24  26
ATOM     26  C   UNL     1      16.141   0.933  -0.182  0.00  0.00    +0.019 A 
ATOM     27  C   UNL     1      16.918  -0.205  -0.408  0.00  0.00    +0.013 A 
ATOM     28  C   UNL     1      18.293  -0.102  -0.438  0.00  0.00    +0.021 A 
ATOM     29  C   UNL     1      18.903   1.126  -0.244  0.00  0.00    +0.041 A 
ATOM     30  C   UNL     1      18.138   2.258  -0.019  0.00  0.00    +0.021 A 
ATOM     31  C   UNL     1      16.762   2.169   0.007  0.00  0.00    +0.013 A 
ATOM     32 CL   UNL     1      20.635   1.247  -0.284  0.00  0.00    -0.084 Cl
ENDBRANCH  24  26
BRANCH  25  33
ATOM     33  C   UNL     1      14.447  -1.520   0.802  0.00  0.00    +0.091 C 
ATOM     34  C   UNL     1      14.071  -2.651  -0.157  0.00  0.00    +0.025 C 
ATOM     35  C   UNL     1      14.608  -3.978   0.383  0.00  0.00    +0.002 C 
ATOM     36  C   UNL     1      13.998  -4.253   1.759  0.00  0.00    +0.000 C 
ATOM     37  C   UNL     1      14.373  -3.122   2.719  0.00  0.00    +0.002 C 
ATOM     38  C   UNL     1      13.836  -1.795   2.178  0.00  0.00    +0.025 C 
ENDBRANCH  25  33
ENDBRANCH  20  21
ENDBRANCH   1  20
TORSDOF 8
