REMARK  Name = ZINC64006708
REMARK  5 active torsions:
REMARK  status: ('A' for Active; 'I' for Inactive)
REMARK    1  A    between atoms: C_1  and  C_2
REMARK    2  A    between atoms: C_4  and  C_26
REMARK    3  A    between atoms: C_7  and  C_12
REMARK    4  A    between atoms: C_12  and  N_13
REMARK    5  A    between atoms: C_14  and  C_16
REMARK                            x       y       z     vdW  Elec       q    Type
REMARK                         _______ _______ _______ _____ _____    ______ ____
ROOT
ATOM      1  N   UNL     1       6.034  -2.445  -1.624  0.00  0.00    -0.311 N 
ATOM      2  C   UNL     1       7.140  -2.903  -2.243  0.00  0.00    +0.218 C 
ATOM      3  O   UNL     1       7.199  -4.061  -2.600  0.00  0.00    -0.275 OA
ATOM      4  H   UNL     1       5.986  -1.519  -1.339  0.00  0.00    +0.149 HD
ENDROOT
BRANCH   2   5
ATOM      5  C   UNL     1       8.303  -1.977  -2.492  0.00  0.00    +0.092 C 
ATOM      6  C   UNL     1       9.422  -2.742  -3.202  0.00  0.00    +0.016 C 
ATOM      7  C   UNL     1      10.590  -1.795  -3.484  0.00  0.00    +0.020 C 
ATOM      8  C   UNL     1      11.138  -1.258  -2.158  0.00  0.00    +0.109 C 
ATOM      9  N   UNL     1      10.035  -0.647  -1.403  0.00  0.00    -0.285 N 
ATOM     10  C   UNL     1       8.824  -1.441  -1.155  0.00  0.00    +0.122 C 
ATOM     11  C   UNL     1      10.132   0.617  -0.948  0.00  0.00    +0.300 C 
ATOM     12  O   UNL     1       9.178   1.144  -0.408  0.00  0.00    -0.253 OA
ATOM     13  N   UNL     1      11.286   1.298  -1.090  0.00  0.00    -0.313 N 
ATOM     14  H   UNL     1      12.023   0.906  -1.584  0.00  0.00    +0.146 HD
ATOM     15  H   UNL     1      11.380   2.181  -0.699  0.00  0.00    +0.146 HD
ENDBRANCH   2   5
BRANCH   1  16
ATOM     16  C   UNL     1       4.903  -3.345  -1.383  0.00  0.00    +0.139 C 
BRANCH  16  22
ATOM     17  C   UNL     1      -0.016   1.512   0.052  0.00  0.00    +0.035 C 
ATOM     18  C   UNL     1       0.007  -0.018   0.042  0.00  0.00    +0.103 C 
ATOM     19  C   UNL     1       0.729  -0.521  -1.188  0.00  0.00    -0.042 C 
ATOM     20  C   UNL     1       1.788  -1.231  -0.736  0.00  0.00    -0.001 A 
ATOM     21  C   UNL     1       2.860  -1.963  -1.421  0.00  0.00    +0.015 A 
ATOM     22  C   UNL     1       3.802  -2.591  -0.682  0.00  0.00    -0.030 A 
ATOM     23  C   UNL     1       3.781  -2.561   0.719  0.00  0.00    +0.007 A 
ATOM     24  C   UNL     1       2.829  -1.909   1.420  0.00  0.00    +0.026 A 
ATOM     25  C   UNL     1       1.789  -1.213   0.745  0.00  0.00    +0.043 A 
ATOM     26  N   UNL     1       0.768  -0.520   1.192  0.00  0.00    -0.378 N 
ATOM     27  C   UNL     1       0.347  -0.280  -2.625  0.00  0.00    +0.042 C 
ATOM     28  H   UNL     1       0.553  -0.364   2.124  0.00  0.00    +0.160 HD
ENDBRANCH  16  22
ENDBRANCH   1  16
TORSDOF 3
