REMARK  Name = ZINC43746498
REMARK  5 active torsions:
REMARK  status: ('A' for Active; 'I' for Inactive)
REMARK    1  A    between atoms: C_1  and  C_2
REMARK    2  A    between atoms: C_19  and  C_21
REMARK    3  A    between atoms: C_21  and  N_22
REMARK    4  A    between atoms: C_25  and  C_28
REMARK    5  A    between atoms: C_28  and  C_30
REMARK                            x       y       z     vdW  Elec       q    Type
REMARK                         _______ _______ _______ _____ _____    ______ ____
ROOT
ATOM      1  C   UNL     1      -0.019   1.526   0.010  0.00  0.00    +0.012 C 
ATOM      2  C   UNL     1       0.002  -0.004   0.002  0.00  0.00    -0.022 C 
ATOM      3  C   UNL     1       0.725  -0.492  -1.251  0.00  0.00    +0.007 C 
ATOM      4  C   UNL     1       2.117   0.141  -1.318  0.00  0.00    +0.005 C 
ATOM      5  C   UNL     1       2.947  -0.312  -0.113  0.00  0.00    +0.030 C 
ATOM      6  C   UNL     1       2.176  -0.011   1.153  0.00  0.00    -0.073 C 
ATOM      7  C   UNL     1       2.726   0.656   2.138  0.00  0.00    +0.008 C 
ATOM      8  C   UNL     1       0.745  -0.508   1.246  0.00  0.00    +0.021 C 
ATOM      9  C   UNL     1       0.779  -2.035   1.208  0.00  0.00    +0.016 C 
ATOM     10  C   UNL     1      -0.632  -2.622   1.232  0.00  0.00    +0.042 C 
ATOM     11  C   UNL     1      -1.491  -2.015   0.104  0.00  0.00    +0.181 C 
ATOM     12  C   UNL     1      -1.428  -0.527   0.023  0.00  0.00    +0.052 C 
ATOM     13  O   UNL     1      -0.990  -2.646  -1.080  0.00  0.00    -0.461 OA
ATOM     14  C   UNL     1      -0.785  -3.950  -0.786  0.00  0.00    +0.309 C 
ATOM     15  O   UNL     1      -0.817  -4.861  -1.578  0.00  0.00    -0.251 OA
ATOM     16  C   UNL     1      -0.505  -4.090   0.723  0.00  0.00    +0.088 C 
ENDROOT
BRANCH  16  17
ATOM     17  C   UNL     1      -1.552  -4.984   1.392  0.00  0.00    -0.064 C 
BRANCH  17  18
ATOM     18  N   UNL     1      -1.334  -6.380   0.988  0.00  0.00    +0.380 N 
ATOM     19  C   UNL     1      -0.036  -6.838   1.498  0.00  0.00    -0.078 C 
ATOM     20  C   UNL     1       0.231  -8.264   1.012  0.00  0.00    -0.007 C 
ATOM     21  C   UNL     1      -0.876  -9.189   1.525  0.00  0.00    +0.057 C 
ATOM     22  C   UNL     1      -2.232  -8.659   1.049  0.00  0.00    -0.007 C 
ATOM     23  C   UNL     1      -2.408  -7.218   1.534  0.00  0.00    -0.078 C 
ATOM     24  H   UNL     1      -1.339  -6.442  -0.019  0.00  0.00    -0.082 HD
BRANCH  21  25
ATOM     25  C   UNL     1      -0.662 -10.580   0.985  0.00  0.00    +0.166 C 
ATOM     26  O   UNL     1      -0.045 -10.742  -0.046  0.00  0.00    -0.292 OA
BRANCH  25  27
ATOM     27  C   UNL     1      -1.202 -11.742   1.709  0.00  0.00    +0.018 A 
ATOM     28  C   UNL     1      -1.920 -11.559   2.896  0.00  0.00    +0.011 A 
ATOM     29  C   UNL     1      -2.423 -12.652   3.568  0.00  0.00    +0.001 A 
ATOM     30  C   UNL     1      -2.219 -13.928   3.072  0.00  0.00    +0.000 A 
ATOM     31  C   UNL     1      -1.510 -14.117   1.899  0.00  0.00    +0.001 A 
ATOM     32  C   UNL     1      -1.005 -13.034   1.212  0.00  0.00    +0.011 A 
ENDBRANCH  25  27
ENDBRANCH  21  25
ENDBRANCH  17  18
ENDBRANCH  16  17
TORSDOF 4
