REMARK  Name = ZINC64610027
REMARK  5 active torsions:
REMARK  status: ('A' for Active; 'I' for Inactive)
REMARK    1  A    between atoms: C_1  and  C_2
REMARK    2  A    between atoms: C_5  and  S_7
REMARK    3  A    between atoms: S_7  and  C_8
REMARK    4  A    between atoms: C_8  and  C_9
REMARK    5  A    between atoms: C_24  and  C_26
REMARK                            x       y       z     vdW  Elec       q    Type
REMARK                         _______ _______ _______ _____ _____    ______ ____
ROOT
ATOM      1  C   UNL     1      -0.353  -5.887   2.829  0.00  0.00    +0.226 C 
ATOM      2  O   UNL     1      -0.321  -5.575   4.000  0.00  0.00    -0.275 OA
ATOM      3  N   UNL     1      -0.144  -7.168   2.466  0.00  0.00    -0.291 N 
ATOM      4  C   UNL     1      -0.302  -7.560   1.062  0.00  0.00    +0.113 C 
ATOM      5  C   UNL     1      -1.354  -8.680   0.958  0.00  0.00    +0.052 C 
ATOM      6  C   UNL     1      -1.036  -9.675   2.046  0.00  0.00    -0.035 C 
ATOM      7  C   UNL     1      -0.861 -10.990   2.009  0.00  0.00    -0.001 A 
ATOM      8  C   UNL     1      -1.020 -11.969   0.922  0.00  0.00    +0.010 A 
ATOM      9  C   UNL     1      -0.732 -13.261   1.232  0.00  0.00    +0.001 A 
ATOM     10  C   UNL     1      -0.308 -13.672   2.499  0.00  0.00    +0.002 A 
ATOM     11  C   UNL     1      -0.142 -12.841   3.559  0.00  0.00    +0.026 A 
ATOM     12  C   UNL     1      -0.422 -11.458   3.359  0.00  0.00    +0.043 A 
ATOM     13  N   UNL     1      -0.372 -10.461   4.192  0.00  0.00    -0.375 N 
ATOM     14  C   UNL     1      -0.828  -9.256   3.497  0.00  0.00    +0.131 C 
ATOM     15  C   UNL     1       0.246  -8.157   3.483  0.00  0.00    +0.135 C 
ATOM     16  H   UNL     1      -0.081 -10.507   5.116  0.00  0.00    +0.160 HD
ENDROOT
BRANCH  15  17
ATOM     17  C   UNL     1       0.321  -7.497   4.836  0.00  0.00    +0.010 A 
ATOM     18  C   UNL     1      -0.733  -7.615   5.722  0.00  0.00    +0.008 A 
ATOM     19  C   UNL     1      -0.664  -7.009   6.963  0.00  0.00    +0.000 A 
ATOM     20  C   UNL     1       0.459  -6.285   7.319  0.00  0.00    +0.003 A 
ATOM     21  C   UNL     1       1.514  -6.166   6.434  0.00  0.00    +0.039 A 
ATOM     22  C   UNL     1       1.448  -6.777   5.193  0.00  0.00    +0.128 A 
ATOM     23  F   UNL     1       2.481  -6.666   4.330  0.00  0.00    -0.205 F 
ENDBRANCH  15  17
BRANCH   1  24
ATOM     24  C   UNL     1      -0.626  -4.842   1.778  0.00  0.00    +0.172 C 
BRANCH  24  25
ATOM     25  S   UNL     1      -0.863  -3.230   2.575  0.00  0.00    -0.089 S 
BRANCH  25  30
ATOM     26  C   UNL     1      -1.887   1.335   0.200  0.00  0.00    +0.066 C 
ATOM     27  C   UNL     1      -1.616  -0.147   0.165  0.00  0.00    +0.047 A 
ATOM     28  C   UNL     1      -1.579  -0.832  -1.003  0.00  0.00    +0.070 A 
ATOM     29  S   UNL     1      -1.230  -2.481  -0.412  0.00  0.00    -0.069 S 
ATOM     30  C   UNL     1      -1.169  -2.131   1.233  0.00  0.00    +0.135 A 
ATOM     31  N   UNL     1      -1.399  -0.835   1.272  0.00  0.00    -0.238 NA
ENDBRANCH  25  30
ENDBRANCH  24  25
ENDBRANCH   1  24
TORSDOF 4
