REMARK  Name = ZINC21258653
REMARK  11 active torsions:
REMARK  status: ('A' for Active; 'I' for Inactive)
REMARK    1  A    between atoms: C_1  and  C_2
REMARK    2  A    between atoms: C_5  and  C_8
REMARK    3  A    between atoms: C_11  and  S_14
REMARK    4  A    between atoms: N_12  and  N_13
REMARK    5  A    between atoms: S_14  and  C_15
REMARK    6  A    between atoms: C_15  and  C_16
REMARK    7  A    between atoms: C_18  and  C_21
REMARK    8  A    between atoms: C_24  and  O_29
REMARK    9  A    between atoms: C_25  and  O_27
REMARK   10  A    between atoms: O_27  and  C_28
REMARK   11  A    between atoms: O_29  and  C_30
REMARK                            x       y       z     vdW  Elec       q    Type
REMARK                         _______ _______ _______ _____ _____    ______ ____
ROOT
ATOM      1  S   UNL     1      -1.476  -3.598  -0.409  0.00  0.00    -0.075 S 
ENDROOT
BRANCH   1   5
ATOM      2  C   UNL     1       0.002  -0.004   0.002  0.00  0.00    +0.182 A 
ATOM      3  N   UNL     1       1.035  -0.772   0.262  0.00  0.00    -0.127 NA
ATOM      4  N   UNL     1       0.698  -2.008   0.164  0.00  0.00    -0.121 NA
ATOM      5  C   UNL     1      -0.571  -2.105  -0.164  0.00  0.00    +0.209 A 
ATOM      6  N   UNL     1      -1.060  -0.835  -0.273  0.00  0.00    -0.224 N 
BRANCH   2  11
ATOM      7  C   UNL     1      -0.076   5.750   0.035  0.00  0.00    +0.044 C 
ATOM      8  C   UNL     1      -0.056   4.243   0.026  0.00  0.00    -0.050 A 
ATOM      9  C   UNL     1       1.154   3.571   0.010  0.00  0.00    +0.004 A 
ATOM     10  C   UNL     1       1.179   2.191   0.003  0.00  0.00    +0.012 A 
ATOM     11  C   UNL     1      -0.018   1.474   0.010  0.00  0.00    +0.021 A 
ATOM     12  C   UNL     1      -1.234   2.159   0.020  0.00  0.00    +0.012 A 
ATOM     13  C   UNL     1      -1.246   3.538   0.033  0.00  0.00    +0.004 A 
ENDBRANCH   2  11
BRANCH   6  14
ATOM     14  N   UNL     1      -2.336  -0.466  -0.592  0.00  0.00    -0.295 N 
ATOM     15  H   UNL     1      -3.097  -1.234  -0.791  0.00  0.00    +0.163 HD
ATOM     16  H   UNL     1      -2.601   0.600  -0.650  0.00  0.00    +0.163 HD
ENDBRANCH   6  14
ENDBRANCH   1   5
BRANCH   1  17
ATOM     17  C   UNL     1      -0.173  -4.812  -0.085  0.00  0.00    +0.176 C 
BRANCH  17  18
ATOM     18  C   UNL     1      -0.733  -6.202  -0.241  0.00  0.00    +0.238 A 
ATOM     19  N   UNL     1      -0.759  -6.911  -1.342  0.00  0.00    -0.191 NA
ATOM     20  C   UNL     1      -1.348  -8.081  -1.006  0.00  0.00    +0.202 A 
ATOM     21  N   UNL     1      -1.642  -8.015   0.267  0.00  0.00    -0.056 NA
ATOM     22  O   UNL     1      -1.290  -6.946   0.720  0.00  0.00    -0.337 OA
BRANCH  20  23
ATOM     23  C   UNL     1      -1.611  -9.226  -1.912  0.00  0.00    +0.026 A 
ATOM     24  C   UNL     1      -1.244  -9.152  -3.255  0.00  0.00    +0.015 A 
ATOM     25  C   UNL     1      -1.484 -10.220  -4.096  0.00  0.00    +0.050 A 
ATOM     26  C   UNL     1      -2.100 -11.364  -3.610  0.00  0.00    +0.162 A 
ATOM     27  C   UNL     1      -2.473 -11.441  -2.271  0.00  0.00    +0.162 A 
ATOM     28  C   UNL     1      -2.230 -10.375  -1.423  0.00  0.00    +0.061 A 
BRANCH  27  29
ATOM     29  O   UNL     1      -3.077 -12.563  -1.796  0.00  0.00    -0.491 OA
ATOM     30  C   UNL     1      -3.432 -12.573  -0.412  0.00  0.00    +0.277 C 
ENDBRANCH  27  29
BRANCH  26  31
ATOM     31  O   UNL     1      -2.340 -12.411  -4.443  0.00  0.00    -0.491 OA
ATOM     32  C   UNL     1      -1.931 -12.264  -5.804  0.00  0.00    +0.277 C 
ENDBRANCH  26  31
ENDBRANCH  20  23
ENDBRANCH  17  18
ENDBRANCH   1  17
TORSDOF 8
