REMARK  Name = ZINC14542147
REMARK  8 active torsions:
REMARK  status: ('A' for Active; 'I' for Inactive)
REMARK    1  A    between atoms: C_1  and  C_2
REMARK    2  A    between atoms: C_2  and  N_3
REMARK    3  A    between atoms: C_6  and  C_8
REMARK    4  A    between atoms: C_18  and  N_70
REMARK    5  A    between atoms: C_22  and  N_70
REMARK    6  A    between atoms: C_28  and  O_30
REMARK    7  A    between atoms: O_30  and  C_31
REMARK    8  A    between atoms: C_31  and  C_32
REMARK                            x       y       z     vdW  Elec       q    Type
REMARK                         _______ _______ _______ _____ _____    ______ ____
ROOT
ATOM      1  N   UNL     1       1.862   1.004  -3.659  0.00  0.00    -0.268 N 
ATOM      2  C   UNL     1       1.405   0.932  -2.398  0.00  0.00    +0.043 A 
ATOM      3  C   UNL     1       0.064   1.129  -2.445  0.00  0.00    +0.004 A 
ATOM      4  C   UNL     1      -0.250   1.323  -3.801  0.00  0.00    +0.151 A 
ATOM      5  N   UNL     1       0.887   1.233  -4.469  0.00  0.00    -0.166 NA
ATOM      6  C   UNL     1      -0.843   1.123  -1.246  0.00  0.00    +0.023 C 
ATOM      7  C   UNL     1      -0.092   0.469  -0.078  0.00  0.00    -0.067 C 
ATOM      8  C   UNL     1       1.294   1.105   0.059  0.00  0.00    -0.009 C 
ATOM      9  C   UNL     1       2.173   0.685  -1.125  0.00  0.00    +0.054 C 
ENDROOT
BRANCH   4  10
ATOM     10  C   UNL     1      -1.589   1.578  -4.368  0.00  0.00    +0.267 C 
ATOM     11  O   UNL     1      -2.542   1.740  -3.630  0.00  0.00    -0.268 OA
ATOM     12  N   UNL     1      -1.756   1.631  -5.705  0.00  0.00    -0.296 N 
ATOM     13  C   UNL     1      -0.631   1.318  -6.556  0.00  0.00    +0.108 C 
ATOM     14  C   UNL     1       0.183   2.598  -6.842  0.00  0.00    +0.019 C 
ATOM     15  C   UNL     1      -0.565   3.487  -7.744  0.00  0.00    +0.002 C 
ATOM     16  C   UNL     1      -1.884   3.997  -7.172  0.00  0.00    +0.002 C 
ATOM     17  C   UNL     1      -2.967   2.979  -7.431  0.00  0.00    +0.019 C 
ATOM     18  C   UNL     1      -3.079   2.011  -6.238  0.00  0.00    +0.108 C 
ENDBRANCH   4  10
BRANCH   7  19
ATOM     19  N   UNL     1      -0.856   0.680   1.167  0.00  0.00    +0.383 N 
ATOM     20  H   UNL     1      -1.861   0.653   0.956  0.00  0.00    -0.085 HD
ATOM     21  H   UNL     1      -0.614   1.597   1.561  0.00  0.00    -0.085 HD
BRANCH  19  22
ATOM     22  C   UNL     1      -0.536  -0.372   2.149  0.00  0.00    -0.069 C 
ATOM     23  C   UNL     1      -1.416  -1.597   1.890  0.00  0.00    +0.003 C 
ATOM     24  C   UNL     1      -1.062  -2.697   2.896  0.00  0.00    +0.109 C 
ATOM     25  N   UNL     1      -1.175  -2.150   4.254  0.00  0.00    -0.268 N 
ATOM     26  C   UNL     1      -0.441  -0.920   4.584  0.00  0.00    +0.109 C 
ATOM     27  C   UNL     1      -0.801   0.159   3.559  0.00  0.00    +0.003 C 
ATOM     28  C   UNL     1      -1.938  -2.763   5.180  0.00  0.00    +0.403 C 
ATOM     29  O   UNL     1      -2.024  -2.300   6.301  0.00  0.00    -0.226 OA
BRANCH  28  30
ATOM     30  O   UNL     1      -2.606  -3.889   4.864  0.00  0.00    -0.451 OA
BRANCH  30  31
ATOM     31  C   UNL     1      -3.409  -4.495   5.911  0.00  0.00    +0.230 C 
ATOM     32  C   UNL     1      -4.087  -5.755   5.369  0.00  0.00    +0.048 C 
ENDBRANCH  30  31
ENDBRANCH  28  30
ENDBRANCH  19  22
ENDBRANCH   7  19
BRANCH   1  34
ATOM     33  C   UNL     1       3.548  -0.629  -4.346  0.00  0.00    +0.029 C 
ATOM     34  C   UNL     1       3.264   0.846  -4.054  0.00  0.00    +0.140 C 
ENDBRANCH   1  34
TORSDOF 6
