REMARK  Name = ZINC12250182
REMARK  12 active torsions:
REMARK  status: ('A' for Active; 'I' for Inactive)
REMARK    1  A    between atoms: C_1  and  C_2
REMARK    2  A    between atoms: C_2  and  C_3
REMARK    3  A    between atoms: C_6  and  N_9
REMARK    4  A    between atoms: C_10  and  C_12
REMARK    5  A    between atoms: C_13  and  C_38
REMARK    6  A    between atoms: C_15  and  S_26
REMARK    7  A    between atoms: C_16  and  C_24
REMARK    8  A    between atoms: C_17  and  C_19
REMARK    9  A    between atoms: S_26  and  C_27
REMARK   10  A    between atoms: C_27  and  C_28
REMARK   11  A    between atoms: N_30  and  C_31
REMARK   12  A    between atoms: C_36  and  C_37
REMARK                            x       y       z     vdW  Elec       q    Type
REMARK                         _______ _______ _______ _____ _____    ______ ____
ROOT
ATOM      1  C   UNL     1      -0.822  -1.720   0.088  0.00  0.00    +0.047 C 
ATOM      2  C   UNL     1      -2.012  -2.339   0.123  0.00  0.00    +0.015 C 
ATOM      3  N   UNL     1      -2.096  -3.700   0.231  0.00  0.00    -0.312 N 
ATOM      4  C   UNL     1      -1.013  -4.426   0.675  0.00  0.00    +0.080 C 
ATOM      5  C   UNL     1       0.233  -3.881   0.666  0.00  0.00    +0.072 C 
ATOM      6  C   UNL     1       0.469  -2.483   0.168  0.00  0.00    +0.134 C 
ATOM      7  C   UNL     1      -3.276  -1.523   0.036  0.00  0.00    +0.061 C 
ATOM      8  H   UNL     1      -3.029  -4.217  -0.036  0.00  0.00    +0.152 HD
ENDROOT
BRANCH   6   9
ATOM      9  C   UNL     1       1.094  -2.545  -1.202  0.00  0.00    +0.118 A 
ATOM     10  C   UNL     1       2.303  -2.059  -1.538  0.00  0.00    +0.045 A 
ATOM     11  C   UNL     1       2.486  -2.331  -2.913  0.00  0.00    +0.041 A 
ATOM     12  C   UNL     1       1.378  -2.966  -3.336  0.00  0.00    +0.195 A 
ATOM     13  O   UNL     1       0.541  -3.098  -2.294  0.00  0.00    -0.467 OA
ENDBRANCH   6   9
BRANCH   1  15
ATOM     14  N   UNL     1       0.401   0.324  -0.151  0.00  0.00    -0.282 N 
ATOM     15  C   UNL     1      -0.782  -0.309  -0.020  0.00  0.00    +0.247 C 
ATOM     16  O   UNL     1      -1.816   0.333   0.005  0.00  0.00    -0.270 OA
ATOM     17  H   UNL     1       1.328  -0.259  -0.252  0.00  0.00    +0.155 HD
BRANCH  14  21
ATOM     18  C   UNL     1       0.545   4.487  -0.176  0.00  0.00    -0.048 A 
ATOM     19  C   UNL     1      -0.529   3.830  -0.750  0.00  0.00    +0.005 A 
ATOM     20  C   UNL     1      -0.579   2.450  -0.743  0.00  0.00    +0.023 A 
ATOM     21  C   UNL     1       0.449   1.722  -0.160  0.00  0.00    +0.034 A 
ATOM     22  C   UNL     1       1.523   2.384   0.421  0.00  0.00    +0.023 A 
ATOM     23  C   UNL     1       1.571   3.764   0.406  0.00  0.00    +0.005 A 
BRANCH  18  25
ATOM     24  C   UNL     1      -0.080   6.534   1.077  0.00  0.00    +0.009 C 
ATOM     25  C   UNL     1       0.597   5.993  -0.185  0.00  0.00    +0.032 C 
ENDBRANCH  18  25
ENDBRANCH  14  21
ENDBRANCH   1  15
BRANCH   5  26
ATOM     26  C   UNL     1       1.341  -4.654   1.141  0.00  0.00    +0.098 C 
ATOM     27  N   UNL     1       2.220  -5.267   1.518  0.00  0.00    -0.191 NA
ENDBRANCH   5  26
BRANCH   4  28
ATOM     28  S   UNL     1      -1.243  -6.072   1.259  0.00  0.00    -0.100 S 
BRANCH  28  29
ATOM     29  C   UNL     1      -3.032  -6.237   1.039  0.00  0.00    +0.171 C 
BRANCH  29  30
ATOM     30  C   UNL     1      -3.470  -7.607   1.487  0.00  0.00    +0.227 C 
ATOM     31  O   UNL     1      -2.652  -8.396   1.913  0.00  0.00    -0.275 OA
ATOM     32  N   UNL     1      -4.769  -7.957   1.414  0.00  0.00    -0.285 N 
ATOM     33  H   UNL     1      -5.523  -7.214   1.116  0.00  0.00    +0.155 HD
BRANCH  32  34
ATOM     34  C   UNL     1      -5.159  -9.267   1.717  0.00  0.00    +0.036 A 
ATOM     35  C   UNL     1      -4.252 -10.310   1.589  0.00  0.00    +0.023 A 
ATOM     36  C   UNL     1      -4.638 -11.601   1.895  0.00  0.00    +0.002 A 
ATOM     37  C   UNL     1      -5.930 -11.855   2.316  0.00  0.00    +0.000 A 
ATOM     38  C   UNL     1      -6.838 -10.819   2.439  0.00  0.00    +0.005 A 
ATOM     39  C   UNL     1      -6.456  -9.526   2.141  0.00  0.00    -0.029 A 
ATOM     40  C   UNL     1      -7.446  -8.397   2.274  0.00  0.00    +0.045 C 
ENDBRANCH  32  34
ENDBRANCH  29  30
ENDBRANCH  28  29
ENDBRANCH   4  28
TORSDOF 9
