REMARK  Name = ZINC62924585
REMARK  4 active torsions:
REMARK  status: ('A' for Active; 'I' for Inactive)
REMARK    1  A    between atoms: C_1  and  C_2
REMARK    2  A    between atoms: C_2  and  C_3
REMARK    3  A    between atoms: C_3  and  C_19
REMARK    4  A    between atoms: C_14  and  C_16
REMARK                            x       y       z     vdW  Elec       q    Type
REMARK                         _______ _______ _______ _____ _____    ______ ____
ROOT
ATOM      1  C   UNL     1      -1.364  -0.549   0.005  0.00  0.00    +0.089 C 
ATOM      2  C   UNL     1      -1.974  -0.125   1.361  0.00  0.00    +0.039 C 
ATOM      3  C   UNL     1      -2.851  -1.346   1.741  0.00  0.00    +0.110 C 
ATOM      4  N   UNL     1      -2.047  -2.499   1.275  0.00  0.00    -0.284 N 
ATOM      5  C   UNL     1      -1.453  -2.087  -0.010  0.00  0.00    +0.127 C 
ATOM      6  C   UNL     1      -1.889  -3.683   1.899  0.00  0.00    +0.305 C 
ATOM      7  O   UNL     1      -1.219  -4.557   1.384  0.00  0.00    -0.252 OA
ATOM      8  N   UNL     1      -2.474  -3.898   3.094  0.00  0.00    -0.274 N 
ATOM      9  C   UNL     1      -3.427  -2.991   3.760  0.00  0.00    +0.110 C 
ATOM     10  C   UNL     1      -4.245  -3.903   4.708  0.00  0.00    +0.021 C 
ATOM     11  C   UNL     1      -3.161  -4.899   5.196  0.00  0.00    +0.033 C 
ATOM     12  C   UNL     1      -2.273  -5.079   3.946  0.00  0.00    +0.163 C 
ENDROOT
BRANCH  12  13
ATOM     13  C   UNL     1      -0.826  -5.174   4.358  0.00  0.00    +0.231 C 
ATOM     14  O   UNL     1      -0.033  -4.338   3.980  0.00  0.00    -0.274 OA
ATOM     15  N   UNL     1      -0.415  -6.186   5.147  0.00  0.00    -0.328 N 
ATOM     16  H   UNL     1      -1.050  -6.854   5.449  0.00  0.00    +0.145 HD
ATOM     17  H   UNL     1       0.516  -6.247   5.412  0.00  0.00    +0.145 HD
ENDBRANCH  12  13
BRANCH   1  18
ATOM     18  C   UNL     1      -2.161   0.033  -1.134  0.00  0.00    +0.364 C 
ATOM     19  O   UNL     1      -1.613   0.739  -1.963  0.00  0.00    -0.246 OA
ATOM     20  O   UNL     1      -3.354  -0.203  -1.227  0.00  0.00    -0.246 OA
ENDBRANCH   1  18
BRANCH   1  22
ATOM     21  C   UNL     1       0.161   1.428  -0.068  0.00  0.00    +0.005 C 
ATOM     22  C   UNL     1       0.096  -0.100  -0.084  0.00  0.00    +0.016 C 
ENDBRANCH   1  22
TORSDOF 3
