REMARK  Name = ZINC12881904
REMARK  6 active torsions:
REMARK  status: ('A' for Active; 'I' for Inactive)
REMARK    1  A    between atoms: C_4  and  C_7
REMARK    2  A    between atoms: C_7  and  C_8
REMARK    3  A    between atoms: C_8  and  N_9
REMARK    4  A    between atoms: C_14  and  C_31
REMARK    5  A    between atoms: C_31  and  C_32
REMARK    6  A    between atoms: C_35  and  O_38
REMARK                            x       y       z     vdW  Elec       q    Type
REMARK                         _______ _______ _______ _____ _____    ______ ____
ROOT
ATOM      1  N   UNL     1       1.289  -5.179   1.276  0.00  0.00    -0.241 N 
ATOM      2  C   UNL     1       0.056  -5.035   0.778  0.00  0.00    +0.224 C 
ATOM      3  O   UNL     1      -0.680  -5.943   0.456  0.00  0.00    -0.275 OA
ATOM      4  C   UNL     1      -0.278  -3.564   0.680  0.00  0.00    +0.073 C 
ATOM      5  C   UNL     1      -0.376  -3.160  -0.806  0.00  0.00    -0.053 C 
ATOM      6  C   UNL     1       1.573  -2.134  -0.024  0.00  0.00    +0.050 C 
ATOM      7  C   UNL     1       1.011  -2.868   1.200  0.00  0.00    +0.088 C 
ATOM      8  C   UNL     1       1.914  -4.029   1.552  0.00  0.00    +0.225 C 
ATOM      9  O   UNL     1       3.031  -3.932   2.013  0.00  0.00    -0.275 OA
ATOM     10  C   UNL     1       1.203  -0.678  -0.013  0.00  0.00    -0.026 A 
ATOM     11  C   UNL     1       0.002  -0.004   0.002  0.00  0.00    +0.004 A 
ATOM     12  C   UNL     1      -0.017   1.379   0.010  0.00  0.00    +0.002 A 
ATOM     13  C   UNL     1       1.173   2.084   0.002  0.00  0.00    +0.022 A 
ATOM     14  C   UNL     1       2.380   1.414  -0.012  0.00  0.00    +0.062 A 
ATOM     15  C   UNL     1       2.407   0.020  -0.019  0.00  0.00    +0.054 A 
ATOM     16  N   UNL     1       3.482  -0.872  -0.032  0.00  0.00    -0.285 N 
ATOM     17  C   UNL     1       3.077  -2.156  -0.035  0.00  0.00    +0.211 C 
ATOM     18  O   UNL     1       3.787  -3.140  -0.044  0.00  0.00    -0.277 OA
ATOM     19 CL   UNL     1       3.867   2.308  -0.021  0.00  0.00    -0.082 Cl
ATOM     20  H   UNL     1       4.413  -0.598  -0.038  0.00  0.00    +0.155 HD
ATOM     21  N   UNL     1       1.000  -2.817  -1.171  0.00  0.00    +0.394 N 
ATOM     22  H   UNL     1       1.007  -2.200  -1.992  0.00  0.00    -0.083 HD
ATOM     23  H   UNL     1       1.535  -3.669  -1.379  0.00  0.00    -0.083 HD
ENDROOT
BRANCH   1  24
ATOM     24  C   UNL     1       1.906  -6.489   1.498  0.00  0.00    +0.121 C 
BRANCH  24  25
ATOM     25  C   UNL     1       1.579  -6.972   2.913  0.00  0.00    +0.054 C 
BRANCH  25  29
ATOM     26  C   UNL     1       3.376 -10.793   3.564  0.00  0.00    +0.000 A 
ATOM     27  C   UNL     1       4.074  -9.639   3.870  0.00  0.00    +0.000 A 
ATOM     28  C   UNL     1       3.492  -8.403   3.659  0.00  0.00    +0.004 A 
ATOM     29  C   UNL     1       2.213  -8.320   3.142  0.00  0.00    -0.046 A 
ATOM     30  C   UNL     1       1.513  -9.473   2.842  0.00  0.00    +0.004 A 
ATOM     31  C   UNL     1       2.096 -10.710   3.048  0.00  0.00    +0.000 A 
ENDBRANCH  25  29
ENDBRANCH  24  25
ENDBRANCH   1  24
BRANCH   5  32
ATOM     32  C   UNL     1      -0.901  -4.329  -1.642  0.00  0.00    +0.020 C 
BRANCH  32  33
ATOM     33  C   UNL     1      -1.105  -3.878  -3.065  0.00  0.00    -0.049 A 
ATOM     34  C   UNL     1      -2.325  -3.359  -3.456  0.00  0.00    +0.007 A 
ATOM     35  C   UNL     1      -2.513  -2.939  -4.759  0.00  0.00    +0.045 A 
ATOM     36  C   UNL     1      -1.480  -3.049  -5.678  0.00  0.00    +0.117 A 
ATOM     37  C   UNL     1      -0.258  -3.575  -5.284  0.00  0.00    +0.045 A 
ATOM     38  C   UNL     1      -0.073  -3.988  -3.979  0.00  0.00    +0.007 A 
BRANCH  36  39
ATOM     39  O   UNL     1      -1.664  -2.642  -6.961  0.00  0.00    -0.507 OA
ATOM     40  H   UNL     1      -1.996  -3.334  -7.549  0.00  0.00    +0.292 HD
ENDBRANCH  36  39
ENDBRANCH  32  33
ENDBRANCH   5  32
TORSDOF 6
