REMARK  Name = ZINC31057334
REMARK  10 active torsions:
REMARK  status: ('A' for Active; 'I' for Inactive)
REMARK    1  A    between atoms: C_1  and  C_2
REMARK    2  A    between atoms: C_2  and  N_3
REMARK    3  A    between atoms: N_3  and  C_4
REMARK    4  A    between atoms: C_4  and  C_5
REMARK    5  A    between atoms: C_6  and  C_8
REMARK    6  A    between atoms: C_13  and  N_14
REMARK    7  A    between atoms: C_15  and  C_17
REMARK    8  A    between atoms: N_22  and  C_24
REMARK    9  A    between atoms: C_24  and  C_25
REMARK   10  A    between atoms: C_27  and  C_30
REMARK                            x       y       z     vdW  Elec       q    Type
REMARK                         _______ _______ _______ _____ _____    ______ ____
ROOT
ATOM      1  C   UNL     1      -0.693   1.462   1.240  0.00  0.00    +0.059 C 
ATOM      2  C   UNL     1      -0.704   2.993   1.205  0.00  0.00    +0.009 C 
ATOM      3  C   UNL     1      -1.385   3.460  -0.085  0.00  0.00    -0.018 C 
ATOM      4  C   UNL     1      -0.644   2.873  -1.289  0.00  0.00    -0.078 C 
ATOM      5  N   UNL     1      -0.662   1.407  -1.209  0.00  0.00    +0.386 N 
ATOM      6  C   UNL     1       0.027   0.933  -0.002  0.00  0.00    -0.065 C 
ATOM      7  H   UNL     1      -1.713   1.088  -1.142  0.00  0.00    -0.081 HD
ENDROOT
BRANCH   1   9
ATOM      8  N   UNL     1      -0.432   1.339   3.696  0.00  0.00    -0.285 N 
ATOM      9  C   UNL     1       0.027   0.992   2.478  0.00  0.00    +0.219 C 
ATOM     10  O   UNL     1       1.019   0.302   2.377  0.00  0.00    -0.275 OA
ATOM     11  H   UNL     1      -1.295   2.015   3.788  0.00  0.00    +0.155 HD
BRANCH   8  17
ATOM     12  C   UNL     1      -0.572   0.561   5.987  0.00  0.00    +0.058 A 
ATOM     13  C   UNL     1       0.060   0.056   7.126  0.00  0.00    +0.015 A 
ATOM     14  C   UNL     1       1.422  -0.151   7.122  0.00  0.00    +0.001 A 
ATOM     15  C   UNL     1       2.170   0.133   5.990  0.00  0.00    +0.002 A 
ATOM     16  C   UNL     1       1.559   0.627   4.855  0.00  0.00    +0.024 A 
ATOM     17  C   UNL     1       0.187   0.842   4.841  0.00  0.00    +0.046 A 
BRANCH  12  19
ATOM     18  N   UNL     1      -2.570   1.686   6.837  0.00  0.00    -0.298 N 
ATOM     19  C   UNL     1      -2.029   0.791   5.987  0.00  0.00    +0.248 C 
ATOM     20  O   UNL     1      -2.742   0.173   5.220  0.00  0.00    -0.270 OA
BRANCH  18  22
ATOM     21  C   UNL     1      -4.760   1.026   7.704  0.00  0.00    +0.024 C 
ATOM     22  C   UNL     1      -4.004   1.980   6.776  0.00  0.00    +0.104 C 
ENDBRANCH  18  22
BRANCH  18  23
ATOM     23  C   UNL     1      -1.724   2.364   7.822  0.00  0.00    +0.104 C 
ATOM     24  C   UNL     1      -1.266   3.711   7.259  0.00  0.00    +0.024 C 
ENDBRANCH  18  23
ENDBRANCH  12  19
ENDBRANCH   8  17
ENDBRANCH   1   9
BRANCH   5  25
ATOM     25  C   UNL     1      -0.082   0.807  -2.417  0.00  0.00    +0.022 C 
BRANCH  25  26
ATOM     26  C   UNL     1      -0.640   1.494  -3.637  0.00  0.00    +0.211 A 
ATOM     27  N   UNL     1      -0.142   2.549  -4.231  0.00  0.00    -0.192 NA
ATOM     28  C   UNL     1      -0.969   2.804  -5.273  0.00  0.00    +0.209 A 
ATOM     29  N   UNL     1      -1.916   1.898  -5.243  0.00  0.00    -0.056 NA
ATOM     30  O   UNL     1      -1.739   1.142  -4.312  0.00  0.00    -0.340 OA
BRANCH  28  31
ATOM     31  C   UNL     1      -0.832   3.899  -6.254  0.00  0.00    +0.060 A 
ATOM     32  C   UNL     1      -1.635   4.208  -7.320  0.00  0.00    +0.019 A 
ATOM     33  C   UNL     1      -1.305   5.289  -8.106  0.00  0.00    +0.008 A 
ATOM     34  C   UNL     1      -0.197   6.015  -7.802  0.00  0.00    +0.046 A 
ATOM     35  S   UNL     1       0.418   5.170  -6.355  0.00  0.00    -0.093 S 
ENDBRANCH  28  31
ENDBRANCH  25  26
ENDBRANCH   5  25
TORSDOF 8
