REMARK  Name = ZINC22408303
REMARK  6 active torsions:
REMARK  status: ('A' for Active; 'I' for Inactive)
REMARK    1  A    between atoms: C_5  and  C_7
REMARK    2  A    between atoms: C_7  and  C_9
REMARK    3  A    between atoms: C_7  and  N_25
REMARK    4  A    between atoms: C_9  and  C_10
REMARK    5  A    between atoms: N_12  and  C_13
REMARK    6  A    between atoms: C_18  and  N_19
REMARK                            x       y       z     vdW  Elec       q    Type
REMARK                         _______ _______ _______ _____ _____    ______ ____
ROOT
ATOM      1  C   UNL     1       2.909   4.106   1.452  0.00  0.00    +0.123 C 
ENDROOT
BRANCH   1   2
ATOM      2  C   UNL     1       4.270   4.754   1.457  0.00  0.00    +0.219 C 
ATOM      3  O   UNL     1       4.831   4.996   0.409  0.00  0.00    -0.275 OA
ATOM      4  N   UNL     1       4.863   5.066   2.627  0.00  0.00    -0.284 N 
ATOM      5  H   UNL     1       4.390   4.778   3.577  0.00  0.00    +0.155 HD
BRANCH   4   6
ATOM      6  C   UNL     1       6.083   5.755   2.631  0.00  0.00    +0.055 A 
ATOM      7  C   UNL     1       7.011   5.535   1.624  0.00  0.00    +0.025 A 
ATOM      8  C   UNL     1       8.211   6.221   1.628  0.00  0.00    +0.002 A 
ATOM      9  C   UNL     1       8.496   7.119   2.640  0.00  0.00    +0.002 A 
ATOM     10  C   UNL     1       7.580   7.340   3.651  0.00  0.00    +0.025 A 
ATOM     11  C   UNL     1       6.371   6.661   3.652  0.00  0.00    +0.051 A 
BRANCH  11  12
ATOM     12  N   UNL     1       5.442   6.883   4.675  0.00  0.00    -0.328 N 
ATOM     13  C   UNL     1       4.954   8.267   4.651  0.00  0.00    +0.105 C 
ATOM     14  C   UNL     1       3.838   8.434   5.685  0.00  0.00    +0.019 C 
ATOM     15  C   UNL     1       4.381   8.089   7.074  0.00  0.00    +0.003 C 
ATOM     16  C   UNL     1       4.928   6.659   7.060  0.00  0.00    +0.019 C 
ATOM     17  C   UNL     1       6.012   6.544   5.986  0.00  0.00    +0.105 C 
ENDBRANCH  11  12
ENDBRANCH   4   6
ENDBRANCH   1   2
BRANCH   1  18
ATOM     18  C   UNL     1       2.467   3.860   0.008  0.00  0.00    +0.115 C 
BRANCH  18  23
ATOM     19  C   UNL     1      -0.806   2.373   1.159  0.00  0.00    +0.000 A 
ATOM     20  C   UNL     1      -1.525   2.338  -0.021  0.00  0.00    +0.001 A 
ATOM     21  C   UNL     1      -0.956   2.805  -1.191  0.00  0.00    +0.020 A 
ATOM     22  C   UNL     1       0.338   3.296  -1.183  0.00  0.00    +0.046 A 
ATOM     23  C   UNL     1       1.058   3.326  -0.002  0.00  0.00    -0.008 A 
ATOM     24  C   UNL     1       0.486   2.864   1.168  0.00  0.00    +0.007 A 
ATOM     25 CL   UNL     1       1.056   3.877  -2.653  0.00  0.00    -0.083 Cl
ENDBRANCH  18  23
BRANCH  18  26
ATOM     26  N   UNL     1       3.364   2.885  -0.618  0.00  0.00    -0.292 N 
ATOM     27  C   UNL     1       3.437   1.629  -0.135  0.00  0.00    +0.298 C 
ATOM     28  O   UNL     1       2.694   1.279   0.762  0.00  0.00    -0.253 OA
ATOM     29  N   UNL     1       4.333   0.762  -0.645  0.00  0.00    -0.313 N 
ATOM     30  H   UNL     1       3.978   3.178  -1.483  0.00  0.00    +0.151 HD
ATOM     31  H   UNL     1       4.393  -0.264  -0.250  0.00  0.00    +0.146 HD
ATOM     32  H   UNL     1       5.006   1.079  -1.456  0.00  0.00    +0.146 HD
ENDBRANCH  18  26
ENDBRANCH   1  18
TORSDOF 6
