REMARK  Name = ZINC65105617
REMARK  4 active torsions:
REMARK  status: ('A' for Active; 'I' for Inactive)
REMARK    1  A    between atoms: C_8  and  C_11
REMARK    2  A    between atoms: C_11  and  N_12
REMARK    3  A    between atoms: C_13  and  C_15
REMARK    4  A    between atoms: C_17  and  C_21
REMARK                            x       y       z     vdW  Elec       q    Type
REMARK                         _______ _______ _______ _____ _____    ______ ____
ROOT
ATOM      1  N   UNL     1       3.899  -4.767   0.597  0.00  0.00    -0.310 N 
ATOM      2  C   UNL     1       4.189  -6.074   0.443  0.00  0.00    +0.263 C 
ATOM      3  O   UNL     1       3.402  -6.809  -0.122  0.00  0.00    -0.269 OA
ATOM      4  H   UNL     1       4.527  -4.181   1.048  0.00  0.00    +0.149 HD
ENDROOT
BRANCH   2   5
ATOM      5  C   UNL     1       5.458  -6.611   0.957  0.00  0.00    +0.134 A 
ATOM      6  C   UNL     1       5.901  -7.921   0.873  0.00  0.00    +0.071 A 
ATOM      7  C   UNL     1       7.150  -7.930   1.502  0.00  0.00    +0.081 A 
ATOM      8  N   UNL     1       7.400  -6.714   1.915  0.00  0.00    -0.177 NA
ATOM      9  N   UNL     1       6.439  -5.918   1.610  0.00  0.00    -0.271 N 
ATOM     10  H   UNL     1       6.412  -4.970   1.813  0.00  0.00    +0.189 HD
ATOM     11 BR   UNL     1       5.008  -9.385   0.076  0.00  0.00    -0.046 Br
BRANCH   7  12
ATOM     12  C   UNL     1       8.048  -9.127   1.674  0.00  0.00    +0.041 C 
ATOM     13  C   UNL     1       9.279  -8.964   2.567  0.00  0.00    +0.010 C 
ATOM     14  C   UNL     1       9.443  -9.059   1.049  0.00  0.00    +0.010 C 
ENDBRANCH   7  12
ENDBRANCH   2   5
BRANCH   1  15
ATOM     15  C   UNL     1       2.636  -4.231   0.085  0.00  0.00    +0.111 C 
BRANCH  15  23
ATOM     16  C   UNL     1      -0.017   1.377   0.010  0.00  0.00    +0.000 A 
ATOM     17  C   UNL     1       1.172   2.084   0.002  0.00  0.00    +0.004 A 
ATOM     18  C   UNL     1       2.375   1.409  -0.011  0.00  0.00    +0.046 A 
ATOM     19  C   UNL     1       2.398   0.018  -0.018  0.00  0.00    +0.124 A 
ATOM     20  C   UNL     1       1.207  -0.687  -0.014  0.00  0.00    -0.005 A 
ATOM     21  C   UNL     1       0.002  -0.004   0.002  0.00  0.00    +0.007 A 
ATOM     22  C   UNL     1       1.187  -2.194  -0.033  0.00  0.00    +0.047 C 
ATOM     23  C   UNL     1       2.556  -2.734   0.389  0.00  0.00    +0.048 C 
ATOM     24  C   UNL     1       3.634  -1.986  -0.407  0.00  0.00    +0.234 C 
ATOM     25  O   UNL     1       3.602  -0.610  -0.025  0.00  0.00    -0.491 OA
ENDBRANCH  15  23
ENDBRANCH   1  15
TORSDOF 4
