REMARK  Name = ZINC19938758
REMARK  9 active torsions:
REMARK  status: ('A' for Active; 'I' for Inactive)
REMARK    1  A    between atoms: C_1  and  C_2
REMARK    2  A    between atoms: C_2  and  O_3
REMARK    3  A    between atoms: O_3  and  C_4
REMARK    4  A    between atoms: C_6  and  C_14
REMARK    5  A    between atoms: C_8  and  N_11
REMARK    6  A    between atoms: C_9  and  O_10
REMARK    7  A    between atoms: C_19  and  C_24
REMARK    8  A    between atoms: C_27  and  O_30
REMARK    9  A    between atoms: O_30  and  C_31
REMARK                            x       y       z     vdW  Elec       q    Type
REMARK                         _______ _______ _______ _____ _____    ______ ____
ROOT
ATOM      1  C   UNL     1       5.670   6.776   0.076  0.00  0.00    +0.136 C 
ATOM      2  C   UNL     1       4.339   6.062   0.129  0.00  0.00    +0.036 C 
ATOM      3  C   UNL     1       3.637   5.627  -0.930  0.00  0.00    +0.017 C 
ATOM      4  C   UNL     1       2.308   4.916  -0.732  0.00  0.00    +0.059 C 
ATOM      5  C   UNL     1       2.330   4.125   0.574  0.00  0.00    +0.032 C 
ATOM      6  C   UNL     1       2.576   5.118   1.716  0.00  0.00    +0.088 C 
ATOM      7  C   UNL     1       3.854   5.853   1.441  0.00  0.00    +0.163 C 
ATOM      8  O   UNL     1       4.496   6.284   2.379  0.00  0.00    -0.292 OA
ATOM      9  N   UNL     1       4.008   5.777  -2.228  0.00  0.00    -0.316 N 
ATOM     10  C   UNL     1       5.277   5.508  -2.728  0.00  0.00    +0.052 A 
ATOM     11  C   UNL     1       5.511   4.513  -3.662  0.00  0.00    +0.025 A 
ATOM     12  C   UNL     1       6.792   4.333  -4.154  0.00  0.00    +0.002 A 
ATOM     13  C   UNL     1       7.826   5.142  -3.719  0.00  0.00    +0.002 A 
ATOM     14  C   UNL     1       7.597   6.124  -2.771  0.00  0.00    +0.025 A 
ATOM     15  C   UNL     1       6.319   6.292  -2.258  0.00  0.00    +0.049 A 
ATOM     16  N   UNL     1       6.061   7.213  -1.246  0.00  0.00    -0.331 N 
ATOM     17  H   UNL     1       3.280   6.138  -2.970  0.00  0.00    +0.152 HD
ATOM     18  H   UNL     1       6.159   8.287  -1.464  0.00  0.00    +0.147 HD
ENDROOT
BRANCH   1  21
ATOM     19  C   UNL     1       8.402   5.325   2.244  0.00  0.00    +0.164 A 
ATOM     20  C   UNL     1       7.426   6.178   1.755  0.00  0.00    +0.055 A 
ATOM     21  C   UNL     1       6.731   5.847   0.607  0.00  0.00    -0.017 A 
ATOM     22  C   UNL     1       7.004   4.663  -0.052  0.00  0.00    +0.042 A 
ATOM     23  C   UNL     1       7.980   3.810   0.427  0.00  0.00    +0.171 A 
ATOM     24  C   UNL     1       8.681   4.136   1.577  0.00  0.00    +0.189 A 
BRANCH  23  25
ATOM     25  N   UNL     1       8.274   2.546  -0.285  0.00  0.00    +0.060 N 
ATOM     26  O   UNL     1       7.659   2.260  -1.297  0.00  0.00    -0.126 OA
ATOM     27  O   UNL     1       9.132   1.793   0.140  0.00  0.00    -0.126 OA
ENDBRANCH  23  25
BRANCH  24  28
ATOM     28  O   UNL     1       9.638   3.296   2.053  0.00  0.00    -0.502 OA
ATOM     29  H   UNL     1       9.857   2.356   1.525  0.00  0.00    +0.292 HD
ENDBRANCH  24  28
BRANCH  19  30
ATOM     30  O   UNL     1       9.086   5.649   3.374  0.00  0.00    -0.488 OA
BRANCH  30  32
ATOM     31  C   UNL     1       9.615   7.076   5.252  0.00  0.00    +0.048 C 
ATOM     32  C   UNL     1       8.747   6.885   4.006  0.00  0.00    +0.226 C 
ENDBRANCH  30  32
ENDBRANCH  19  30
ENDBRANCH   1  21
BRANCH   5  33
ATOM     33  C   UNL     1       1.006   3.433   0.776  0.00  0.00    -0.043 A 
ATOM     34  C   UNL     1       0.959   2.058   0.911  0.00  0.00    +0.007 A 
ATOM     35  C   UNL     1      -0.253   1.422   1.095  0.00  0.00    +0.046 A 
ATOM     36  C   UNL     1      -1.425   2.163   1.139  0.00  0.00    +0.120 A 
ATOM     37  C   UNL     1      -1.375   3.544   1.008  0.00  0.00    +0.046 A 
ATOM     38  C   UNL     1      -0.160   4.175   0.824  0.00  0.00    +0.007 A 
BRANCH  36  39
ATOM     39  O   UNL     1      -2.619   1.539   1.314  0.00  0.00    -0.495 OA
ATOM     40  C   UNL     1      -3.784   2.366   1.349  0.00  0.00    +0.277 C 
ENDBRANCH  36  39
ENDBRANCH   5  33
TORSDOF 7
