REMARK  Name = ZINC09726111
REMARK  10 active torsions:
REMARK  status: ('A' for Active; 'I' for Inactive)
REMARK    1  A    between atoms: C_1  and  C_2
REMARK    2  A    between atoms: C_7  and  C_16
REMARK    3  A    between atoms: N_11  and  S_12
REMARK    4  A    between atoms: S_12  and  C_15
REMARK    5  A    between atoms: N_18  and  C_19
REMARK    6  A    between atoms: C_19  and  C_20
REMARK    7  A    between atoms: C_20  and  C_22
REMARK    8  A    between atoms: C_20  and  N_63
REMARK    9  A    between atoms: C_25  and  O_28
REMARK   10  A    between atoms: O_28  and  C_29
REMARK                            x       y       z     vdW  Elec       q    Type
REMARK                         _______ _______ _______ _____ _____    ______ ____
ROOT
ATOM      1  C   UNL     1       1.596   3.329  -0.209  0.00  0.00    +0.244 C 
ATOM      2  O   UNL     1       0.672   4.110  -0.088  0.00  0.00    -0.270 OA
ATOM      3  N   UNL     1       1.360   2.002  -0.218  0.00  0.00    -0.313 N 
ATOM      4  H   UNL     1       2.097   1.379  -0.314  0.00  0.00    +0.149 HD
ENDROOT
BRANCH   1  10
ATOM      5  C   UNL     1       7.048   7.567  -1.957  0.00  0.00    +0.030 C 
ATOM      6  C   UNL     1       6.578   6.907  -0.659  0.00  0.00    +0.099 C 
ATOM      7  C   UNL     1       5.060   7.085  -0.489  0.00  0.00    +0.061 C 
ATOM      8  C   UNL     1       4.515   5.674  -0.466  0.00  0.00    -0.022 A 
ATOM      9  C   UNL     1       3.225   5.208  -0.343  0.00  0.00    +0.018 A 
ATOM     10  C   UNL     1       2.975   3.833  -0.346  0.00  0.00    +0.037 A 
ATOM     11  C   UNL     1       4.042   2.940  -0.485  0.00  0.00    +0.015 A 
ATOM     12  C   UNL     1       5.324   3.413  -0.613  0.00  0.00    +0.026 A 
ATOM     13  C   UNL     1       5.578   4.790  -0.605  0.00  0.00    +0.054 A 
ATOM     14  N   UNL     1       6.790   5.459  -0.719  0.00  0.00    -0.204 N 
BRANCH  14  15
ATOM     15  S   UNL     1       8.264   4.725  -0.898  0.00  0.00    +0.043 S 
ATOM     16  O   UNL     1       9.199   5.655  -0.368  0.00  0.00    -0.155 OA
ATOM     17  O   UNL     1       8.104   3.443  -0.307  0.00  0.00    -0.155 OA
ATOM     18  C   UNL     1       8.490   4.563  -2.690  0.00  0.00    +0.218 C 
ENDBRANCH  14  15
ENDBRANCH   1  10
BRANCH   3  19
ATOM     19  C   UNL     1      -0.010   1.501  -0.082  0.00  0.00    +0.094 C 
BRANCH  19  20
ATOM     20  C   UNL     1       0.012  -0.026   0.009  0.00  0.00    -0.020 C 
BRANCH  20  21
ATOM     21  C   UNL     1       0.710  -0.444   1.278  0.00  0.00    -0.059 A 
ATOM     22  C   UNL     1       0.032  -0.411   2.482  0.00  0.00    +0.005 A 
ATOM     23  C   UNL     1       0.667  -0.799   3.645  0.00  0.00    +0.046 A 
ATOM     24  C   UNL     1       1.992  -1.210   3.607  0.00  0.00    +0.120 A 
ATOM     25  C   UNL     1       2.672  -1.237   2.398  0.00  0.00    +0.046 A 
ATOM     26  C   UNL     1       2.030  -0.854   1.236  0.00  0.00    +0.005 A 
BRANCH  24  27
ATOM     27  O   UNL     1       2.622  -1.586   4.751  0.00  0.00    -0.495 OA
ATOM     28  C   UNL     1       1.859  -1.533   5.958  0.00  0.00    +0.277 C 
ENDBRANCH  24  27
ENDBRANCH  20  21
BRANCH  20  33
ATOM     29  C   UNL     1      -2.094  -0.122  -1.209  0.00  0.00    -0.078 C 
ATOM     30  C   UNL     1      -3.263  -1.136  -1.286  0.00  0.00    -0.020 C 
ATOM     31  C   UNL     1      -2.612  -2.452  -0.802  0.00  0.00    -0.020 C 
ATOM     32  C   UNL     1      -1.383  -2.015   0.017  0.00  0.00    -0.078 C 
ATOM     33  N   UNL     1      -1.386  -0.552   0.008  0.00  0.00    +0.385 N 
ATOM     34  H   UNL     1      -1.879  -0.201   0.838  0.00  0.00    -0.081 HD
ENDBRANCH  20  33
ENDBRANCH  19  20
ENDBRANCH   3  19
TORSDOF 7
