REMARK  Name = ZINC32699844
REMARK  5 active torsions:
REMARK  status: ('A' for Active; 'I' for Inactive)
REMARK    1  A    between atoms: C_3  and  O_24
REMARK    2  A    between atoms: C_6  and  C_7
REMARK    3  A    between atoms: C_10  and  S_12
REMARK    4  A    between atoms: S_12  and  C_13
REMARK    5  A    between atoms: C_13  and  C_14
REMARK                            x       y       z     vdW  Elec       q    Type
REMARK                         _______ _______ _______ _____ _____    ______ ____
ROOT
ATOM      1  C   UNL     1       1.020   0.367   4.632  0.00  0.00    +0.249 A 
ATOM      2  N   UNL     1       1.744  -0.129   3.658  0.00  0.00    -0.106 NA
ATOM      3  N   UNL     1       1.238   0.220   2.528  0.00  0.00    -0.101 NA
ATOM      4  C   UNL     1       0.170   0.953   2.735  0.00  0.00    +0.278 A 
ATOM      5  O   UNL     1       0.011   1.067   4.068  0.00  0.00    -0.411 OA
ENDROOT
BRANCH   1  11
ATOM      6  C   UNL     1       0.409   0.791   7.008  0.00  0.00    +0.017 A 
ATOM      7  C   UNL     1       0.639   0.626   8.357  0.00  0.00    +0.046 A 
ATOM      8  C   UNL     1       1.726  -0.120   8.792  0.00  0.00    +0.117 A 
ATOM      9  C   UNL     1       2.583  -0.708   7.871  0.00  0.00    +0.046 A 
ATOM     10  C   UNL     1       2.358  -0.553   6.520  0.00  0.00    +0.017 A 
ATOM     11  C   UNL     1       1.266   0.197   6.078  0.00  0.00    +0.039 A 
BRANCH   8  12
ATOM     12  O   UNL     1       1.952  -0.276  10.123  0.00  0.00    -0.507 OA
ATOM     13  H   UNL     1       2.812  -0.868  10.469  0.00  0.00    +0.292 HD
ENDBRANCH   8  12
ENDBRANCH   1  11
BRANCH   4  14
ATOM     14  S   UNL     1      -0.863   1.664   1.497  0.00  0.00    -0.056 S 
BRANCH  14  15
ATOM     15  C   UNL     1      -0.015   1.082   0.008  0.00  0.00    +0.175 C 
BRANCH  15  16
ATOM     16  C   UNL     1      -0.743   1.583  -1.213  0.00  0.00    +0.229 C 
ATOM     17  O   UNL     1      -1.737   2.266  -1.088  0.00  0.00    -0.275 OA
ATOM     18  N   UNL     1      -0.288   1.272  -2.443  0.00  0.00    -0.270 N 
ATOM     19  C   UNL     1      -1.019   1.645  -3.571  0.00  0.00    +0.125 A 
ATOM     20  C   UNL     1      -0.601   1.230  -4.830  0.00  0.00    +0.045 A 
ATOM     21  C   UNL     1      -1.338   1.602  -5.940  0.00  0.00    +0.019 A 
ATOM     22  C   UNL     1      -2.467   2.390  -5.753  0.00  0.00    +0.032 A 
ATOM     23  C   UNL     1      -2.820   2.770  -4.473  0.00  0.00    +0.127 A 
ATOM     24  N   UNL     1      -2.100   2.395  -3.433  0.00  0.00    -0.239 NA
ATOM     25  I   UNL     1      -3.621   2.993  -7.394  0.00  0.00    -0.042 I 
ATOM     26  H   UNL     1       0.659   0.725  -2.558  0.00  0.00    +0.156 HD
ENDBRANCH  15  16
ENDBRANCH  14  15
ENDBRANCH   4  14
TORSDOF 5
