REMARK  Name = ZINC12303219
REMARK  9 active torsions:
REMARK  status: ('A' for Active; 'I' for Inactive)
REMARK    1  A    between atoms: C_1  and  O_2
REMARK    2  A    between atoms: O_2  and  C_3
REMARK    3  A    between atoms: C_8  and  C_9
REMARK    4  A    between atoms: C_8  and  N_58
REMARK    5  A    between atoms: C_12  and  S_21
REMARK    6  A    between atoms: N_13  and  C_14
REMARK    7  A    between atoms: C_14  and  C_15
REMARK    8  A    between atoms: S_21  and  C_24
REMARK    9  A    between atoms: C_24  and  C_25
REMARK                            x       y       z     vdW  Elec       q    Type
REMARK                         _______ _______ _______ _____ _____    ______ ____
ROOT
ATOM      1  C   UNL     1      -4.740   4.164  -1.257  0.00  0.00    +0.023 A 
ATOM      2  C   UNL     1      -5.470   5.028  -0.525  0.00  0.00    +0.133 A 
ATOM      3  N   UNL     1      -4.652   5.613   0.362  0.00  0.00    -0.220 NA
ATOM      4  C   UNL     1      -3.445   5.141   0.212  0.00  0.00    +0.251 A 
ATOM      5  N   UNL     1      -3.457   4.231  -0.786  0.00  0.00    -0.313 N 
ENDROOT
BRANCH   4   6
ATOM      6  S   UNL     1      -2.033   5.612   1.155  0.00  0.00    +0.030 S 
ATOM      7  O   UNL     1      -2.560   6.060   2.397  0.00  0.00    -0.166 OA
ATOM      8  O   UNL     1      -1.168   4.486   1.099  0.00  0.00    -0.166 OA
BRANCH   6   9
ATOM      9  C   UNL     1      -1.308   7.004   0.245  0.00  0.00    +0.179 C 
BRANCH   9  10
ATOM     10  C   UNL     1      -0.061   7.500   0.981  0.00  0.00    +0.011 C 
ATOM     11  C   UNL     1      -0.090   8.924   1.539  0.00  0.00    +0.005 C 
ATOM     12  C   UNL     1       0.764   8.600   0.311  0.00  0.00    +0.005 C 
ENDBRANCH   9  10
ENDBRANCH   6   9
ENDBRANCH   4   6
BRANCH   1  13
ATOM     13  C   UNL     1      -5.242   3.289  -2.377  0.00  0.00    -0.023 C 
BRANCH  13  19
ATOM     14  C   UNL     1      -7.250  -0.274  -1.134  0.00  0.00    +0.114 C 
ATOM     15  C   UNL     1      -6.327  -0.316  -2.355  0.00  0.00    +0.013 C 
ATOM     16  C   UNL     1      -6.142   1.103  -2.897  0.00  0.00    -0.076 C 
ATOM     17  C   UNL     1      -6.452   2.049  -0.688  0.00  0.00    -0.076 C 
ATOM     18  C   UNL     1      -6.647   0.658  -0.080  0.00  0.00    +0.013 C 
ATOM     19  N   UNL     1      -5.536   1.944  -1.843  0.00  0.00    +0.383 N 
ATOM     20  H   UNL     1      -4.659   1.509  -1.533  0.00  0.00    -0.081 HD
BRANCH  14  22
ATOM     21  C   UNL     1      -8.636  -1.831   0.050  0.00  0.00    +0.194 C 
ATOM     22  O   UNL     1      -7.382  -1.589  -0.589  0.00  0.00    -0.380 OA
ENDBRANCH  14  22
ENDBRANCH  13  19
ENDBRANCH   1  13
BRANCH   5  23
ATOM     23  C   UNL     1      -2.309   3.464  -1.277  0.00  0.00    +0.156 C 
BRANCH  23  24
ATOM     24  C   UNL     1      -2.289   2.090  -0.605  0.00  0.00    +0.138 C 
ATOM     25  C   UNL     1      -1.161   1.218  -1.199  0.00  0.00    +0.035 C 
ATOM     26  C   UNL     1      -0.622   0.425   0.013  0.00  0.00    +0.031 C 
ATOM     27  C   UNL     1      -1.485   0.912   1.198  0.00  0.00    +0.160 C 
ATOM     28  O   UNL     1      -1.958   2.218   0.795  0.00  0.00    -0.375 OA
ENDBRANCH  23  24
ENDBRANCH   5  23
TORSDOF 8
