REMARK  Name = ZINC36442651
REMARK  6 active torsions:
REMARK  status: ('A' for Active; 'I' for Inactive)
REMARK    1  A    between atoms: C_1  and  C_2
REMARK    2  A    between atoms: N_11  and  C_36
REMARK    3  A    between atoms: C_17  and  C_19
REMARK    4  A    between atoms: C_23  and  S_25
REMARK    5  A    between atoms: S_25  and  N_28
REMARK    6  A    between atoms: N_28  and  C_29
REMARK                            x       y       z     vdW  Elec       q    Type
REMARK                         _______ _______ _______ _____ _____    ______ ____
ROOT
ATOM      1  C   UNL     1       1.242   1.429  -0.876  0.00  0.00    +0.044 C 
ATOM      2  C   UNL     1       1.071  -0.061  -0.725  0.00  0.00    -0.050 A 
ATOM      3  C   UNL     1       0.276  -0.761  -1.614  0.00  0.00    +0.005 A 
ATOM      4  C   UNL     1       0.121  -2.124  -1.482  0.00  0.00    +0.024 A 
ATOM      5  C   UNL     1       0.768  -2.811  -0.453  0.00  0.00    +0.040 A 
ATOM      6  C   UNL     1       1.556  -2.096   0.440  0.00  0.00    -0.023 A 
ATOM      7  C   UNL     1       1.714  -0.732   0.298  0.00  0.00    +0.009 A 
ATOM      8  C   UNL     1       2.100  -3.072   1.449  0.00  0.00    +0.025 C 
ATOM      9  C   UNL     1       3.534  -2.847   1.798  0.00  0.00    -0.069 C 
ATOM     10  N   UNL     1       4.489  -3.642   1.055  0.00  0.00    +0.378 N 
ATOM     11  C   UNL     1       4.144  -5.053   1.051  0.00  0.00    -0.077 C 
ATOM     12  C   UNL     1       2.793  -5.311   0.430  0.00  0.00    +0.005 C 
ATOM     13  C   UNL     1       1.696  -4.444   0.960  0.00  0.00    +0.086 C 
ATOM     14  N   UNL     1       0.753  -4.175  -0.146  0.00  0.00    -0.264 N 
ATOM     15  C   UNL     1      -0.005  -5.102  -0.763  0.00  0.00    +0.251 C 
ATOM     16  O   UNL     1      -0.818  -4.763  -1.601  0.00  0.00    -0.270 OA
ATOM     17  C   UNL     1       4.536  -3.159  -0.332  0.00  0.00    -0.096 C 
ATOM     18  H   UNL     1       5.402  -3.530   1.470  0.00  0.00    -0.082 HD
ENDROOT
BRANCH  15  19
ATOM     19  C   UNL     1       0.152  -6.532  -0.421  0.00  0.00    +0.039 A 
ATOM     20  C   UNL     1       0.282  -6.924   0.912  0.00  0.00    +0.013 A 
ATOM     21  C   UNL     1       0.428  -8.259   1.224  0.00  0.00    +0.003 A 
ATOM     22  C   UNL     1       0.446  -9.210   0.218  0.00  0.00    +0.029 A 
ATOM     23  C   UNL     1       0.318  -8.828  -1.105  0.00  0.00    +0.111 A 
ATOM     24  C   UNL     1       0.165  -7.496  -1.430  0.00  0.00    +0.042 A 
BRANCH  23  25
ATOM     25  S   UNL     1       0.342 -10.047  -2.378  0.00  0.00    +0.092 S 
ATOM     26  O   UNL     1       0.751  -9.384  -3.567  0.00  0.00    -0.148 OA
ATOM     27  O   UNL     1       1.038 -11.168  -1.853  0.00  0.00    -0.148 OA
BRANCH  25  28
ATOM     28  N   UNL     1      -1.223 -10.532  -2.621  0.00  0.00    -0.095 NA
BRANCH  28  29
ATOM     29  C   UNL     1      -1.512 -11.503  -3.584  0.00  0.00    +0.109 A 
ATOM     30  C   UNL     1      -0.488 -12.066  -4.334  0.00  0.00    +0.029 A 
ATOM     31  C   UNL     1      -0.777 -13.027  -5.284  0.00  0.00    +0.002 A 
ATOM     32  C   UNL     1      -2.084 -13.427  -5.491  0.00  0.00    +0.003 A 
ATOM     33  C   UNL     1      -3.107 -12.869  -4.747  0.00  0.00    +0.040 A 
ATOM     34  C   UNL     1      -2.825 -11.912  -3.790  0.00  0.00    +0.148 A 
ATOM     35  F   UNL     1      -3.825 -11.371  -3.059  0.00  0.00    -0.203 F 
ENDBRANCH  28  29
ENDBRANCH  25  28
ENDBRANCH  23  25
ENDBRANCH  15  19
TORSDOF 4
