REMARK  Name = ZINC38486882
REMARK  7 active torsions:
REMARK  status: ('A' for Active; 'I' for Inactive)
REMARK    1  A    between atoms: C_4  and  C_7
REMARK    2  A    between atoms: C_7  and  C_8
REMARK    3  A    between atoms: C_8  and  N_9
REMARK    4  A    between atoms: C_10  and  C_12
REMARK    5  A    between atoms: C_12  and  S_13
REMARK    6  A    between atoms: S_13  and  C_14
REMARK    7  A    between atoms: C_24  and  C_26
REMARK                            x       y       z     vdW  Elec       q    Type
REMARK                         _______ _______ _______ _____ _____    ______ ____
ROOT
ATOM      1  C   UNL     1       9.440  -3.908   4.039  0.00  0.00    +0.196 A 
ATOM      2  N   UNL     1      10.021  -4.227   2.902  0.00  0.00    -0.122 NA
ATOM      3  N   UNL     1      11.126  -4.848   3.127  0.00  0.00    -0.126 NA
ATOM      4  C   UNL     1      11.317  -4.961   4.419  0.00  0.00    +0.187 A 
ATOM      5  N   UNL     1      10.244  -4.357   5.042  0.00  0.00    -0.274 N 
ATOM      6  C   UNL     1      10.180  -4.320   6.423  0.00  0.00    +0.115 A 
ATOM      7  C   UNL     1      11.133  -4.853   7.176  0.00  0.00    +0.131 A 
ATOM      8  N   UNL     1      12.241  -5.473   6.621  0.00  0.00    -0.234 N 
ATOM      9  C   UNL     1      12.364  -5.553   5.256  0.00  0.00    +0.112 A 
ATOM     10  C   UNL     1      13.541  -6.211   4.984  0.00  0.00    +0.061 A 
ATOM     11  C   UNL     1      14.130  -6.548   6.212  0.00  0.00    +0.094 A 
ATOM     12  N   UNL     1      13.359  -6.098   7.184  0.00  0.00    -0.166 NA
ENDROOT
BRANCH  11  13
ATOM     13  C   UNL     1      15.415  -7.269   6.388  0.00  0.00    +0.002 A 
ATOM     14  C   UNL     1      16.151  -7.668   5.274  0.00  0.00    +0.013 A 
ATOM     15  C   UNL     1      17.345  -8.338   5.442  0.00  0.00    +0.039 A 
ATOM     16  C   UNL     1      17.813  -8.615   6.716  0.00  0.00    +0.123 A 
ATOM     17  C   UNL     1      17.084  -8.220   7.827  0.00  0.00    +0.039 A 
ATOM     18  C   UNL     1      15.893  -7.544   7.668  0.00  0.00    +0.013 A 
ATOM     19  F   UNL     1      18.982  -9.272   6.877  0.00  0.00    -0.205 F 
ENDBRANCH  11  13
BRANCH   1  20
ATOM     20  S   UNL     1       7.911  -3.053   4.227  0.00  0.00    -0.076 S 
BRANCH  20  21
ATOM     21  C   UNL     1       7.365  -2.749   2.524  0.00  0.00    +0.173 C 
BRANCH  21  23
ATOM     22  N   UNL     1       5.450  -1.678   1.382  0.00  0.00    -0.314 N 
ATOM     23  C   UNL     1       6.050  -2.013   2.541  0.00  0.00    +0.223 C 
ATOM     24  O   UNL     1       5.532  -1.722   3.599  0.00  0.00    -0.275 OA
ATOM     25  H   UNL     1       5.864  -1.911   0.536  0.00  0.00    +0.149 HD
BRANCH  22  26
ATOM     26  C   UNL     1       4.171  -0.963   1.399  0.00  0.00    +0.109 C 
BRANCH  26  27
ATOM     27  C   UNL     1       3.711  -0.707  -0.038  0.00  0.00    +0.054 C 
BRANCH  27  31
ATOM     28  C   UNL     1      -0.017   1.378   0.010  0.00  0.00    +0.000 A 
ATOM     29  C   UNL     1       1.171   2.086   0.002  0.00  0.00    +0.000 A 
ATOM     30  C   UNL     1       2.377   1.411  -0.013  0.00  0.00    +0.004 A 
ATOM     31  C   UNL     1       2.396   0.029  -0.020  0.00  0.00    -0.046 A 
ATOM     32  C   UNL     1       1.208  -0.679  -0.012  0.00  0.00    +0.004 A 
ATOM     33  C   UNL     1       0.002  -0.004   0.002  0.00  0.00    +0.000 A 
ENDBRANCH  27  31
ENDBRANCH  26  27
ENDBRANCH  22  26
ENDBRANCH  21  23
ENDBRANCH  20  21
ENDBRANCH   1  20
TORSDOF 7
