REMARK  Name = ZINC32753401
REMARK  8 active torsions:
REMARK  status: ('A' for Active; 'I' for Inactive)
REMARK    1  A    between atoms: C_1  and  C_2
REMARK    2  A    between atoms: C_2  and  C_3
REMARK    3  A    between atoms: C_10  and  C_15
REMARK    4  A    between atoms: C_15  and  N_16
REMARK    5  A    between atoms: C_21  and  C_23
REMARK    6  A    between atoms: C_23  and  O_25
REMARK    7  A    between atoms: O_25  and  C_26
REMARK    8  A    between atoms: C_26  and  C_27
REMARK                            x       y       z     vdW  Elec       q    Type
REMARK                         _______ _______ _______ _____ _____    ______ ____
ROOT
ATOM      1  C   UNL     1      -2.743  -2.246  -5.356  0.00  0.00    -0.026 A 
ATOM      2  C   UNL     1      -3.764  -1.321  -5.299  0.00  0.00    +0.052 A 
ATOM      3  C   UNL     1      -3.881  -0.483  -4.197  0.00  0.00    +0.140 A 
ATOM      4  C   UNL     1      -2.948  -0.584  -3.150  0.00  0.00    +0.020 A 
ATOM      5  C   UNL     1      -1.921  -1.530  -3.218  0.00  0.00    +0.032 A 
ATOM      6  C   UNL     1      -1.824  -2.351  -4.320  0.00  0.00    +0.045 A 
ATOM      7 CL   UNL     1      -0.546  -3.522  -4.415  0.00  0.00    -0.083 Cl
ATOM      8  C   UNL     1      -3.084   0.302  -1.990  0.00  0.00    -0.046 A 
ATOM      9  C   UNL     1      -4.106   1.195  -1.981  0.00  0.00    +0.094 A 
ATOM     10  C   UNL     1      -5.003   1.245  -3.070  0.00  0.00    +0.337 A 
ATOM     11  O   UNL     1      -5.916   2.051  -3.050  0.00  0.00    -0.245 OA
ATOM     12  O   UNL     1      -4.875   0.428  -4.126  0.00  0.00    -0.422 OA
ENDROOT
BRANCH   1  14
ATOM     13  C   UNL     1      -1.548  -2.607  -7.499  0.00  0.00    +0.009 C 
ATOM     14  C   UNL     1      -2.622  -3.151  -6.555  0.00  0.00    +0.033 C 
ENDBRANCH   1  14
BRANCH   8  15
ATOM     15  C   UNL     1      -2.111   0.227  -0.841  0.00  0.00    -0.041 C 
BRANCH  15  16
ATOM     16  N   UNL     1      -0.944   1.070  -1.132  0.00  0.00    +0.391 N 
ATOM     17  C   UNL     1      -0.121   0.480  -2.196  0.00  0.00    -0.077 C 
ATOM     18  C   UNL     1       1.000   1.451  -2.572  0.00  0.00    -0.019 C 
ATOM     19  C   UNL     1       1.858   1.736  -1.336  0.00  0.00    -0.003 C 
ATOM     20  C   UNL     1       0.969   2.304  -0.227  0.00  0.00    -0.004 C 
ATOM     21  C   UNL     1      -0.152   1.309   0.081  0.00  0.00    +0.043 C 
ATOM     22  H   UNL     1      -1.309   2.043  -1.491  0.00  0.00    -0.080 HD
BRANCH  21  23
ATOM     23  C   UNL     1      -1.042   1.873   1.159  0.00  0.00    +0.293 C 
ATOM     24  O   UNL     1      -2.011   2.529   0.860  0.00  0.00    -0.253 OA
BRANCH  23  25
ATOM     25  O   UNL     1      -0.758   1.646   2.451  0.00  0.00    -0.466 OA
BRANCH  25  26
ATOM     26  C   UNL     1      -1.659   2.220   3.435  0.00  0.00    +0.228 C 
ATOM     27  C   UNL     1      -1.176   1.858   4.841  0.00  0.00    +0.048 C 
ENDBRANCH  25  26
ENDBRANCH  23  25
ENDBRANCH  21  23
ENDBRANCH  15  16
ENDBRANCH   8  15
TORSDOF 6
