REMARK  Name = ZINC66927514
REMARK  7 active torsions:
REMARK  status: ('A' for Active; 'I' for Inactive)
REMARK    1  A    between atoms: C_1  and  C_2
REMARK    2  A    between atoms: C_2  and  C_4
REMARK    3  A    between atoms: C_2  and  C_7
REMARK    4  A    between atoms: C_4  and  S_5
REMARK    5  A    between atoms: S_5  and  C_6
REMARK    6  A    between atoms: N_9  and  N_10
REMARK    7  A    between atoms: C_11  and  C_13
REMARK                            x       y       z     vdW  Elec       q    Type
REMARK                         _______ _______ _______ _____ _____    ______ ____
ROOT
ATOM      1  N   UNL     1      -3.570  -0.691  -0.978  0.00  0.00    -0.230 N 
ATOM      2  C   UNL     1      -4.414  -0.371  -1.980  0.00  0.00    +0.268 C 
ATOM      3  O   UNL     1      -4.034   0.339  -2.892  0.00  0.00    -0.268 OA
ATOM      4  H   UNL     1      -3.873  -1.257  -0.251  0.00  0.00    +0.173 HD
ENDROOT
BRANCH   2   5
ATOM      5  C   UNL     1      -5.791  -0.879  -1.969  0.00  0.00    +0.095 A 
ATOM      6  C   UNL     1      -6.778  -0.673  -2.883  0.00  0.00    +0.068 A 
ATOM      7  C   UNL     1      -8.045  -1.255  -2.691  0.00  0.00    +0.008 A 
ATOM      8  C   UNL     1      -9.191  -1.157  -3.522  0.00  0.00    +0.013 A 
ATOM      9  C   UNL     1     -10.347  -1.785  -3.188  0.00  0.00    +0.039 A 
ATOM     10  C   UNL     1     -10.455  -2.544  -2.026  0.00  0.00    +0.124 A 
ATOM     11  C   UNL     1      -9.362  -2.665  -1.188  0.00  0.00    +0.054 A 
ATOM     12  C   UNL     1      -8.182  -2.032  -1.516  0.00  0.00    +0.024 A 
ATOM     13  S   UNL     1      -6.580  -1.926  -0.759  0.00  0.00    -0.082 S 
ATOM     14  F   UNL     1     -11.620  -3.157  -1.719  0.00  0.00    -0.205 F 
ATOM     15 CL   UNL     1      -6.474   0.306  -4.284  0.00  0.00    -0.082 Cl
ENDBRANCH   2   5
BRANCH   1  18
ATOM     16  C   UNL     1      -1.412  -0.526   0.013  0.00  0.00    +0.233 C 
ATOM     17  O   UNL     1      -1.790  -1.233   0.922  0.00  0.00    -0.274 OA
ATOM     18  N   UNL     1      -2.256  -0.206  -0.988  0.00  0.00    -0.234 N 
ATOM     19  H   UNL     1      -1.953   0.360  -1.716  0.00  0.00    +0.173 HD
BRANCH  16  21
ATOM     20  C   UNL     1      -0.019   1.526   0.010  0.00  0.00    +0.018 C 
ATOM     21  C   UNL     1       0.002  -0.004   0.002  0.00  0.00    +0.083 C 
BRANCH  21  22
ATOM     22  C   UNL     1       0.742  -0.511   1.242  0.00  0.00    +0.081 C 
BRANCH  22  23
ATOM     23  S   UNL     1       2.482  -0.007   1.155  0.00  0.00    -0.163 S 
ATOM     24  C   UNL     1       3.209  -0.676   2.676  0.00  0.00    +0.084 C 
ENDBRANCH  22  23
ENDBRANCH  21  22
ENDBRANCH  16  21
ENDBRANCH   1  18
TORSDOF 5
