REMARK  Name = ZINC49111654
REMARK  8 active torsions:
REMARK  status: ('A' for Active; 'I' for Inactive)
REMARK    1  A    between atoms: C_3  and  C_8
REMARK    2  A    between atoms: C_12  and  N_18
REMARK    3  A    between atoms: C_13  and  C_15
REMARK    4  A    between atoms: C_19  and  C_21
REMARK    5  A    between atoms: C_21  and  C_23
REMARK    6  A    between atoms: C_21  and  N_36
REMARK    7  A    between atoms: C_23  and  C_24
REMARK    8  A    between atoms: C_26  and  C_29
REMARK                            x       y       z     vdW  Elec       q    Type
REMARK                         _______ _______ _______ _____ _____    ______ ____
ROOT
ATOM      1  N   UNL     1       7.621   3.541   0.134  0.00  0.00    -0.290 N 
ATOM      2  C   UNL     1       8.216   3.705   1.331  0.00  0.00    +0.203 C 
ATOM      3  O   UNL     1       7.707   3.243   2.330  0.00  0.00    -0.277 OA
ATOM      4  H   UNL     1       8.063   3.846  -0.674  0.00  0.00    +0.154 HD
ENDROOT
BRANCH   1   8
ATOM      5  C   UNL     1       3.981   1.504   0.223  0.00  0.00    +0.024 C 
ATOM      6  C   UNL     1       3.917   3.035   0.273  0.00  0.00    +0.014 C 
ATOM      7  C   UNL     1       5.249   3.562   0.809  0.00  0.00    +0.052 C 
ATOM      8  C   UNL     1       6.390   2.941   0.057  0.00  0.00    +0.021 C 
ATOM      9  C   UNL     1       6.270   1.835  -0.685  0.00  0.00    +0.058 C 
ATOM     10  C   UNL     1       4.979   1.089  -0.860  0.00  0.00    +0.052 C 
BRANCH   5  13
ATOM     11  C   UNL     1       0.741  -0.417   0.477  0.00  0.00    +0.003 A 
ATOM     12  C   UNL     1       1.991   0.091   0.777  0.00  0.00    +0.004 A 
ATOM     13  C   UNL     1       2.619   0.950  -0.105  0.00  0.00    -0.041 A 
ATOM     14  C   UNL     1       1.997   1.301  -1.289  0.00  0.00    +0.042 A 
ATOM     15  C   UNL     1       0.745   0.793  -1.590  0.00  0.00    +0.124 A 
ATOM     16  C   UNL     1       0.117  -0.068  -0.705  0.00  0.00    +0.038 A 
ATOM     17  F   UNL     1       0.137   1.136  -2.746  0.00  0.00    -0.205 F 
ENDBRANCH   5  13
BRANCH   9  18
ATOM     18  C   UNL     1       7.420   1.340  -1.335  0.00  0.00    +0.384 C 
ATOM     19  O   UNL     1       8.512   1.857  -1.128  0.00  0.00    -0.241 OA
ATOM     20  O   UNL     1       7.327   0.392  -2.106  0.00  0.00    -0.241 OA
ENDBRANCH   9  18
ENDBRANCH   1   8
BRANCH   2  21
ATOM     21  C   UNL     1       9.515   4.463   1.429  0.00  0.00    +0.022 C 
BRANCH  21  22
ATOM     22  N   UNL     1      10.194   4.112   2.683  0.00  0.00    +0.386 N 
ATOM     23  H   UNL     1       9.603   4.354   3.465  0.00  0.00    -0.089 HD
ATOM     24  H   UNL     1      10.381   3.121   2.698  0.00  0.00    -0.089 HD
ATOM     25  H   UNL     1      11.063   4.620   2.749  0.00  0.00    -0.089 HD
ENDBRANCH  21  22
BRANCH  21  26
ATOM     26  C   UNL     1       9.231   5.966   1.407  0.00  0.00    +0.092 C 
BRANCH  26  27
ATOM     27  C   UNL     1      10.534   6.723   1.380  0.00  0.00    +0.227 A 
ATOM     28  N   UNL     1      11.178   7.093   0.310  0.00  0.00    -0.190 NA
ATOM     29  C   UNL     1      12.302   7.747   0.653  0.00  0.00    +0.220 A 
ATOM     30  N   UNL     1      12.376   7.797   1.960  0.00  0.00    -0.054 NA
ATOM     31  O   UNL     1      11.221   7.136   2.453  0.00  0.00    -0.338 OA
BRANCH  29  32
ATOM     32  C   UNL     1      13.294   8.318  -0.293  0.00  0.00    +0.111 A 
ATOM     33  C   UNL     1      14.422   8.970   0.200  0.00  0.00    +0.034 A 
ATOM     34  C   UNL     1      15.338   9.498  -0.693  0.00  0.00    +0.042 A 
ATOM     35  C   UNL     1      15.095   9.355  -2.053  0.00  0.00    +0.141 A 
ATOM     36  C   UNL     1      13.952   8.695  -2.473  0.00  0.00    +0.149 A 
ATOM     37  N   UNL     1      13.100   8.198  -1.599  0.00  0.00    -0.249 NA
ATOM     38  F   UNL     1      15.965   9.856  -2.958  0.00  0.00    -0.204 F 
ENDBRANCH  29  32
ENDBRANCH  26  27
ENDBRANCH  21  26
ENDBRANCH   2  21
TORSDOF 8
