REMARK  Name = ZINC13624721
REMARK  4 active torsions:
REMARK  status: ('A' for Active; 'I' for Inactive)
REMARK    1  A    between atoms: C_1  and  N_2
REMARK    2  A    between atoms: C_5  and  C_10
REMARK    3  A    between atoms: C_13  and  O_16
REMARK    4  A    between atoms: N_19  and  C_21
REMARK                            x       y       z     vdW  Elec       q    Type
REMARK                         _______ _______ _______ _____ _____    ______ ____
ROOT
ATOM      1  C   UNL     1      -3.341   8.084  -1.064  0.00  0.00    +0.139 C 
ATOM      2  N   UNL     1      -2.207   7.234  -0.694  0.00  0.00    -0.260 N 
ATOM      3  C   UNL     1      -1.319   6.881  -1.670  0.00  0.00    +0.042 C 
ATOM      4  C   UNL     1      -0.254   6.101  -1.396  0.00  0.00    +0.058 C 
ATOM      5  C   UNL     1      -0.074   5.628   0.032  0.00  0.00    +0.142 C 
ATOM      6  N   UNL     1      -1.086   6.063   1.010  0.00  0.00    -0.288 N 
ATOM      7  C   UNL     1      -2.097   6.845   0.583  0.00  0.00    +0.307 C 
ATOM      8  O   UNL     1      -2.937   7.209   1.383  0.00  0.00    -0.252 OA
ATOM      9  C   UNL     1       0.506   5.881  -2.564  0.00  0.00    +0.251 C 
ATOM     10  O   UNL     1       1.522   5.212  -2.608  0.00  0.00    -0.270 OA
ATOM     11  N   UNL     1      -0.039   6.507  -3.623  0.00  0.00    -0.262 N 
ATOM     12  C   UNL     1      -1.247   7.197  -3.147  0.00  0.00    +0.165 C 
ATOM     13  H   UNL     1      -1.026   5.793   1.940  0.00  0.00    +0.151 HD
ENDROOT
BRANCH  11  14
ATOM     14  C   UNL     1       0.453   6.502  -4.933  0.00  0.00    +0.037 A 
ATOM     15  C   UNL     1      -0.222   7.192  -5.931  0.00  0.00    +0.025 A 
ATOM     16  C   UNL     1       0.269   7.191  -7.222  0.00  0.00    +0.022 A 
ATOM     17  C   UNL     1       1.424   6.491  -7.524  0.00  0.00    +0.041 A 
ATOM     18  C   UNL     1       2.095   5.798  -6.532  0.00  0.00    +0.022 A 
ATOM     19  C   UNL     1       1.612   5.801  -5.238  0.00  0.00    +0.025 A 
ATOM     20 CL   UNL     1       2.034   6.485  -9.149  0.00  0.00    -0.084 Cl
ENDBRANCH  11  14
BRANCH   5  21
ATOM     21  C   UNL     1      -0.054   4.121   0.024  0.00  0.00    -0.022 A 
ATOM     22  C   UNL     1       1.153   3.447   0.009  0.00  0.00    +0.009 A 
ATOM     23  C   UNL     1       1.175   2.066   0.002  0.00  0.00    +0.046 A 
ATOM     24  C   UNL     1      -0.016   1.355   0.009  0.00  0.00    +0.117 A 
ATOM     25  C   UNL     1      -1.226   2.033   0.019  0.00  0.00    +0.046 A 
ATOM     26  C   UNL     1      -1.242   3.414   0.031  0.00  0.00    +0.009 A 
BRANCH  24  27
ATOM     27  O   UNL     1       0.002  -0.004   0.002  0.00  0.00    -0.507 OA
ATOM     28  H   UNL     1       0.016  -0.402   0.883  0.00  0.00    +0.292 HD
ENDBRANCH  24  27
ENDBRANCH   5  21
TORSDOF 3
