REMARK  Name = ZINC32803732
REMARK  5 active torsions:
REMARK  status: ('A' for Active; 'I' for Inactive)
REMARK    1  A    between atoms: C_1  and  C_2
REMARK    2  A    between atoms: N_6  and  C_29
REMARK    3  A    between atoms: C_8  and  C_10
REMARK    4  A    between atoms: N_12  and  N_13
REMARK    5  A    between atoms: C_20  and  C_23
REMARK                            x       y       z     vdW  Elec       q    Type
REMARK                         _______ _______ _______ _____ _____    ______ ____
ROOT
ATOM      1  C   UNL     1       0.528   0.246   3.722  0.00  0.00    +0.297 C 
ATOM      2  O   UNL     1       1.733   0.397   3.782  0.00  0.00    -0.265 OA
ATOM      3  N   UNL     1      -0.237   0.496   4.803  0.00  0.00    -0.213 N 
ATOM      4  H   UNL     1      -1.199   0.375   4.755  0.00  0.00    +0.176 HD
ENDROOT
BRANCH   3   5
ATOM      5  N   UNL     1       0.356   0.929   5.996  0.00  0.00    -0.212 N 
ATOM      6  C   UNL     1       1.037   0.039   6.762  0.00  0.00    +0.223 A 
ATOM      7  N   UNL     1       1.603   0.406   7.880  0.00  0.00    -0.228 NA
ATOM      8  C   UNL     1       1.531   1.664   8.305  0.00  0.00    +0.116 A 
ATOM      9  C   UNL     1       0.848   2.655   7.580  0.00  0.00    +0.081 A 
ATOM     10  C   UNL     1       0.243   2.221   6.357  0.00  0.00    +0.280 A 
ATOM     11  O   UNL     1      -0.368   3.009   5.656  0.00  0.00    -0.265 OA
ATOM     12  C   UNL     1       0.863   3.982   8.182  0.00  0.00    +0.004 A 
ATOM     13  C   UNL     1       1.512   4.157   9.358  0.00  0.00    +0.056 A 
ATOM     14  S   UNL     1       2.146   2.532   9.725  0.00  0.00    -0.076 S 
BRANCH  12  15
ATOM     15  C   UNL     1       0.180   5.119   7.520  0.00  0.00    -0.017 A 
ATOM     16  C   UNL     1       0.410   5.384   6.170  0.00  0.00    +0.008 A 
ATOM     17  C   UNL     1      -0.228   6.444   5.559  0.00  0.00    +0.001 A 
ATOM     18  C   UNL     1      -1.095   7.243   6.283  0.00  0.00    +0.000 A 
ATOM     19  C   UNL     1      -1.327   6.986   7.622  0.00  0.00    +0.001 A 
ATOM     20  C   UNL     1      -0.699   5.925   8.242  0.00  0.00    +0.008 A 
ENDBRANCH  12  15
ENDBRANCH   3   5
BRANCH   1  27
ATOM     21  C   UNL     1       0.079   1.231  -0.318  0.00  0.00    +0.038 C 
ATOM     22  C   UNL     1       0.095  -0.263   0.013  0.00  0.00    +0.157 C 
ATOM     23  C   UNL     1      -1.319  -0.793   0.045  0.00  0.00    +0.259 C 
ATOM     24  O   UNL     1      -1.845  -1.195  -0.972  0.00  0.00    -0.271 OA
ATOM     25  N   UNL     1      -1.991  -0.816   1.213  0.00  0.00    -0.157 N 
ATOM     26  N   UNL     1      -1.388  -0.374   2.395  0.00  0.00    -0.152 NA
ATOM     27  C   UNL     1      -0.096  -0.210   2.466  0.00  0.00    +0.202 C 
ATOM     28  N   UNL     1       0.693  -0.471   1.341  0.00  0.00    -0.313 N 
ATOM     29  H   UNL     1       1.607  -0.782   1.433  0.00  0.00    +0.148 HD
BRANCH  25  30
ATOM     30  C   UNL     1      -3.308  -1.288   1.244  0.00  0.00    +0.060 A 
ATOM     31  C   UNL     1      -3.693  -2.215   2.204  0.00  0.00    +0.025 A 
ATOM     32  C   UNL     1      -4.994  -2.679   2.231  0.00  0.00    +0.002 A 
ATOM     33  C   UNL     1      -5.913  -2.220   1.305  0.00  0.00    +0.000 A 
ATOM     34  C   UNL     1      -5.532  -1.298   0.347  0.00  0.00    +0.002 A 
ATOM     35  C   UNL     1      -4.235  -0.826   0.318  0.00  0.00    +0.025 A 
ENDBRANCH  25  30
ENDBRANCH   1  27
TORSDOF 4
