REMARK  Name = ZINC13078079
REMARK  10 active torsions:
REMARK  status: ('A' for Active; 'I' for Inactive)
REMARK    1  A    between atoms: C_1  and  C_2
REMARK    2  A    between atoms: C_3  and  C_7
REMARK    3  A    between atoms: C_10  and  S_27
REMARK    4  A    between atoms: N_11  and  N_12
REMARK    5  A    between atoms: C_13  and  C_14
REMARK    6  A    between atoms: C_19  and  O_20
REMARK    7  A    between atoms: O_20  and  C_21
REMARK    8  A    between atoms: C_23  and  C_26
REMARK    9  A    between atoms: S_27  and  C_28
REMARK   10  A    between atoms: C_28  and  C_29
REMARK                            x       y       z     vdW  Elec       q    Type
REMARK                         _______ _______ _______ _____ _____    ______ ____
ROOT
ATOM      1  C   UNL     1       5.549   7.362   0.045  0.00  0.00    +0.189 A 
ATOM      2  N   UNL     1       6.032   8.338   0.779  0.00  0.00    -0.126 NA
ATOM      3  N   UNL     1       6.192   7.941   1.991  0.00  0.00    -0.120 NA
ATOM      4  C   UNL     1       5.817   6.688   2.110  0.00  0.00    +0.213 A 
ATOM      5  N   UNL     1       5.391   6.274   0.875  0.00  0.00    -0.187 N 
ENDROOT
BRANCH   1   8
ATOM      6  C   UNL     1       5.914   9.842  -1.838  0.00  0.00    +0.087 C 
ATOM      7  C   UNL     1       5.385   8.486  -2.230  0.00  0.00    +0.113 A 
ATOM      8  C   UNL     1       5.233   7.420  -1.398  0.00  0.00    +0.062 A 
ATOM      9  C   UNL     1       4.696   6.338  -2.232  0.00  0.00    +0.053 A 
ATOM     10  C   UNL     1       4.569   6.850  -3.468  0.00  0.00    +0.196 A 
ATOM     11  O   UNL     1       4.983   8.126  -3.458  0.00  0.00    -0.467 OA
ENDBRANCH   1   8
BRANCH   5  12
ATOM     12  N   UNL     1       4.901   5.008   0.528  0.00  0.00    -0.170 NA
ATOM     13  C   UNL     1       3.631   4.757   0.615  0.00  0.00    +0.145 C 
BRANCH  13  14
ATOM     14  C   UNL     1       3.116   3.425   0.250  0.00  0.00    +0.040 A 
ATOM     15  C   UNL     1       1.751   3.155   0.344  0.00  0.00    +0.059 A 
ATOM     16  C   UNL     1       1.263   1.901   0.000  0.00  0.00    +0.125 A 
ATOM     17  C   UNL     1       2.152   0.921  -0.428  0.00  0.00    +0.001 A 
ATOM     18  C   UNL     1       3.502   1.179  -0.527  0.00  0.00    +0.053 A 
ATOM     19  C   UNL     1       3.998   2.429  -0.190  0.00  0.00    +0.129 A 
ATOM     20  C   UNL     1       1.336  -0.326  -0.713  0.00  0.00    +0.083 C 
ATOM     21  C   UNL     1       0.002  -0.004   0.002  0.00  0.00    +0.175 C 
ATOM     22  O   UNL     1      -0.017   1.433   0.010  0.00  0.00    -0.488 OA
ATOM     23  C   UNL     1       0.006  -0.554   1.430  0.00  0.00    +0.052 C 
BRANCH  19  24
ATOM     24  O   UNL     1       5.329   2.687  -0.288  0.00  0.00    -0.494 OA
ATOM     25  C   UNL     1       6.164   1.622  -0.745  0.00  0.00    +0.277 C 
ENDBRANCH  19  24
ENDBRANCH  13  14
ENDBRANCH   5  12
BRANCH   4  26
ATOM     26  S   UNL     1       5.854   5.721   3.582  0.00  0.00    -0.073 S 
BRANCH  26  27
ATOM     27  C   UNL     1       6.522   6.939   4.742  0.00  0.00    +0.202 C 
BRANCH  27  28
ATOM     28  C   UNL     1       6.646   6.316   6.109  0.00  0.00    +0.366 C 
ATOM     29  O   UNL     1       6.316   5.167   6.281  0.00  0.00    -0.245 OA
ATOM     30  O   UNL     1       7.122   7.039   7.135  0.00  0.00    -0.245 OA
ENDBRANCH  27  28
ENDBRANCH  26  27
ENDBRANCH   4  26
TORSDOF 7
