REMARK  Name = ZINC20205937
REMARK  8 active torsions:
REMARK  status: ('A' for Active; 'I' for Inactive)
REMARK    1  A    between atoms: C_1  and  O_2
REMARK    2  A    between atoms: O_2  and  C_3
REMARK    3  A    between atoms: C_5  and  C_14
REMARK    4  A    between atoms: C_8  and  O_9
REMARK    5  A    between atoms: O_9  and  S_10
REMARK    6  A    between atoms: S_10  and  C_13
REMARK    7  A    between atoms: C_25  and  S_26
REMARK    8  A    between atoms: S_26  and  C_29
REMARK                            x       y       z     vdW  Elec       q    Type
REMARK                         _______ _______ _______ _____ _____    ______ ____
ROOT
ATOM      1  C   UNL     1       2.863   0.560  -3.913  0.00  0.00    +0.024 C 
ATOM      2  C   UNL     1       3.911   0.063  -4.655  0.00  0.00    +0.079 C 
ATOM      3  C   UNL     1       4.530   0.844  -5.765  0.00  0.00    +0.138 C 
ATOM      4  N   UNL     1       4.623   2.146  -5.763  0.00  0.00    -0.284 NA
ATOM      5  N   UNL     1       5.006   0.033  -6.815  0.00  0.00    -0.201 N 
ATOM      6  C   UNL     1       5.311  -1.284  -6.541  0.00  0.00    +0.183 C 
ATOM      7  N   UNL     1       5.111  -1.915  -5.406  0.00  0.00    -0.152 NA
ATOM      8  C   UNL     1       4.491  -1.278  -4.392  0.00  0.00    +0.273 C 
ATOM      9  O   UNL     1       4.404  -1.790  -3.288  0.00  0.00    -0.268 OA
ATOM     10  S   UNL     1       5.950  -1.834  -7.979  0.00  0.00    +0.049 S 
ATOM     11  N   UNL     1       5.730  -0.462  -8.917  0.00  0.00    -0.174 NA
ATOM     12  C   UNL     1       5.216   0.404  -8.100  0.00  0.00    +0.257 C 
ATOM     13  H   UNL     1       4.279   2.655  -5.013  0.00  0.00    +0.188 HD
ENDROOT
BRANCH   1  16
ATOM     14  C   UNL     1       1.147  -0.639  -0.805  0.00  0.00    +0.165 A 
ATOM     15  C   UNL     1       1.806   0.182  -1.696  0.00  0.00    +0.057 A 
ATOM     16  C   UNL     1       2.164  -0.306  -2.961  0.00  0.00    -0.021 A 
ATOM     17  C   UNL     1       1.849  -1.627  -3.312  0.00  0.00    +0.012 A 
ATOM     18  C   UNL     1       1.192  -2.438  -2.415  0.00  0.00    +0.053 A 
ATOM     19  C   UNL     1       0.843  -1.954  -1.160  0.00  0.00    +0.198 A 
BRANCH  14  21
ATOM     20  C   UNL     1       1.141   1.186   0.719  0.00  0.00    +0.277 C 
ATOM     21  O   UNL     1       0.799  -0.169   0.423  0.00  0.00    -0.491 OA
ENDBRANCH  14  21
BRANCH  19  22
ATOM     22  O   UNL     1       0.200  -2.761  -0.278  0.00  0.00    -0.343 OA
BRANCH  22  23
ATOM     23  S   UNL     1      -1.317  -2.709  -0.384  0.00  0.00    +0.118 S 
ATOM     24  O   UNL     1      -1.785  -3.400   0.767  0.00  0.00    -0.137 OA
ATOM     25  O   UNL     1      -1.620  -1.335  -0.577  0.00  0.00    -0.137 OA
ATOM     26  C   UNL     1      -1.713  -3.653  -1.882  0.00  0.00    +0.242 C 
ENDBRANCH  22  23
ENDBRANCH  19  22
ENDBRANCH   1  16
BRANCH  12  27
ATOM     27  S   UNL     1       4.800   2.026  -8.649  0.00  0.00    +0.026 S 
ATOM     28  O   UNL     1       4.726   1.921 -10.065  0.00  0.00    -0.167 OA
ATOM     29  O   UNL     1       3.655   2.384  -7.888  0.00  0.00    -0.167 OA
ATOM     30  C   UNL     1       6.214   3.057  -8.172  0.00  0.00    +0.203 C 
ENDBRANCH  12  27
TORSDOF 5
