REMARK  Name = ZINC39604281
REMARK  9 active torsions:
REMARK  status: ('A' for Active; 'I' for Inactive)
REMARK    1  A    between atoms: C_1  and  C_2
REMARK    2  A    between atoms: C_2  and  O_3
REMARK    3  A    between atoms: O_3  and  C_4
REMARK    4  A    between atoms: C_4  and  C_6
REMARK    5  A    between atoms: C_6  and  C_7
REMARK    6  A    between atoms: C_7  and  N_8
REMARK    7  A    between atoms: C_9  and  C_11
REMARK    8  A    between atoms: C_22  and  C_24
REMARK    9  A    between atoms: N_28  and  C_29
REMARK                            x       y       z     vdW  Elec       q    Type
REMARK                         _______ _______ _______ _____ _____    ______ ____
ROOT
ATOM      1  C   UNL     1       3.528  -6.170   4.115  0.00  0.00    +0.100 C 
ATOM      2  C   UNL     1       5.057  -6.053   4.309  0.00  0.00    +0.121 C 
ATOM      3  N   UNL     1       5.426  -7.247   5.106  0.00  0.00    -0.295 N 
ATOM      4  C   UNL     1       4.587  -8.335   4.548  0.00  0.00    +0.115 C 
ATOM      5  C   UNL     1       3.224  -7.670   4.272  0.00  0.00    -0.004 C 
ATOM      6  C   UNL     1       2.619  -8.223   2.986  0.00  0.00    -0.010 C 
ATOM      7  C   UNL     1       2.271  -9.701   3.185  0.00  0.00    -0.082 C 
ATOM      8  N   UNL     1       1.320  -9.836   4.295  0.00  0.00    +0.379 N 
ATOM      9  C   UNL     1       1.944  -9.388   5.546  0.00  0.00    -0.082 C 
ATOM     10  C   UNL     1       2.278  -7.897   5.447  0.00  0.00    -0.010 C 
ATOM     11  C   UNL     1       6.321  -7.326   6.110  0.00  0.00    +0.265 C 
ATOM     12  O   UNL     1       6.660  -8.413   6.539  0.00  0.00    -0.268 OA
ATOM     13  H   UNL     1       0.504  -9.274   4.108  0.00  0.00    -0.086 HD
ATOM     14  H   UNL     1       1.046 -10.803   4.386  0.00  0.00    -0.086 HD
ENDROOT
BRANCH  11  15
ATOM     15  C   UNL     1       6.887  -6.100   6.686  0.00  0.00    +0.124 A 
ATOM     16  C   UNL     1       6.396  -4.831   6.557  0.00  0.00    +0.143 A 
ATOM     17  N   UNL     1       7.203  -4.012   7.232  0.00  0.00    -0.243 NA
ATOM     18  C   UNL     1       8.173  -4.700   7.779  0.00  0.00    +0.199 A 
ATOM     19  N   UNL     1       8.018  -6.001   7.473  0.00  0.00    -0.330 N 
ATOM     20  C   UNL     1       8.887  -7.103   7.894  0.00  0.00    +0.150 C 
ENDBRANCH  11  15
BRANCH   1  22
ATOM     21  N   UNL     1       1.891  -5.233   2.516  0.00  0.00    -0.314 N 
ATOM     22  C   UNL     1       3.136  -5.696   2.739  0.00  0.00    +0.218 C 
ATOM     23  O   UNL     1       3.942  -5.732   1.833  0.00  0.00    -0.275 OA
ATOM     24  H   UNL     1       1.246  -5.205   3.240  0.00  0.00    +0.149 HD
BRANCH  21  25
ATOM     25  C   UNL     1       1.510  -4.772   1.178  0.00  0.00    +0.115 C 
BRANCH  25  26
ATOM     26  C   UNL     1       0.054  -4.301   1.196  0.00  0.00    +0.139 C 
BRANCH  26  27
ATOM     27  C   UNL     1      -0.338  -3.827  -0.179  0.00  0.00    +0.309 C 
ATOM     28  O   UNL     1       0.465  -3.863  -1.082  0.00  0.00    -0.251 OA
BRANCH  27  29
ATOM     29  O   UNL     1      -1.579  -3.366  -0.402  0.00  0.00    -0.465 OA
BRANCH  29  31
ATOM     30  C   UNL     1      -3.330  -2.445  -1.790  0.00  0.00    +0.048 C 
ATOM     31  C   UNL     1      -1.881  -2.933  -1.730  0.00  0.00    +0.229 C 
ENDBRANCH  29  31
ENDBRANCH  27  29
ENDBRANCH  26  27
ENDBRANCH  25  26
ENDBRANCH  21  25
ENDBRANCH   1  22
TORSDOF 7
