REMARK  Name = ZINC27305279
REMARK  15 active torsions:
REMARK  status: ('A' for Active; 'I' for Inactive)
REMARK    1  A    between atoms: C_1  and  C_2
REMARK    2  A    between atoms: C_2  and  O_3
REMARK    3  A    between atoms: O_3  and  C_4
REMARK    4  A    between atoms: C_7  and  N_10
REMARK    5  A    between atoms: N_10  and  C_11
REMARK    6  A    between atoms: C_11  and  C_12
REMARK    7  A    between atoms: C_12  and  C_13
REMARK    8  A    between atoms: C_15  and  C_17
REMARK    9  A    between atoms: C_17  and  N_18
REMARK   10  A    between atoms: N_18  and  C_19
REMARK   11  A    between atoms: N_18  and  C_20
REMARK   12  A    between atoms: C_20  and  C_21
REMARK   13  A    between atoms: C_24  and  C_27
REMARK   14  A    between atoms: N_29  and  C_30
REMARK   15  A    between atoms: C_30  and  C_31
REMARK                            x       y       z     vdW  Elec       q    Type
REMARK                         _______ _______ _______ _____ _____    ______ ____
ROOT
ATOM      1  N   UNL     1      -1.262  -4.787   0.303  0.00  0.00    +0.386 N 
ATOM      2  C   UNL     1      -2.015  -4.538  -0.934  0.00  0.00    -0.095 C 
ATOM      3  H   UNL     1      -1.762  -4.243   1.118  0.00  0.00    -0.081 HD
ENDROOT
BRANCH   1   4
ATOM      4  C   UNL     1       0.111  -4.276   0.195  0.00  0.00    +0.019 C 
BRANCH   4   6
ATOM      5  N   UNL     1       1.234  -2.083  -0.020  0.00  0.00    -0.272 N 
ATOM      6  C   UNL     1       0.082  -2.773   0.089  0.00  0.00    +0.203 C 
ATOM      7  O   UNL     1      -0.979  -2.185   0.102  0.00  0.00    -0.277 OA
BRANCH   5  11
ATOM      8  C   UNL     1       1.173   2.087  -0.010  0.00  0.00    +0.121 A 
ATOM      9  C   UNL     1       1.532   1.402  -1.161  0.00  0.00    +0.047 A 
ATOM     10  C   UNL     1       1.552   0.021  -1.166  0.00  0.00    +0.027 A 
ATOM     11  C   UNL     1       1.214  -0.681  -0.017  0.00  0.00    +0.036 A 
ATOM     12  C   UNL     1       0.855   0.005   1.135  0.00  0.00    +0.027 A 
ATOM     13  C   UNL     1       0.835   1.386   1.138  0.00  0.00    +0.047 A 
BRANCH   8  14
ATOM     14  O   UNL     1       1.154   3.446  -0.006  0.00  0.00    -0.492 OA
BRANCH  14  16
ATOM     15  C   UNL     1       0.811   5.605   1.026  0.00  0.00    +0.048 C 
ATOM     16  C   UNL     1       0.775   4.087   1.214  0.00  0.00    +0.225 C 
ENDBRANCH  14  16
ENDBRANCH   8  14
ENDBRANCH   5  11
BRANCH   5  17
ATOM     17  C   UNL     1       2.507  -2.796  -0.143  0.00  0.00    +0.128 C 
BRANCH  17  18
ATOM     18  C   UNL     1       3.088  -3.047   1.250  0.00  0.00    +0.138 C 
BRANCH  18  19
ATOM     19  C   UNL     1       4.367  -3.764   1.127  0.00  0.00    +0.064 C 
ATOM     20  N   UNL     1       5.354  -4.318   1.031  0.00  0.00    -0.197 NA
ENDBRANCH  18  19
ENDBRANCH  17  18
ENDBRANCH   5  17
ENDBRANCH   4   6
ENDBRANCH   1   4
BRANCH   1  21
ATOM     21  C   UNL     1      -1.267  -6.215   0.644  0.00  0.00    -0.043 C 
BRANCH  21  22
ATOM     22  C   UNL     1      -2.670  -6.645   0.986  0.00  0.00    -0.064 A 
ATOM     23  C   UNL     1      -3.113  -6.573   2.295  0.00  0.00    +0.002 A 
ATOM     24  C   UNL     1      -4.398  -6.959   2.614  0.00  0.00    +0.013 A 
ATOM     25  C   UNL     1      -5.249  -7.434   1.615  0.00  0.00    +0.037 A 
ATOM     26  C   UNL     1      -4.794  -7.511   0.298  0.00  0.00    +0.013 A 
ATOM     27  C   UNL     1      -3.509  -7.116  -0.009  0.00  0.00    +0.002 A 
BRANCH  25  28
ATOM     28  C   UNL     1      -6.626  -7.855   1.951  0.00  0.00    +0.244 C 
ATOM     29  O   UNL     1      -7.365  -8.268   1.078  0.00  0.00    -0.270 OA
ATOM     30  N   UNL     1      -7.062  -7.780   3.224  0.00  0.00    -0.303 N 
ATOM     31  H   UNL     1      -6.394  -7.407   4.013  0.00  0.00    +0.149 HD
BRANCH  30  32
ATOM     32  C   UNL     1      -8.427  -8.197   3.556  0.00  0.00    +0.217 C 
BRANCH  32  33
ATOM     33  C   UNL     1      -8.665  -8.013   5.056  0.00  0.00    +0.405 C 
ATOM     34  F   UNL     1      -8.494  -6.666   5.394  0.00  0.00    -0.169 F 
ATOM     35  F   UNL     1      -9.968  -8.411   5.374  0.00  0.00    -0.169 F 
ATOM     36  F   UNL     1      -7.752  -8.793   5.773  0.00  0.00    -0.169 F 
ENDBRANCH  32  33
ENDBRANCH  30  32
ENDBRANCH  25  28
ENDBRANCH  21  22
ENDBRANCH   1  21
TORSDOF 13
