REMARK  Name = ZINC13739303
REMARK  11 active torsions:
REMARK  status: ('A' for Active; 'I' for Inactive)
REMARK    1  A    between atoms: C_1  and  C_2
REMARK    2  A    between atoms: C_5  and  S_8
REMARK    3  A    between atoms: S_8  and  N_11
REMARK    4  A    between atoms: N_11  and  C_12
REMARK    5  A    between atoms: N_24  and  C_25
REMARK    6  A    between atoms: C_25  and  C_26
REMARK    7  A    between atoms: C_25  and  C_27
REMARK    8  A    between atoms: C_25  and  C_28
REMARK    9  A    between atoms: N_29  and  C_30
REMARK   10  A    between atoms: C_30  and  C_31
REMARK   11  A    between atoms: C_30  and  C_32
REMARK                            x       y       z     vdW  Elec       q    Type
REMARK                         _______ _______ _______ _____ _____    ______ ____
ROOT
ATOM      1  N   UNL     1       4.657  -1.573  -3.456  0.00  0.00    -0.134 N 
ATOM      2  C   UNL     1       4.011  -1.127  -2.320  0.00  0.00    +0.248 A 
ATOM      3  N   UNL     1       2.685  -1.023  -2.307  0.00  0.00    -0.179 NA
ATOM      4  C   UNL     1       2.063  -0.590  -1.215  0.00  0.00    +0.221 A 
ATOM      5  N   UNL     1       2.766  -0.270  -0.133  0.00  0.00    -0.181 NA
ATOM      6  C   UNL     1       4.091  -0.379  -0.144  0.00  0.00    +0.221 A 
ATOM      7  N   UNL     1       4.713  -0.807  -1.238  0.00  0.00    -0.179 NA
ATOM      8  N   UNL     1       4.820  -0.047   0.980  0.00  0.00    -0.309 N 
ATOM      9  N   UNL     1       0.688  -0.476  -1.203  0.00  0.00    -0.311 N 
ATOM     10  H   UNL     1       5.787  -0.127   0.972  0.00  0.00    +0.149 HD
ATOM     11  H   UNL     1       0.175  -0.710  -1.993  0.00  0.00    +0.149 HD
ENDROOT
BRANCH   1  12
ATOM     12  C   UNL     1       6.060  -1.689  -3.467  0.00  0.00    +0.097 A 
ATOM     13  C   UNL     1       6.926  -0.990  -2.690  0.00  0.00    +0.130 A 
ATOM     14  N   UNL     1       8.183  -1.399  -3.007  0.00  0.00    -0.283 N 
ATOM     15  H   UNL     1       9.031  -1.068  -2.595  0.00  0.00    +0.188 HD
ATOM     16  N   UNL     1       8.079  -2.368  -4.013  0.00  0.00    -0.180 NA
ATOM     17  C   UNL     1       6.811  -2.542  -4.289  0.00  0.00    +0.159 A 
ENDBRANCH   1  12
BRANCH   8  18
ATOM     18  C   UNL     1       4.134   0.425   2.185  0.00  0.00    +0.026 C 
ATOM     19  C   UNL     1       3.167  -0.654   2.677  0.00  0.00    +0.031 C 
ATOM     20  C   UNL     1       5.165   0.721   3.276  0.00  0.00    +0.031 C 
ATOM     21  C   UNL     1       3.353   1.700   1.861  0.00  0.00    +0.031 C 
ENDBRANCH   8  18
BRANCH   1  22
ATOM     22  S   UNL     1       3.782  -1.971  -4.804  0.00  0.00    +0.081 S 
ATOM     23  O   UNL     1       4.579  -2.879  -5.552  0.00  0.00    -0.149 OA
ATOM     24  O   UNL     1       2.473  -2.296  -4.357  0.00  0.00    -0.149 OA
BRANCH  22  29
ATOM     25  C   UNL     1       3.271   3.029  -8.142  0.00  0.00    +0.044 C 
ATOM     26  C   UNL     1       3.398   1.780  -7.308  0.00  0.00    -0.050 A 
ATOM     27  C   UNL     1       4.469   0.928  -7.500  0.00  0.00    +0.005 A 
ATOM     28  C   UNL     1       4.586  -0.218  -6.735  0.00  0.00    +0.029 A 
ATOM     29  C   UNL     1       3.632  -0.511  -5.778  0.00  0.00    +0.109 A 
ATOM     30  C   UNL     1       2.559   0.339  -5.590  0.00  0.00    +0.029 A 
ATOM     31  C   UNL     1       2.444   1.487  -6.352  0.00  0.00    +0.005 A 
ENDBRANCH  22  29
ENDBRANCH   1  22
BRANCH   9  32
ATOM     32  C   UNL     1       0.002  -0.004   0.002  0.00  0.00    +0.067 C 
ATOM     33  C   UNL     1      -0.019   1.526   0.010  0.00  0.00    +0.027 C 
ATOM     34  C   UNL     1      -1.433  -0.534   0.013  0.00  0.00    +0.027 C 
ENDBRANCH   9  32
TORSDOF 5
