REMARK  Name = ZINC63757940
REMARK  5 active torsions:
REMARK  status: ('A' for Active; 'I' for Inactive)
REMARK    1  A    between atoms: C_7  and  C_10
REMARK    2  A    between atoms: C_10  and  C_11
REMARK    3  A    between atoms: C_11  and  N_12
REMARK    4  A    between atoms: C_13  and  C_15
REMARK    5  A    between atoms: C_17  and  O_28
REMARK                            x       y       z     vdW  Elec       q    Type
REMARK                         _______ _______ _______ _____ _____    ______ ____
ROOT
ATOM      1  N   UNL     1      -0.458  -4.798  -1.460  0.00  0.00    -0.314 N 
ATOM      2  C   UNL     1      -0.811  -5.380  -2.623  0.00  0.00    +0.229 C 
ATOM      3  O   UNL     1      -0.371  -4.957  -3.671  0.00  0.00    -0.275 OA
ATOM      4  H   UNL     1      -0.810  -5.136  -0.622  0.00  0.00    +0.149 HD
ENDROOT
BRANCH   2   5
ATOM      5  C   UNL     1      -1.752  -6.557  -2.622  0.00  0.00    +0.204 C 
ATOM      6  C   UNL     1      -2.008  -6.978  -4.059  0.00  0.00    +0.206 C 
ATOM      7  N   UNL     1      -1.062  -8.005  -4.511  0.00  0.00    -0.263 NA
ATOM      8  C   UNL     1      -1.221  -9.216  -3.694  0.00  0.00    +0.214 C 
ATOM      9  N   UNL     1      -0.813  -8.843  -2.307  0.00  0.00    -0.251 N 
ATOM     10  C   UNL     1      -1.157  -7.646  -1.784  0.00  0.00    +0.237 C 
ATOM     11  O   UNL     1      -0.979  -7.449  -0.600  0.00  0.00    -0.274 OA
ATOM     12  C   UNL     1      -0.018  -9.797  -1.697  0.00  0.00    +0.087 C 
ATOM     13  C   UNL     1       0.599 -10.750  -2.386  0.00  0.00    +0.059 C 
ATOM     14  S   UNL     1       0.113 -10.415  -4.100  0.00  0.00    -0.093 S 
ATOM     15  H   UNL     1      -1.192  -8.210  -5.490  0.00  0.00    +0.127 HD
BRANCH   6  16
ATOM     16  O   UNL     1      -1.888  -5.833  -4.906  0.00  0.00    -0.376 OA
ATOM     17  H   UNL     1      -2.038  -6.020  -5.843  0.00  0.00    +0.211 HD
ENDBRANCH   6  16
ENDBRANCH   2   5
BRANCH   1  18
ATOM     18  C   UNL     1       0.457  -3.653  -1.462  0.00  0.00    +0.108 C 
BRANCH  18  19
ATOM     19  C   UNL     1       0.691  -3.186  -0.024  0.00  0.00    +0.052 C 
BRANCH  19  26
ATOM     20  C   UNL     1      -0.016   1.348   0.009  0.00  0.00    +0.001 A 
ATOM     21  C   UNL     1       1.166   2.101   0.002  0.00  0.00    +0.002 A 
ATOM     22  C   UNL     1       2.391   1.535  -0.013  0.00  0.00    +0.026 A 
ATOM     23  C   UNL     1       2.529   0.120  -0.022  0.00  0.00    +0.043 A 
ATOM     24  N   UNL     1       3.587  -0.654  -0.037  0.00  0.00    -0.380 N 
ATOM     25  C   UNL     1       3.143  -2.053  -0.041  0.00  0.00    +0.144 C 
ATOM     26  C   UNL     1       1.631  -2.008  -0.025  0.00  0.00    -0.040 C 
ATOM     27  C   UNL     1       1.295  -0.698  -0.014  0.00  0.00    -0.001 A 
ATOM     28  C   UNL     1       0.002  -0.004   0.002  0.00  0.00    +0.010 A 
ATOM     29  H   UNL     1       4.509  -0.353  -0.045  0.00  0.00    +0.160 HD
ENDBRANCH  19  26
ENDBRANCH  18  19
ENDBRANCH   1  18
TORSDOF 5
