REMARK  Name = ZINC07656923
REMARK  9 active torsions:
REMARK  status: ('A' for Active; 'I' for Inactive)
REMARK    1  A    between atoms: C_1  and  C_2
REMARK    2  A    between atoms: C_8  and  N_10
REMARK    3  A    between atoms: C_14  and  C_16
REMARK    4  A    between atoms: C_16  and  O_17
REMARK    5  A    between atoms: O_17  and  C_18
REMARK    6  A    between atoms: C_18  and  C_20
REMARK    7  A    between atoms: C_23  and  N_28
REMARK    8  A    between atoms: C_25  and  O_26
REMARK    9  A    between atoms: O_26  and  C_27
REMARK                            x       y       z     vdW  Elec       q    Type
REMARK                         _______ _______ _______ _____ _____    ______ ____
ROOT
ATOM      1  C   UNL     1      -4.876   0.058   0.050  0.00  0.00    +0.328 C 
ENDROOT
BRANCH   1   6
ATOM      2  N   UNL     1      -9.617  -0.739   0.091  0.00  0.00    -0.296 N 
ATOM      3  C   UNL     1      -8.362  -1.231   0.076  0.00  0.00    +0.306 C 
ATOM      4  O   UNL     1      -8.180  -2.433   0.068  0.00  0.00    -0.252 OA
ATOM      5  N   UNL     1      -7.309  -0.390   0.071  0.00  0.00    -0.237 N 
ATOM      6  C   UNL     1      -6.054  -0.882   0.056  0.00  0.00    +0.258 C 
ATOM      7  O   UNL     1      -5.873  -2.081   0.047  0.00  0.00    -0.272 OA
ATOM      8  H   UNL     1      -9.761   0.220   0.098  0.00  0.00    +0.151 HD
ATOM      9  H   UNL     1      -7.453   0.569   0.078  0.00  0.00    +0.159 HD
BRANCH   2  16
ATOM     10  C   UNL     1     -11.675  -0.521  -1.934  0.00  0.00    +0.009 C 
ATOM     11  C   UNL     1     -11.982  -0.946  -0.496  0.00  0.00    +0.006 C 
ATOM     12  C   UNL     1     -13.177  -1.900  -0.490  0.00  0.00    +0.005 C 
ATOM     13  C   UNL     1     -13.484  -2.325   0.947  0.00  0.00    +0.000 C 
ATOM     14  C   UNL     1     -12.264  -3.032   1.541  0.00  0.00    +0.002 C 
ATOM     15  C   UNL     1     -11.068  -2.078   1.535  0.00  0.00    +0.022 C 
ATOM     16  C   UNL     1     -10.762  -1.653   0.097  0.00  0.00    +0.077 C 
ENDBRANCH   2  16
ENDBRANCH   1   6
BRANCH   1  17
ATOM     17  O   UNL     1      -3.644  -0.710   0.034  0.00  0.00    -0.452 OA
BRANCH  17  18
ATOM     18  C   UNL     1      -2.489  -0.015   0.026  0.00  0.00    +0.343 C 
ATOM     19  O   UNL     1      -2.512   1.201   0.033  0.00  0.00    -0.245 OA
BRANCH  18  20
ATOM     20  C   UNL     1      -1.202  -0.726   0.010  0.00  0.00    +0.102 A 
ATOM     21  C   UNL     1      -1.173  -2.126   0.002  0.00  0.00    +0.040 A 
ATOM     22  C   UNL     1       0.022  -2.785  -0.013  0.00  0.00    +0.063 A 
ATOM     23  C   UNL     1       1.220  -2.072  -0.021  0.00  0.00    +0.047 A 
ATOM     24  C   UNL     1       1.208  -0.683  -0.019  0.00  0.00    +0.070 A 
ATOM     25  C   UNL     1       0.002  -0.004   0.002  0.00  0.00    +0.136 A 
ATOM     26 CL   UNL     1       0.050  -4.521  -0.023  0.00  0.00    -0.082 Cl
BRANCH  23  27
ATOM     27  N   UNL     1       2.433  -2.754  -0.035  0.00  0.00    -0.357 N 
ATOM     28  H   UNL     1       2.443  -3.724  -0.040  0.00  0.00    +0.142 HD
ATOM     29  H   UNL     1       3.267  -2.260  -0.041  0.00  0.00    +0.142 HD
ENDBRANCH  23  27
BRANCH  25  30
ATOM     30  O   UNL     1      -0.016   1.352   0.009  0.00  0.00    -0.494 OA
ATOM     31  C   UNL     1       1.248   2.018   0.001  0.00  0.00    +0.277 C 
ENDBRANCH  25  30
ENDBRANCH  18  20
ENDBRANCH  17  18
ENDBRANCH   1  17
TORSDOF 7
