REMARK  Name = ZINC62729919
REMARK  10 active torsions:
REMARK  status: ('A' for Active; 'I' for Inactive)
REMARK    1  A    between atoms: C_1  and  C_2
REMARK    2  A    between atoms: C_4  and  C_7
REMARK    3  A    between atoms: C_7  and  O_8
REMARK    4  A    between atoms: O_8  and  C_9
REMARK    5  A    between atoms: C_14  and  C_15
REMARK    6  A    between atoms: C_15  and  N_16
REMARK    7  A    between atoms: N_16  and  C_17
REMARK    8  A    between atoms: C_17  and  C_18
REMARK    9  A    between atoms: C_17  and  C_19
REMARK   10  A    between atoms: C_17  and  C_20
REMARK                            x       y       z     vdW  Elec       q    Type
REMARK                         _______ _______ _______ _____ _____    ______ ____
ROOT
ATOM      1  C   UNL     1       1.579  -4.766  -2.723  0.00  0.00    +0.123 A 
ATOM      2  C   UNL     1       0.486  -5.457  -3.225  0.00  0.00    +0.047 A 
ATOM      3  C   UNL     1       0.680  -6.556  -4.040  0.00  0.00    +0.019 A 
ATOM      4  C   UNL     1       1.963  -6.966  -4.355  0.00  0.00    +0.018 A 
ATOM      5  C   UNL     1       3.054  -6.278  -3.855  0.00  0.00    +0.020 A 
ATOM      6  C   UNL     1       2.864  -5.175  -3.045  0.00  0.00    -0.022 A 
ATOM      7 BR   UNL     1       2.226  -8.470  -5.471  0.00  0.00    -0.050 Br
ENDROOT
BRANCH   1   8
ATOM      8  O   UNL     1       1.390  -3.684  -1.921  0.00  0.00    -0.484 OA
BRANCH   8   9
ATOM      9  C   UNL     1       0.039  -3.320  -1.631  0.00  0.00    +0.306 C 
BRANCH   9  13
ATOM     10  C   UNL     1      -0.018   1.503   0.010  0.00  0.00    +0.069 C 
ATOM     11  C   UNL     1       0.002  -0.004   0.002  0.00  0.00    +0.081 A 
ATOM     12  C   UNL     1       0.008  -0.824  -1.141  0.00  0.00    +0.074 A 
ATOM     13  C   UNL     1       0.027  -2.108  -0.735  0.00  0.00    +0.175 A 
ATOM     14  O   UNL     1       0.034  -2.119   0.606  0.00  0.00    -0.356 OA
ATOM     15  N   UNL     1       0.023  -0.775   1.052  0.00  0.00    -0.083 NA
ENDBRANCH   9  13
ENDBRANCH   8   9
ENDBRANCH   1   8
BRANCH   6  16
ATOM     16  C   UNL     1       4.053  -4.422  -2.506  0.00  0.00    -0.042 C 
BRANCH  16  17
ATOM     17  N   UNL     1       4.308  -4.836  -1.120  0.00  0.00    +0.385 N 
ATOM     18  H   UNL     1       3.498  -4.634  -0.554  0.00  0.00    -0.085 HD
ATOM     19  H   UNL     1       4.498  -5.827  -1.094  0.00  0.00    -0.085 HD
BRANCH  17  20
ATOM     20  C   UNL     1       5.467  -4.101  -0.595  0.00  0.00    -0.077 C 
ATOM     21  C   UNL     1       5.179  -2.599  -0.634  0.00  0.00    -0.011 C 
ATOM     22  C   UNL     1       5.733  -4.532   0.849  0.00  0.00    -0.011 C 
ATOM     23  C   UNL     1       6.696  -4.408  -1.453  0.00  0.00    -0.011 C 
ENDBRANCH  17  20
ENDBRANCH  16  17
ENDBRANCH   6  16
TORSDOF 6
