REMARK  Name = ZINC39534508
REMARK  11 active torsions:
REMARK  status: ('A' for Active; 'I' for Inactive)
REMARK    1  A    between atoms: C_1  and  C_2
REMARK    2  A    between atoms: C_2  and  C_3
REMARK    3  A    between atoms: C_2  and  S_4
REMARK    4  A    between atoms: S_4  and  C_7
REMARK    5  A    between atoms: C_10  and  C_13
REMARK    6  A    between atoms: C_13  and  C_15
REMARK    7  A    between atoms: C_13  and  N_24
REMARK    8  A    between atoms: C_15  and  N_16
REMARK    9  A    between atoms: N_16  and  C_17
REMARK   10  A    between atoms: C_17  and  C_18
REMARK   11  A    between atoms: C_28  and  O_31
REMARK                            x       y       z     vdW  Elec       q    Type
REMARK                         _______ _______ _______ _____ _____    ______ ____
ROOT
ATOM      1  C   UNL     1      -1.140  -6.621   0.486  0.00  0.00    +0.100 C 
ENDROOT
BRANCH   1   2
ATOM      2  N   UNL     1      -0.144  -6.941   1.517  0.00  0.00    -0.295 NA
ATOM      3  C   UNL     1      -0.588  -6.478   2.839  0.00  0.00    +0.066 C 
ATOM      4  C   UNL     1       0.447  -6.882   3.892  0.00  0.00    -0.063 C 
ATOM      5  N   UNL     1       1.746  -6.285   3.556  0.00  0.00    +0.398 N 
ATOM      6  C   UNL     1       2.188  -6.776   2.244  0.00  0.00    +0.073 C 
ATOM      7  C   UNL     1       1.168  -6.371   1.177  0.00  0.00    +0.096 C 
ATOM      8  H   UNL     1       1.657  -5.280   3.526  0.00  0.00    -0.082 HD
ATOM      9  H   UNL     1       2.425  -6.541   4.257  0.00  0.00    -0.082 HD
BRANCH   6  10
ATOM     10  O   UNL     1       3.460  -6.207   1.926  0.00  0.00    -0.409 OA
ATOM     11  H   UNL     1       4.157  -6.423   2.561  0.00  0.00    +0.207 HD
ENDBRANCH   6  10
ENDBRANCH   1   2
BRANCH   1  15
ATOM     12  C   UNL     1      -1.802  -2.402   0.407  0.00  0.00    +0.088 A 
ATOM     13  C   UNL     1      -2.266  -3.155   1.470  0.00  0.00    +0.027 A 
ATOM     14  C   UNL     1      -2.052  -4.520   1.495  0.00  0.00    +0.007 A 
ATOM     15  C   UNL     1      -1.374  -5.133   0.458  0.00  0.00    -0.029 A 
ATOM     16  C   UNL     1      -0.910  -4.380  -0.605  0.00  0.00    +0.007 A 
ATOM     17  C   UNL     1      -1.128  -3.015  -0.632  0.00  0.00    +0.027 A 
BRANCH  12  18
ATOM     18  S   UNL     1      -2.074  -0.661   0.375  0.00  0.00    -0.001 S 
ATOM     19  O   UNL     1      -1.023  -0.144  -0.429  0.00  0.00    -0.169 OA
ATOM     20  O   UNL     1      -2.192  -0.287   1.741  0.00  0.00    -0.169 OA
BRANCH  18  22
ATOM     21  C   UNL     1      -3.950   1.036  -0.666  0.00  0.00    +0.032 C 
ATOM     22  C   UNL     1      -3.667  -0.455  -0.469  0.00  0.00    +0.130 C 
ATOM     23  C   UNL     1      -3.616  -1.149  -1.831  0.00  0.00    +0.032 C 
ENDBRANCH  18  22
ENDBRANCH  12  18
ENDBRANCH   1  15
BRANCH   1  24
ATOM     24  C   UNL     1      -2.453  -7.338   0.805  0.00  0.00    +0.104 C 
BRANCH  24  25
ATOM     25  N   UNL     1      -2.202  -8.778   0.951  0.00  0.00    -0.310 NA
ATOM     26  H   UNL     1      -1.761  -9.153   0.124  0.00  0.00    +0.122 HD
BRANCH  25  27
ATOM     27  C   UNL     1      -3.444  -9.501   1.258  0.00  0.00    +0.116 C 
BRANCH  27  28
ATOM     28  C   UNL     1      -3.147 -10.971   1.400  0.00  0.00    -0.034 A 
ATOM     29  C   UNL     1      -3.207 -11.798   0.294  0.00  0.00    +0.005 A 
ATOM     30  C   UNL     1      -2.935 -13.147   0.424  0.00  0.00    +0.000 A 
ATOM     31  C   UNL     1      -2.603 -13.669   1.660  0.00  0.00    +0.000 A 
ATOM     32  C   UNL     1      -2.542 -12.842   2.766  0.00  0.00    +0.000 A 
ATOM     33  C   UNL     1      -2.810 -11.493   2.635  0.00  0.00    +0.005 A 
ENDBRANCH  27  28
ENDBRANCH  25  27
ENDBRANCH  24  25
ENDBRANCH   1  24
TORSDOF 9
