REMARK  Name = ZINC65018453
REMARK  7 active torsions:
REMARK  status: ('A' for Active; 'I' for Inactive)
REMARK    1  A    between atoms: C_1  and  C_2
REMARK    2  A    between atoms: C_3  and  C_30
REMARK    3  A    between atoms: C_9  and  C_12
REMARK    4  A    between atoms: C_12  and  N_13
REMARK    5  A    between atoms: N_16  and  C_17
REMARK    6  A    between atoms: C_17  and  C_18
REMARK    7  A    between atoms: C_18  and  C_19
REMARK                            x       y       z     vdW  Elec       q    Type
REMARK                         _______ _______ _______ _____ _____    ______ ____
ROOT
ATOM      1  N   UNL     1      -1.310  -1.423   5.394  0.00  0.00    -0.295 N 
ATOM      2  C   UNL     1      -1.547  -1.215   6.704  0.00  0.00    +0.300 C 
ATOM      3  O   UNL     1      -0.618  -1.076   7.475  0.00  0.00    -0.253 OA
ATOM      4  N   UNL     1      -2.815  -1.160   7.159  0.00  0.00    -0.299 N 
ATOM      5  H   UNL     1      -2.052  -1.533   4.778  0.00  0.00    +0.151 HD
ATOM      6  H   UNL     1      -3.556  -1.271   6.544  0.00  0.00    +0.150 HD
ENDROOT
BRANCH   1   7
ATOM      7  C   UNL     1       0.068  -1.482   4.899  0.00  0.00    +0.141 C 
BRANCH   7  16
ATOM      8  C   UNL     1      -0.018   1.503   0.010  0.00  0.00    +0.046 C 
ATOM      9  C   UNL     1       0.002  -0.004   0.002  0.00  0.00    -0.022 A 
ATOM     10  C   UNL     1       0.009  -0.797  -1.081  0.00  0.00    +0.017 A 
ATOM     11  N   UNL     1       0.028  -2.110  -0.699  0.00  0.00    -0.358 N 
ATOM     12  H   UNL     1       0.036  -2.867  -1.305  0.00  0.00    +0.166 HD
ATOM     13  C   UNL     1       0.035  -2.197   0.676  0.00  0.00    +0.047 A 
ATOM     14  C   UNL     1       0.025  -0.882   1.175  0.00  0.00    +0.003 A 
ATOM     15  C   UNL     1       0.035  -0.659   2.553  0.00  0.00    +0.015 A 
ATOM     16  C   UNL     1       0.057  -1.723   3.411  0.00  0.00    -0.030 A 
ATOM     17  C   UNL     1       0.071  -3.022   2.924  0.00  0.00    +0.007 A 
ATOM     18  C   UNL     1       0.052  -3.264   1.567  0.00  0.00    +0.026 A 
ATOM     19  C   UNL     1      -0.004  -0.311  -2.508  0.00  0.00    +0.063 C 
ENDBRANCH   7  16
ENDBRANCH   1   7
BRANCH   4  20
ATOM     20  C   UNL     1      -3.072  -0.934   8.583  0.00  0.00    +0.110 C 
BRANCH  20  21
ATOM     21  C   UNL     1      -4.582  -0.916   8.832  0.00  0.00    +0.057 C 
BRANCH  21  22
ATOM     22  C   UNL     1      -4.847  -0.683  10.297  0.00  0.00    -0.001 A 
ATOM     23  C   UNL     1      -5.048  -1.758  11.142  0.00  0.00    +0.045 A 
ATOM     24  C   UNL     1      -5.292  -1.545  12.488  0.00  0.00    +0.124 A 
ATOM     25  C   UNL     1      -5.336  -0.254  12.988  0.00  0.00    +0.047 A 
ATOM     26  C   UNL     1      -5.136   0.823  12.145  0.00  0.00    +0.023 A 
ATOM     27  C   UNL     1      -4.883   0.610  10.799  0.00  0.00    +0.132 A 
ATOM     28  O   UNL     1      -4.671   1.661   9.961  0.00  0.00    -0.466 OA
ATOM     29  C   UNL     1      -5.069   2.952  10.430  0.00  0.00    +0.394 C 
ATOM     30  O   UNL     1      -4.580   3.124  11.766  0.00  0.00    -0.339 OA
ATOM     31  C   UNL     1      -5.191   2.224  12.700  0.00  0.00    +0.202 C 
ATOM     32  F   UNL     1      -5.488  -2.596  13.313  0.00  0.00    -0.205 F 
ENDBRANCH  21  22
ENDBRANCH  20  21
ENDBRANCH   4  20
TORSDOF 5
