REMARK  Name = ZINC20884064
REMARK  12 active torsions:
REMARK  status: ('A' for Active; 'I' for Inactive)
REMARK    1  A    between atoms: C_1  and  C_2
REMARK    2  A    between atoms: C_2  and  O_3
REMARK    3  A    between atoms: O_3  and  C_4
REMARK    4  A    between atoms: C_7  and  C_13
REMARK    5  A    between atoms: C_9  and  O_10
REMARK    6  A    between atoms: O_10  and  C_11
REMARK    7  A    between atoms: C_11  and  C_12
REMARK    8  A    between atoms: C_18  and  C_23
REMARK    9  A    between atoms: C_26  and  O_29
REMARK   10  A    between atoms: O_29  and  C_30
REMARK   11  A    between atoms: C_30  and  C_31
REMARK   12  A    between atoms: C_30  and  C_32
REMARK                            x       y       z     vdW  Elec       q    Type
REMARK                         _______ _______ _______ _____ _____    ______ ____
ROOT
ATOM      1  C   UNL     1      -1.669   2.221   3.256  0.00  0.00    +0.136 C 
ATOM      2  C   UNL     1      -1.000   1.806   1.968  0.00  0.00    +0.036 C 
ATOM      3  C   UNL     1      -1.509   1.949   0.733  0.00  0.00    +0.017 C 
ATOM      4  C   UNL     1      -0.726   1.481  -0.483  0.00  0.00    +0.059 C 
ATOM      5  C   UNL     1       0.772   1.642  -0.231  0.00  0.00    +0.032 C 
ATOM      6  C   UNL     1       1.133   0.793   0.994  0.00  0.00    +0.088 C 
ATOM      7  C   UNL     1       0.285   1.232   2.151  0.00  0.00    +0.163 C 
ATOM      8  O   UNL     1       0.715   1.092   3.279  0.00  0.00    -0.292 OA
ATOM      9  N   UNL     1      -2.723   2.488   0.455  0.00  0.00    -0.316 N 
ATOM     10  C   UNL     1      -3.215   3.668   1.003  0.00  0.00    +0.052 A 
ATOM     11  C   UNL     1      -3.523   4.772   0.227  0.00  0.00    +0.025 A 
ATOM     12  C   UNL     1      -4.116   5.874   0.819  0.00  0.00    +0.002 A 
ATOM     13  C   UNL     1      -4.396   5.871   2.174  0.00  0.00    +0.002 A 
ATOM     14  C   UNL     1      -4.067   4.777   2.955  0.00  0.00    +0.025 A 
ATOM     15  C   UNL     1      -3.458   3.680   2.368  0.00  0.00    +0.049 A 
ATOM     16  N   UNL     1      -3.066   2.574   3.121  0.00  0.00    -0.331 N 
ATOM     17  H   UNL     1      -3.400   1.984  -0.252  0.00  0.00    +0.152 HD
ATOM     18  H   UNL     1      -3.837   1.966   3.616  0.00  0.00    +0.147 HD
ENDROOT
BRANCH   1  22
ATOM     19  C   UNL     1       0.429   5.592   4.846  0.00  0.00    +0.162 A 
ATOM     20  C   UNL     1      -0.247   5.698   3.641  0.00  0.00    +0.050 A 
ATOM     21  C   UNL     1      -0.920   4.605   3.127  0.00  0.00    +0.009 A 
ATOM     22  C   UNL     1      -0.929   3.408   3.818  0.00  0.00    -0.019 A 
ATOM     23  C   UNL     1      -0.256   3.295   5.020  0.00  0.00    +0.055 A 
ATOM     24  C   UNL     1       0.424   4.385   5.538  0.00  0.00    +0.162 A 
BRANCH  19  25
ATOM     25  O   UNL     1       1.095   6.665   5.350  0.00  0.00    -0.489 OA
BRANCH  25  27
ATOM     26  C   UNL     1       1.856   8.958   5.306  0.00  0.00    +0.048 C 
ATOM     27  C   UNL     1       1.057   7.871   4.585  0.00  0.00    +0.226 C 
ENDBRANCH  25  27
ENDBRANCH  19  25
BRANCH  24  28
ATOM     28  O   UNL     1       1.086   4.276   6.721  0.00  0.00    -0.489 OA
BRANCH  28  29
ATOM     29  C   UNL     1       1.038   3.007   7.377  0.00  0.00    +0.226 C 
ATOM     30  C   UNL     1       1.834   3.076   8.682  0.00  0.00    +0.048 C 
ENDBRANCH  28  29
ENDBRANCH  24  28
ENDBRANCH   1  22
BRANCH   5  31
ATOM     31  C   UNL     1       1.548   1.162  -1.431  0.00  0.00    -0.043 A 
ATOM     32  C   UNL     1       1.401  -0.140  -1.871  0.00  0.00    +0.007 A 
ATOM     33  C   UNL     1       2.107  -0.581  -2.974  0.00  0.00    +0.046 A 
ATOM     34  C   UNL     1       2.971   0.282  -3.633  0.00  0.00    +0.121 A 
ATOM     35  C   UNL     1       3.120   1.586  -3.185  0.00  0.00    +0.046 A 
ATOM     36  C   UNL     1       2.408   2.024  -2.085  0.00  0.00    +0.007 A 
BRANCH  34  37
ATOM     37  O   UNL     1       3.670  -0.150  -4.715  0.00  0.00    -0.489 OA
BRANCH  37  38
ATOM     38  C   UNL     1       4.457   0.820  -5.409  0.00  0.00    +0.167 C 
ATOM     39  C   UNL     1       5.830   0.932  -4.744  0.00  0.00    +0.051 C 
ATOM     40  C   UNL     1       4.631   0.388  -6.867  0.00  0.00    +0.051 C 
ENDBRANCH  37  38
ENDBRANCH  34  37
ENDBRANCH   5  31
TORSDOF 8
