REMARK  Name = ZINC36948341
REMARK  2 active torsions:
REMARK  status: ('A' for Active; 'I' for Inactive)
REMARK    1  A    between atoms: C_3  and  O_14
REMARK    2  A    between atoms: C_6  and  C_7
REMARK                            x       y       z     vdW  Elec       q    Type
REMARK                         _______ _______ _______ _____ _____    ______ ____
ROOT
ATOM      1  C   UNL     1      -0.017   1.391   0.010  0.00  0.00    +0.015 A 
ATOM      2  C   UNL     1       1.169   2.096   0.002  0.00  0.00    +0.047 A 
ATOM      3  C   UNL     1       2.380   1.419  -0.013  0.00  0.00    +0.135 A 
ATOM      4  C   UNL     1       2.404   0.029  -0.022  0.00  0.00    +0.083 A 
ATOM      5  C   UNL     1       1.223  -0.682  -0.014  0.00  0.00    +0.035 A 
ATOM      6  C   UNL     1       0.002  -0.004   0.002  0.00  0.00    +0.021 A 
ATOM      7 CL   UNL     1       3.923  -0.812  -0.042  0.00  0.00    -0.080 Cl
ENDROOT
BRANCH   6   8
ATOM      8  C   UNL     1      -1.267  -0.762   0.011  0.00  0.00    +0.162 A 
ATOM      9  N   UNL     1      -1.401  -2.132   0.004  0.00  0.00    -0.316 N 
ATOM     10  C   UNL     1      -2.746  -2.370   0.017  0.00  0.00    +0.200 A 
ATOM     11  N   UNL     1      -3.348  -1.202   0.029  0.00  0.00    -0.122 NA
ATOM     12  N   UNL     1      -2.478  -0.257   0.031  0.00  0.00    -0.128 NA
ATOM     13  S   UNL     1      -3.528  -3.949   0.015  0.00  0.00    -0.009 SA
ATOM     14  H   UNL     1      -0.689  -2.790  -0.006  0.00  0.00    +0.169 HD
ENDBRANCH   6   8
BRANCH   3  15
ATOM     15  O   UNL     1       3.546   2.117  -0.021  0.00  0.00    -0.505 OA
ATOM     16  H   UNL     1       3.893   2.314   0.860  0.00  0.00    +0.292 HD
ENDBRANCH   3  15
TORSDOF 2
