REMARK  Name = ZINC39727350
REMARK  5 active torsions:
REMARK  status: ('A' for Active; 'I' for Inactive)
REMARK    1  A    between atoms: C_7  and  C_10
REMARK    2  A    between atoms: C_10  and  C_12
REMARK    3  A    between atoms: C_12  and  N_13
REMARK    4  A    between atoms: N_17  and  S_20
REMARK    5  A    between atoms: S_20  and  C_23
REMARK                            x       y       z     vdW  Elec       q    Type
REMARK                         _______ _______ _______ _____ _____    ______ ____
ROOT
ATOM      1  N   UNL     1       0.063  -5.492  -0.028  0.00  0.00    +0.385 N 
ATOM      2  C   UNL     1      -0.730  -5.259   1.177  0.00  0.00    -0.077 C 
ATOM      3  C   UNL     1      -2.172  -5.626   0.905  0.00  0.00    -0.001 C 
ATOM      4  C   UNL     1      -2.418  -7.085   1.332  0.00  0.00    +0.107 C 
ATOM      5  N   UNL     1      -1.271  -7.943   0.975  0.00  0.00    -0.178 NA
ATOM      6  C   UNL     1      -0.575  -7.822  -0.289  0.00  0.00    +0.091 C 
ATOM      7  C   UNL     1       0.580  -6.801  -0.156  0.00  0.00    -0.061 C 
ATOM      8  H   UNL     1      -0.518  -5.299  -0.830  0.00  0.00    -0.081 HD
ENDROOT
BRANCH   5   9
ATOM      9  S   UNL     1      -0.761  -9.086   2.060  0.00  0.00    +0.061 S 
ATOM     10  O   UNL     1       0.601  -9.353   1.758  0.00  0.00    -0.153 OA
ATOM     11  O   UNL     1      -1.186  -8.647   3.343  0.00  0.00    -0.153 OA
BRANCH   9  12
ATOM     12  C   UNL     1      -1.653 -10.566   1.714  0.00  0.00    +0.106 A 
ATOM     13  C   UNL     1      -2.865 -10.804   2.336  0.00  0.00    +0.031 A 
ATOM     14  C   UNL     1      -3.565 -11.964   2.065  0.00  0.00    +0.040 A 
ATOM     15  C   UNL     1      -3.052 -12.889   1.171  0.00  0.00    +0.124 A 
ATOM     16  C   UNL     1      -1.839 -12.650   0.548  0.00  0.00    +0.040 A 
ATOM     17  C   UNL     1      -1.143 -11.486   0.817  0.00  0.00    +0.031 A 
ATOM     18  F   UNL     1      -3.736 -14.024   0.905  0.00  0.00    -0.205 F 
ENDBRANCH   9  12
ENDBRANCH   5   9
BRANCH   1  19
ATOM     19  C   UNL     1       1.187  -4.547  -0.033  0.00  0.00    +0.002 C 
BRANCH  19  20
ATOM     20  C   UNL     1       0.657  -3.136  -0.021  0.00  0.00    +0.145 C 
ATOM     21  O   UNL     1      -0.541  -2.938  -0.009  0.00  0.00    -0.294 OA
BRANCH  20  28
ATOM     22  C   UNL     1      -0.016   1.348   0.009  0.00  0.00    +0.001 A 
ATOM     23  C   UNL     1       1.158   2.117   0.002  0.00  0.00    +0.002 A 
ATOM     24  C   UNL     1       2.384   1.551  -0.012  0.00  0.00    +0.026 A 
ATOM     25  C   UNL     1       2.494   0.083  -0.021  0.00  0.00    +0.043 A 
ATOM     26  N   UNL     1       3.525  -0.712  -0.035  0.00  0.00    -0.380 N 
ATOM     27  C   UNL     1       3.065  -2.104  -0.039  0.00  0.00    +0.152 C 
ATOM     28  C   UNL     1       1.553  -2.046  -0.024  0.00  0.00    +0.021 C 
ATOM     29  C   UNL     1       1.234  -0.700  -0.013  0.00  0.00    +0.006 A 
ATOM     30  C   UNL     1       0.002  -0.004   0.002  0.00  0.00    +0.010 A 
ATOM     31  H   UNL     1       4.453  -0.428  -0.043  0.00  0.00    +0.160 HD
ENDBRANCH  20  28
ENDBRANCH  19  20
ENDBRANCH   1  19
TORSDOF 5
