REMARK  Name = ZINC27565559
REMARK  7 active torsions:
REMARK  status: ('A' for Active; 'I' for Inactive)
REMARK    1  A    between atoms: C_1  and  N_2
REMARK    2  A    between atoms: N_2  and  C_3
REMARK    3  A    between atoms: C_4  and  C_6
REMARK    4  A    between atoms: N_11  and  C_12
REMARK    5  A    between atoms: C_12  and  C_13
REMARK    6  A    between atoms: N_15  and  C_16
REMARK    7  A    between atoms: C_19  and  N_23
REMARK                            x       y       z     vdW  Elec       q    Type
REMARK                         _______ _______ _______ _____ _____    ______ ____
ROOT
ATOM      1  C   UNL     1      -3.885   3.087   1.172  0.00  0.00    +0.201 C 
ATOM      2  O   UNL     1      -4.877   3.018   1.866  0.00  0.00    -0.278 OA
ATOM      3  N   UNL     1      -3.045   4.133   1.298  0.00  0.00    -0.286 N 
ATOM      4  H   UNL     1      -2.184   4.232   0.621  0.00  0.00    +0.155 HD
ENDROOT
BRANCH   3   5
ATOM      5  C   UNL     1      -3.269   5.095   2.290  0.00  0.00    +0.048 A 
ATOM      6  C   UNL     1      -4.566   5.437   2.647  0.00  0.00    +0.026 A 
ATOM      7  C   UNL     1      -4.784   6.382   3.631  0.00  0.00    +0.034 A 
ATOM      8  C   UNL     1      -3.712   6.986   4.261  0.00  0.00    +0.127 A 
ATOM      9  C   UNL     1      -2.418   6.648   3.909  0.00  0.00    +0.049 A 
ATOM     10  C   UNL     1      -2.193   5.704   2.925  0.00  0.00    +0.041 A 
ATOM     11 BR   UNL     1      -0.424   5.241   2.443  0.00  0.00    -0.048 Br
BRANCH   8  12
ATOM     12  N   UNL     1      -3.949   7.998   5.315  0.00  0.00    +0.056 N 
ATOM     13  O   UNL     1      -5.088   8.297   5.627  0.00  0.00    -0.126 OA
ATOM     14  O   UNL     1      -3.006   8.531   5.871  0.00  0.00    -0.126 OA
ENDBRANCH   8  12
ENDBRANCH   3   5
BRANCH   1  15
ATOM     15  C   UNL     1      -3.591   2.002   0.168  0.00  0.00    +0.020 C 
BRANCH  15  20
ATOM     16  C   UNL     1      -4.488   0.003  -0.894  0.00  0.00    +0.020 C 
ATOM     17  C   UNL     1      -5.412  -1.153  -0.437  0.00  0.00    -0.008 C 
ATOM     18  C   UNL     1      -5.279  -1.113   1.103  0.00  0.00    -0.020 C 
ATOM     19  C   UNL     1      -4.802   0.314   1.429  0.00  0.00    -0.077 C 
ATOM     20  N   UNL     1      -4.703   1.042   0.145  0.00  0.00    +0.393 N 
ATOM     21  H   UNL     1      -5.608   1.636  -0.052  0.00  0.00    -0.080 HD
BRANCH  16  25
ATOM     22  C   UNL     1      -5.194   0.214  -4.651  0.00  0.00    +0.131 C 
ATOM     23  N   UNL     1      -4.789  -0.281  -3.333  0.00  0.00    -0.309 N 
ATOM     24  C   UNL     1      -4.257  -1.639  -3.192  0.00  0.00    +0.131 C 
ATOM     25  C   UNL     1      -4.905   0.512  -2.250  0.00  0.00    +0.202 C 
ATOM     26  O   UNL     1      -5.345   1.637  -2.366  0.00  0.00    -0.277 OA
ENDBRANCH  16  25
ENDBRANCH  15  20
ENDBRANCH   1  15
TORSDOF 5
