REMARK  Name = ZINC58845769
REMARK  9 active torsions:
REMARK  status: ('A' for Active; 'I' for Inactive)
REMARK    1  A    between atoms: C_1  and  C_2
REMARK    2  A    between atoms: C_7  and  N_8
REMARK    3  A    between atoms: N_8  and  S_9
REMARK    4  A    between atoms: S_9  and  C_12
REMARK    5  A    between atoms: C_25  and  C_28
REMARK    6  A    between atoms: C_31  and  O_34
REMARK    7  A    between atoms: O_34  and  C_35
REMARK    8  A    between atoms: C_35  and  C_36
REMARK    9  A    between atoms: C_35  and  C_37
REMARK                            x       y       z     vdW  Elec       q    Type
REMARK                         _______ _______ _______ _____ _____    ______ ____
ROOT
ATOM      1  C   UNL     1       2.547  -0.763   3.365  0.00  0.00    +0.109 A 
ATOM      2  C   UNL     1       3.152  -1.870   2.797  0.00  0.00    +0.030 A 
ATOM      3  C   UNL     1       4.515  -1.872   2.583  0.00  0.00    +0.025 A 
ATOM      4  C   UNL     1       5.279  -0.764   2.936  0.00  0.00    +0.031 A 
ATOM      5  C   UNL     1       4.673   0.351   3.494  0.00  0.00    -0.018 A 
ATOM      6  C   UNL     1       3.301   0.341   3.707  0.00  0.00    +0.034 A 
ATOM      7  C   UNL     1       5.452   1.573   3.848  0.00  0.00    +0.049 C 
ATOM      8  C   UNL     1       5.684   1.687   5.333  0.00  0.00    -0.023 C 
ATOM      9  C   UNL     1       6.867   2.196   5.569  0.00  0.00    -0.030 C 
ATOM     10  C   UNL     1       7.596   2.489   4.276  0.00  0.00    +0.033 C 
ATOM     11  C   UNL     1       6.846   1.637   3.226  0.00  0.00    +0.029 C 
ATOM     12  C   UNL     1       7.534   0.291   3.130  0.00  0.00    +0.105 C 
ATOM     13  N   UNL     1       6.653  -0.788   2.732  0.00  0.00    -0.336 N 
ATOM     14  H   UNL     1       7.045  -1.576   2.324  0.00  0.00    +0.147 HD
ENDROOT
BRANCH  12  15
ATOM     15  C   UNL     1       8.154  -0.026   4.466  0.00  0.00    -0.027 A 
ATOM     16  C   UNL     1       7.371  -0.531   5.487  0.00  0.00    +0.009 A 
ATOM     17  C   UNL     1       7.937  -0.823   6.713  0.00  0.00    +0.046 A 
ATOM     18  C   UNL     1       9.292  -0.609   6.919  0.00  0.00    +0.121 A 
ATOM     19  C   UNL     1      10.076  -0.103   5.892  0.00  0.00    +0.046 A 
ATOM     20  C   UNL     1       9.506   0.182   4.666  0.00  0.00    +0.009 A 
BRANCH  18  21
ATOM     21  O   UNL     1       9.851  -0.895   8.124  0.00  0.00    -0.489 OA
BRANCH  21  22
ATOM     22  C   UNL     1      11.223  -0.537   8.304  0.00  0.00    +0.167 C 
ATOM     23  C   UNL     1      11.463  -0.161   9.768  0.00  0.00    +0.051 C 
ATOM     24  C   UNL     1      12.113  -1.723   7.930  0.00  0.00    +0.051 C 
ENDBRANCH  21  22
ENDBRANCH  18  21
ENDBRANCH  12  15
BRANCH   1  25
ATOM     25  S   UNL     1       0.808  -0.760   3.648  0.00  0.00    +0.072 S 
ATOM     26  O   UNL     1       0.567   0.180   4.686  0.00  0.00    -0.150 OA
ATOM     27  O   UNL     1       0.410  -2.121   3.745  0.00  0.00    -0.150 OA
BRANCH  25  28
ATOM     28  N   UNL     1       0.091  -0.154   2.284  0.00  0.00    -0.216 N 
ATOM     29  H   UNL     1      -0.451   0.649   2.336  0.00  0.00    +0.174 HD
BRANCH  28  36
ATOM     30  C   UNL     1       0.275   1.448  -0.060  0.00  0.00    +0.046 C 
ATOM     31  C   UNL     1       0.362  -0.055  -0.112  0.00  0.00    -0.028 A 
ATOM     32  C   UNL     1       0.542  -0.695  -1.323  0.00  0.00    +0.005 A 
ATOM     33  C   UNL     1       0.621  -2.075  -1.372  0.00  0.00    +0.000 A 
ATOM     34  C   UNL     1       0.521  -2.818  -0.210  0.00  0.00    +0.002 A 
ATOM     35  C   UNL     1       0.342  -2.185   1.003  0.00  0.00    +0.025 A 
ATOM     36  C   UNL     1       0.267  -0.798   1.057  0.00  0.00    +0.051 A 
ENDBRANCH  28  36
ENDBRANCH  25  28
ENDBRANCH   1  25
TORSDOF 6
