REMARK  Name = ZINC15228208
REMARK  15 active torsions:
REMARK  status: ('A' for Active; 'I' for Inactive)
REMARK    1  A    between atoms: C_1  and  C_2
REMARK    2  A    between atoms: C_2  and  C_3
REMARK    3  A    between atoms: C_3  and  C_4
REMARK    4  A    between atoms: C_4  and  N_5
REMARK    5  A    between atoms: N_5  and  C_6
REMARK    6  A    between atoms: C_14  and  C_16
REMARK    7  A    between atoms: C_16  and  S_17
REMARK    8  A    between atoms: S_17  and  C_18
REMARK    9  A    between atoms: C_21  and  C_23
REMARK   10  A    between atoms: C_25  and  O_33
REMARK   11  A    between atoms: C_26  and  O_31
REMARK   12  A    between atoms: C_27  and  O_29
REMARK   13  A    between atoms: O_29  and  C_30
REMARK   14  A    between atoms: O_31  and  C_32
REMARK   15  A    between atoms: O_33  and  C_34
REMARK                            x       y       z     vdW  Elec       q    Type
REMARK                         _______ _______ _______ _____ _____    ______ ____
ROOT
ATOM      1  C   UNL     1       4.747  -1.594   3.184  0.00  0.00    +0.278 A 
ATOM      2  N   UNL     1       4.538  -1.728   4.473  0.00  0.00    -0.101 NA
ATOM      3  N   UNL     1       3.533  -1.005   4.821  0.00  0.00    -0.106 NA
ATOM      4  C   UNL     1       3.059  -0.381   3.770  0.00  0.00    +0.249 A 
ATOM      5  O   UNL     1       3.815  -0.745   2.710  0.00  0.00    -0.411 OA
ENDROOT
BRANCH   4   6
ATOM      6  C   UNL     1       1.908   0.544   3.747  0.00  0.00    +0.046 A 
ATOM      7  C   UNL     1       1.213   0.826   4.924  0.00  0.00    +0.063 A 
ATOM      8  C   UNL     1       0.135   1.693   4.900  0.00  0.00    +0.166 A 
ATOM      9  C   UNL     1      -0.256   2.284   3.703  0.00  0.00    +0.204 A 
ATOM     10  C   UNL     1       0.434   2.005   2.528  0.00  0.00    +0.166 A 
ATOM     11  C   UNL     1       1.510   1.135   2.546  0.00  0.00    +0.063 A 
BRANCH  10  12
ATOM     12  O   UNL     1       0.049   2.585   1.359  0.00  0.00    -0.491 OA
ATOM     13  C   UNL     1       0.803   2.254   0.191  0.00  0.00    +0.277 C 
ENDBRANCH  10  12
BRANCH   9  14
ATOM     14  O   UNL     1      -1.316   3.136   3.681  0.00  0.00    -0.488 OA
ATOM     15  C   UNL     1      -2.604   2.564   3.443  0.00  0.00    +0.277 C 
ENDBRANCH   9  14
BRANCH   8  16
ATOM     16  O   UNL     1      -0.542   1.967   6.046  0.00  0.00    -0.491 OA
ATOM     17  C   UNL     1      -0.086   1.326   7.239  0.00  0.00    +0.277 C 
ENDBRANCH   8  16
ENDBRANCH   4   6
BRANCH   1  18
ATOM     18  S   UNL     1       6.011  -2.385   2.245  0.00  0.00    -0.056 S 
BRANCH  18  19
ATOM     19  C   UNL     1       6.823  -3.339   3.552  0.00  0.00    +0.174 C 
BRANCH  19  21
ATOM     20  N   UNL     1       8.786  -4.827   3.771  0.00  0.00    -0.296 N 
ATOM     21  C   UNL     1       7.971  -4.120   2.965  0.00  0.00    +0.226 C 
ATOM     22  O   UNL     1       8.160  -4.111   1.767  0.00  0.00    -0.275 OA
BRANCH  20  23
ATOM     23  C   UNL     1       8.494  -4.929   5.202  0.00  0.00    +0.098 C 
ATOM     24  C   UNL     1       8.148  -6.386   5.551  0.00  0.00    +0.046 C 
ATOM     25  C   UNL     1       8.150  -6.528   7.099  0.00  0.00    +0.168 C 
ATOM     26  S   UNL     1       9.626  -5.512   7.528  0.00  0.00    -0.029 S 
ATOM     27  O   UNL     1      10.767  -6.357   7.589  0.00  0.00    -0.174 OA
ATOM     28  O   UNL     1       9.309  -4.681   8.637  0.00  0.00    -0.174 OA
ATOM     29  C   UNL     1       9.731  -4.473   6.013  0.00  0.00    +0.188 C 
ENDBRANCH  20  23
BRANCH  20  30
ATOM     30  C   UNL     1       9.966  -5.495   3.215  0.00  0.00    +0.108 C 
BRANCH  30  31
ATOM     31  C   UNL     1      11.116  -4.491   3.105  0.00  0.00    +0.019 C 
BRANCH  31  33
ATOM     32  C   UNL     1      13.453  -4.149   2.292  0.00  0.00    +0.004 C 
ATOM     33  C   UNL     1      12.304  -5.152   2.403  0.00  0.00    -0.002 C 
ENDBRANCH  31  33
ENDBRANCH  30  31
ENDBRANCH  20  30
ENDBRANCH  19  21
ENDBRANCH  18  19
ENDBRANCH   1  18
TORSDOF 11
