REMARK  Name = ZINC39659731
REMARK  7 active torsions:
REMARK  status: ('A' for Active; 'I' for Inactive)
REMARK    1  A    between atoms: C_1  and  C_2
REMARK    2  A    between atoms: C_2  and  C_3
REMARK    3  A    between atoms: C_3  and  C_4
REMARK    4  A    between atoms: C_4  and  C_6
REMARK    5  A    between atoms: C_4  and  C_7
REMARK    6  A    between atoms: C_11  and  C_20
REMARK    7  A    between atoms: N_22  and  C_23
REMARK                            x       y       z     vdW  Elec       q    Type
REMARK                         _______ _______ _______ _____ _____    ______ ____
ROOT
ATOM      1  C   UNL     1       1.779  -2.438  -2.208  0.00  0.00    +0.218 C 
ATOM      2  O   UNL     1       2.459  -1.706  -2.895  0.00  0.00    -0.275 OA
ATOM      3  N   UNL     1       1.729  -3.758  -2.474  0.00  0.00    -0.300 N 
ATOM      4  C   UNL     1       0.876  -4.784  -1.827  0.00  0.00    +0.121 C 
ATOM      5  C   UNL     1       0.438  -5.712  -2.983  0.00  0.00    +0.100 C 
ATOM      6  C   UNL     1       1.518  -5.531  -4.063  0.00  0.00    -0.004 C 
ATOM      7  C   UNL     1       2.510  -4.512  -3.484  0.00  0.00    +0.115 C 
ATOM      8  C   UNL     1       0.897  -4.984  -5.344  0.00  0.00    -0.010 C 
ATOM      9  C   UNL     1       1.980  -4.866  -6.421  0.00  0.00    -0.082 C 
ATOM     10  N   UNL     1       2.574  -6.186  -6.665  0.00  0.00    +0.379 N 
ATOM     11  C   UNL     1       3.249  -6.664  -5.453  0.00  0.00    -0.082 C 
ATOM     12  C   UNL     1       2.220  -6.857  -4.335  0.00  0.00    -0.010 C 
ATOM     13  H   UNL     1       1.848  -6.838  -6.923  0.00  0.00    -0.086 HD
ATOM     14  H   UNL     1       3.244  -6.118  -7.417  0.00  0.00    -0.086 HD
ENDROOT
BRANCH   5  15
ATOM     15  C   UNL     1      -0.910  -5.292  -3.510  0.00  0.00    +0.218 C 
ATOM     16  O   UNL     1      -1.278  -4.143  -3.389  0.00  0.00    -0.275 OA
ATOM     17  N   UNL     1      -1.707  -6.194  -4.116  0.00  0.00    -0.312 N 
ATOM     18  H   UNL     1      -1.413  -7.114  -4.213  0.00  0.00    +0.149 HD
BRANCH  17  19
ATOM     19  C   UNL     1      -3.018  -5.787  -4.628  0.00  0.00    +0.073 C 
ATOM     20  C   UNL     1      -4.049  -5.852  -3.500  0.00  0.00    +0.022 C 
ATOM     21  C   UNL     1      -5.298  -5.067  -3.906  0.00  0.00    +0.002 C 
ATOM     22  C   UNL     1      -4.883  -3.740  -4.545  0.00  0.00    +0.000 C 
ATOM     23  C   UNL     1      -5.263  -3.747  -6.027  0.00  0.00    +0.000 C 
ATOM     24  C   UNL     1      -4.272  -4.617  -6.803  0.00  0.00    +0.000 C 
ATOM     25  C   UNL     1      -4.583  -6.093  -6.551  0.00  0.00    +0.002 C 
ATOM     26  C   UNL     1      -3.438  -6.728  -5.759  0.00  0.00    +0.022 C 
ENDBRANCH  17  19
ENDBRANCH   5  15
BRANCH   1  27
ATOM     27  C   UNL     1       0.989  -1.871  -1.056  0.00  0.00    +0.072 C 
ATOM     28  C   UNL     1       0.496  -0.469  -1.417  0.00  0.00    +0.017 C 
BRANCH  27  29
ATOM     29  C   UNL     1       1.881  -1.795   0.185  0.00  0.00    +0.012 C 
BRANCH  29  31
ATOM     30  C   UNL     1       1.940  -1.261   2.625  0.00  0.00    +0.004 C 
ATOM     31  C   UNL     1       1.048  -1.338   1.384  0.00  0.00    -0.003 C 
ENDBRANCH  29  31
ENDBRANCH  27  29
ENDBRANCH   1  27
TORSDOF 5
