REMARK  Name = ZINC12745853
REMARK  10 active torsions:
REMARK  status: ('A' for Active; 'I' for Inactive)
REMARK    1  A    between atoms: C_1  and  C_2
REMARK    2  A    between atoms: C_2  and  C_3
REMARK    3  A    between atoms: C_3  and  C_5
REMARK    4  A    between atoms: C_3  and  N_6
REMARK    5  A    between atoms: N_6  and  C_7
REMARK    6  A    between atoms: C_15  and  C_17
REMARK    7  A    between atoms: C_17  and  N_18
REMARK    8  A    between atoms: C_21  and  C_25
REMARK    9  A    between atoms: C_21  and  C_26
REMARK   10  A    between atoms: C_30  and  N_32
REMARK                            x       y       z     vdW  Elec       q    Type
REMARK                         _______ _______ _______ _____ _____    ______ ____
ROOT
ATOM      1  N   UNL     1      -2.771  -1.280  -1.557  0.00  0.00    -0.215 N 
ATOM      2  C   UNL     1      -2.418  -0.348  -0.650  0.00  0.00    +0.251 C 
ATOM      3  O   UNL     1      -2.764   0.814  -0.621  0.00  0.00    -0.272 OA
ATOM      4  C   UNL     1      -1.500  -1.054   0.328  0.00  0.00    +0.135 C 
ATOM      5  N   UNL     1      -1.435  -2.431  -0.191  0.00  0.00    -0.281 N 
ATOM      6  C   UNL     1      -2.208  -2.465  -1.291  0.00  0.00    +0.310 C 
ATOM      7  O   UNL     1      -2.377  -3.460  -1.968  0.00  0.00    -0.252 OA
ATOM      8  C   UNL     1      -2.094  -1.037   1.738  0.00  0.00    +0.047 C 
ATOM      9  H   UNL     1      -0.933  -3.170   0.188  0.00  0.00    +0.152 HD
ENDROOT
BRANCH   4  10
ATOM     10  C   UNL     1      -0.132  -0.421   0.323  0.00  0.00    -0.014 A 
ATOM     11  C   UNL     1      -0.003   0.942   0.127  0.00  0.00    +0.006 A 
ATOM     12  C   UNL     1       1.250   1.527   0.122  0.00  0.00    +0.002 A 
ATOM     13  C   UNL     1       2.377   0.750   0.312  0.00  0.00    +0.028 A 
ATOM     14  C   UNL     1       2.250  -0.618   0.508  0.00  0.00    +0.069 A 
ATOM     15  C   UNL     1       0.991  -1.202   0.513  0.00  0.00    +0.034 A 
BRANCH  14  16
ATOM     16  N   UNL     1       3.392  -1.409   0.701  0.00  0.00    -0.200 N 
ATOM     17  C   UNL     1       4.679  -0.999   0.724  0.00  0.00    +0.250 A 
ATOM     18  N   UNL     1       5.419  -2.057   0.931  0.00  0.00    -0.116 NA
ATOM     19  N   UNL     1       4.688  -3.107   1.040  0.00  0.00    -0.023 NA
ATOM     20  N   UNL     1       3.442  -2.797   0.918  0.00  0.00    -0.039 NA
ENDBRANCH  14  16
ENDBRANCH   4  10
BRANCH   1  21
ATOM     21  C   UNL     1      -3.659  -1.027  -2.694  0.00  0.00    +0.213 C 
BRANCH  21  23
ATOM     22  N   UNL     1      -6.096  -0.677  -2.930  0.00  0.00    -0.293 N 
ATOM     23  C   UNL     1      -5.085  -1.294  -2.287  0.00  0.00    +0.234 C 
ATOM     24  O   UNL     1      -5.323  -2.063  -1.380  0.00  0.00    -0.274 OA
BRANCH  22  25
ATOM     25  C   UNL     1      -5.821   0.137  -4.117  0.00  0.00    +0.099 C 
ATOM     26  C   UNL     1      -4.995  -0.686  -5.119  0.00  0.00    +0.046 C 
ATOM     27  C   UNL     1      -4.455   0.282  -6.211  0.00  0.00    +0.168 C 
ATOM     28  S   UNL     1      -3.986   1.731  -5.175  0.00  0.00    -0.029 S 
ATOM     29  O   UNL     1      -2.619   1.612  -4.804  0.00  0.00    -0.174 OA
ATOM     30  O   UNL     1      -4.437   2.919  -5.810  0.00  0.00    -0.174 OA
ATOM     31  C   UNL     1      -5.034   1.403  -3.700  0.00  0.00    +0.188 C 
ENDBRANCH  22  25
BRANCH  22  32
ATOM     32  C   UNL     1      -7.470  -0.820  -2.442  0.00  0.00    +0.073 C 
ATOM     33  C   UNL     1      -7.569  -0.253  -1.024  0.00  0.00    +0.028 C 
BRANCH  32  35
ATOM     34  C   UNL     1      -7.896  -2.831  -3.862  0.00  0.00    +0.005 C 
ATOM     35  C   UNL     1      -7.854  -2.300  -2.427  0.00  0.00    +0.019 C 
ENDBRANCH  32  35
ENDBRANCH  22  32
ENDBRANCH  21  23
ENDBRANCH   1  21
TORSDOF 7
