REMARK  Name = ZINC15709088
REMARK  13 active torsions:
REMARK  status: ('A' for Active; 'I' for Inactive)
REMARK    1  A    between atoms: C_1  and  C_2
REMARK    2  A    between atoms: C_10  and  C_12
REMARK    3  A    between atoms: C_12  and  N_13
REMARK    4  A    between atoms: N_13  and  C_14
REMARK    5  A    between atoms: N_13  and  C_15
REMARK    6  A    between atoms: C_17  and  C_37
REMARK    7  A    between atoms: C_20  and  O_36
REMARK    8  A    between atoms: C_22  and  C_26
REMARK    9  A    between atoms: C_26  and  C_28
REMARK   10  A    between atoms: C_26  and  C_29
REMARK   11  A    between atoms: N_31  and  C_32
REMARK   12  A    between atoms: N_31  and  C_33
REMARK   13  A    between atoms: C_33  and  C_34
REMARK                            x       y       z     vdW  Elec       q    Type
REMARK                         _______ _______ _______ _____ _____    ______ ____
ROOT
ATOM      1  C   UNL     1      -0.137   1.824   0.665  0.00  0.00    +0.014 C 
ATOM      2  C   UNL     1      -0.171   0.307   0.468  0.00  0.00    +0.042 C 
ATOM      3  C   UNL     1      -1.591  -0.197   0.654  0.00  0.00    +0.057 A 
ATOM      4  C   UNL     1      -1.829  -1.346   1.335  0.00  0.00    +0.015 A 
ATOM      5  S   UNL     1      -3.594  -1.480   1.264  0.00  0.00    -0.057 S 
ATOM      6  C   UNL     1      -3.885  -0.073   0.381  0.00  0.00    +0.165 A 
ATOM      7  N   UNL     1      -2.679   0.413   0.189  0.00  0.00    -0.229 NA
ATOM      8  N   UNL     1      -5.103   0.446  -0.041  0.00  0.00    -0.266 N 
ATOM      9  C   UNL     1      -6.249  -0.200   0.255  0.00  0.00    +0.202 C 
ATOM     10  O   UNL     1      -6.217  -1.233   0.888  0.00  0.00    -0.277 OA
ATOM     11  C   UNL     1      -0.830  -2.245   1.973  0.00  0.00    +0.051 C 
ATOM     12  C   UNL     1       0.575  -1.883   1.451  0.00  0.00    -0.022 C 
ATOM     13  C   UNL     1       0.749  -0.364   1.498  0.00  0.00    +0.033 C 
ATOM     14  C   UNL     1       2.190   0.014   1.142  0.00  0.00    +0.123 C 
ATOM     15  C   UNL     1       3.169  -0.660   2.101  0.00  0.00    +0.029 C 
ATOM     16  C   UNL     1       3.013  -2.179   1.977  0.00  0.00    +0.007 C 
ATOM     17  C   UNL     1       1.589  -2.561   2.378  0.00  0.00    +0.008 C 
ATOM     18  C   UNL     1       0.749  -2.398   0.021  0.00  0.00    +0.012 C 
ATOM     19  H   UNL     1      -5.129   1.272  -0.547  0.00  0.00    +0.157 HD
ENDROOT
BRANCH  15  20
ATOM     20  C   UNL     1       4.600  -0.257   1.742  0.00  0.00    +0.078 C 
ATOM     21  C   UNL     1       4.957  -0.819   0.364  0.00  0.00    +0.017 C 
BRANCH  20  22
ATOM     22  C   UNL     1       5.551  -0.810   2.771  0.00  0.00    +0.219 C 
ATOM     23  O   UNL     1       6.133  -1.853   2.561  0.00  0.00    -0.275 OA
ATOM     24  N   UNL     1       5.756  -0.145   3.925  0.00  0.00    -0.301 N 
ATOM     25  C   UNL     1       4.971   1.054   4.229  0.00  0.00    +0.132 C 
BRANCH  24  26
ATOM     26  C   UNL     1       6.763  -0.621   4.877  0.00  0.00    +0.134 C 
BRANCH  26  27
ATOM     27  C   UNL     1       8.091   0.020   4.565  0.00  0.00    -0.016 C 
ATOM     28  C   UNL     1       8.734   0.680   5.496  0.00  0.00    +0.005 C 
ENDBRANCH  26  27
ENDBRANCH  24  26
ENDBRANCH  20  22
ENDBRANCH  15  20
BRANCH  14  29
ATOM     29  O   UNL     1       2.344   1.431   1.234  0.00  0.00    -0.391 OA
ATOM     30  H   UNL     1       3.208   1.753   0.940  0.00  0.00    +0.210 HD
ENDBRANCH  14  29
BRANCH   9  31
ATOM     31  C   UNL     1      -7.570   0.363  -0.203  0.00  0.00    +0.018 C 
BRANCH  31  32
ATOM     32  N   UNL     1      -8.658  -0.518   0.242  0.00  0.00    +0.382 N 
ATOM     33  C   UNL     1      -8.722  -0.516   1.709  0.00  0.00    -0.096 C 
ATOM     34  C   UNL     1      -9.933  -0.036  -0.304  0.00  0.00    -0.096 C 
ATOM     35  H   UNL     1      -8.485  -1.457  -0.086  0.00  0.00    -0.082 HD
ENDBRANCH  31  32
ENDBRANCH   9  31
TORSDOF 7
