REMARK  Name = ZINC36622032
REMARK  5 active torsions:
REMARK  status: ('A' for Active; 'I' for Inactive)
REMARK    1  A    between atoms: C_1  and  C_2
REMARK    2  A    between atoms: C_2  and  C_4
REMARK    3  A    between atoms: C_2  and  N_14
REMARK    4  A    between atoms: C_15  and  C_17
REMARK    5  A    between atoms: C_23  and  C_25
REMARK                            x       y       z     vdW  Elec       q    Type
REMARK                         _______ _______ _______ _____ _____    ______ ____
ROOT
ATOM      1  N   UNL     1      -1.367  -0.518  -0.078  0.00  0.00    -0.309 N 
ATOM      2  C   UNL     1      -1.944  -0.715  -1.280  0.00  0.00    +0.217 C 
ATOM      3  O   UNL     1      -1.329  -0.465  -2.296  0.00  0.00    -0.275 OA
ATOM      4  H   UNL     1      -1.859  -0.718   0.734  0.00  0.00    +0.149 HD
ENDROOT
BRANCH   2   5
ATOM      5  C   UNL     1      -3.353  -1.244  -1.363  0.00  0.00    +0.078 C 
ATOM      6  C   UNL     1      -3.422  -2.616  -0.690  0.00  0.00    +0.032 C 
ATOM      7  C   UNL     1      -4.862  -3.135  -0.745  0.00  0.00    +0.108 C 
ATOM      8  N   UNL     1      -5.315  -3.125  -2.143  0.00  0.00    -0.301 N 
ATOM      9  C   UNL     1      -5.208  -1.877  -2.911  0.00  0.00    +0.108 C 
ATOM     10  C   UNL     1      -3.764  -1.373  -2.832  0.00  0.00    +0.032 C 
ATOM     11  C   UNL     1      -5.820  -4.239  -2.709  0.00  0.00    +0.219 C 
ATOM     12  O   UNL     1      -5.903  -5.263  -2.064  0.00  0.00    -0.275 OA
BRANCH  11  13
ATOM     13  C   UNL     1      -6.280  -4.213  -4.144  0.00  0.00    +0.075 C 
ATOM     14  C   UNL     1      -7.782  -4.345  -4.407  0.00  0.00    +0.013 C 
ATOM     15  C   UNL     1      -6.843  -5.510  -4.729  0.00  0.00    +0.013 C 
ENDBRANCH  11  13
ENDBRANCH   2   5
BRANCH   1  17
ATOM     16  C   UNL     1      -0.026   1.526  -0.016  0.00  0.00    +0.033 C 
ATOM     17  C   UNL     1       0.002  -0.004   0.002  0.00  0.00    +0.101 C 
BRANCH  17  18
ATOM     18  C   UNL     1       0.643  -0.480   1.280  0.00  0.00    -0.020 A 
ATOM     19  C   UNL     1      -0.126  -0.765   2.367  0.00  0.00    +0.006 A 
ATOM     20  C   UNL     1       0.449  -1.206   3.557  0.00  0.00    +0.001 A 
ATOM     21  C   UNL     1       1.796  -1.365   3.667  0.00  0.00    +0.008 A 
ATOM     22  C   UNL     1       2.623  -1.081   2.567  0.00  0.00    -0.018 A 
ATOM     23  C   UNL     1       2.037  -0.638   1.355  0.00  0.00    -0.013 A 
ATOM     24  C   UNL     1       2.864  -0.360   0.252  0.00  0.00    +0.009 A 
ATOM     25  C   UNL     1       4.210  -0.524   0.361  0.00  0.00    +0.001 A 
ATOM     26  C   UNL     1       4.785  -0.966   1.552  0.00  0.00    +0.001 A 
ATOM     27  C   UNL     1       4.018  -1.232   2.644  0.00  0.00    +0.008 A 
ENDBRANCH  17  18
ENDBRANCH   1  17
TORSDOF 4
