REMARK  Name = ZINC67070487
REMARK  7 active torsions:
REMARK  status: ('A' for Active; 'I' for Inactive)
REMARK    1  A    between atoms: C_1  and  C_2
REMARK    2  A    between atoms: C_4  and  C_15
REMARK    3  A    between atoms: C_5  and  C_14
REMARK    4  A    between atoms: N_6  and  C_7
REMARK    5  A    between atoms: N_17  and  C_18
REMARK    6  A    between atoms: C_18  and  C_19
REMARK    7  A    between atoms: N_23  and  C_24
REMARK                            x       y       z     vdW  Elec       q    Type
REMARK                         _______ _______ _______ _____ _____    ______ ____
ROOT
ATOM      1  C   UNL     1       1.079  -3.380  -1.568  0.00  0.00    +0.246 C 
ATOM      2  O   UNL     1       1.194  -4.474  -1.050  0.00  0.00    -0.270 OA
ATOM      3  N   UNL     1       0.782  -3.283  -2.879  0.00  0.00    -0.304 N 
ATOM      4  H   UNL     1       0.690  -2.410  -3.292  0.00  0.00    +0.149 HD
ENDROOT
BRANCH   1   8
ATOM      5  C   UNL     1       1.407   1.511  -0.152  0.00  0.00    +0.064 C 
ATOM      6  C   UNL     1       1.403   0.004  -0.158  0.00  0.00    +0.022 A 
ATOM      7  C   UNL     1       1.160  -0.773  -1.228  0.00  0.00    +0.036 A 
ATOM      8  C   UNL     1       1.264  -2.161  -0.762  0.00  0.00    +0.058 A 
ATOM      9  C   UNL     1       1.565  -2.095   0.570  0.00  0.00    +0.033 A 
ATOM     10  N   UNL     1       1.653  -0.795   0.922  0.00  0.00    -0.317 N 
ATOM     11  C   UNL     1       1.771  -3.272   1.488  0.00  0.00    +0.064 C 
BRANCH  10  12
ATOM     12  C   UNL     1       1.952  -0.332   2.210  0.00  0.00    +0.049 A 
ATOM     13  C   UNL     1       3.202  -0.578   2.765  0.00  0.00    +0.026 A 
ATOM     14  C   UNL     1       3.495  -0.121   4.035  0.00  0.00    +0.005 A 
ATOM     15  C   UNL     1       2.547   0.582   4.755  0.00  0.00    +0.038 A 
ATOM     16  C   UNL     1       1.300   0.829   4.206  0.00  0.00    +0.125 A 
ATOM     17  C   UNL     1       1.003   0.378   2.932  0.00  0.00    +0.064 A 
ATOM     18  F   UNL     1       0.375   1.515   4.912  0.00  0.00    -0.205 F 
ENDBRANCH  10  12
ENDBRANCH   1   8
BRANCH   3  19
ATOM     19  C   UNL     1       0.598  -4.496  -3.680  0.00  0.00    +0.181 C 
BRANCH  19  20
ATOM     20  C   UNL     1       0.277  -4.114  -5.102  0.00  0.00    +0.149 A 
ATOM     21  N   UNL     1       0.182  -2.905  -5.554  0.00  0.00    -0.157 NA
ATOM     22  N   UNL     1      -0.130  -2.974  -6.919  0.00  0.00    -0.254 N 
ATOM     23  C   UNL     1      -0.213  -4.280  -7.247  0.00  0.00    +0.176 A 
ATOM     24  N   UNL     1       0.042  -4.992  -6.131  0.00  0.00    -0.303 N 
ATOM     25  S   UNL     1      -0.571  -4.916  -8.796  0.00  0.00    -0.011 S 
ATOM     26  H   UNL     1      -0.261  -2.221  -7.517  0.00  0.00    +0.191 HD
BRANCH  24  27
ATOM     27  C   UNL     1       0.062  -6.454  -6.033  0.00  0.00    +0.091 C 
ATOM     28  C   UNL     1       0.152  -7.249  -7.337  0.00  0.00    +0.027 C 
ATOM     29  C   UNL     1      -1.160  -7.214  -6.552  0.00  0.00    +0.027 C 
ENDBRANCH  24  27
ENDBRANCH  19  20
ENDBRANCH   3  19
TORSDOF 5
