REMARK  Name = ZINC36504436
REMARK  18 active torsions:
REMARK  status: ('A' for Active; 'I' for Inactive)
REMARK    1  A    between atoms: C_1  and  C_2
REMARK    2  A    between atoms: C_2  and  C_3
REMARK    3  A    between atoms: C_2  and  C_4
REMARK    4  A    between atoms: C_2  and  C_5
REMARK    5  A    between atoms: C_5  and  C_6
REMARK    6  A    between atoms: C_6  and  C_7
REMARK    7  A    between atoms: C_6  and  C_8
REMARK    8  A    between atoms: C_6  and  N_9
REMARK    9  A    between atoms: C_10  and  C_12
REMARK   10  A    between atoms: C_12  and  C_14
REMARK   11  A    between atoms: C_12  and  N_22
REMARK   12  A    between atoms: C_17  and  O_20
REMARK   13  A    between atoms: O_20  and  C_21
REMARK   14  A    between atoms: N_22  and  C_23
REMARK   15  A    between atoms: C_23  and  C_24
REMARK   16  A    between atoms: C_29  and  C_31
REMARK   17  A    between atoms: C_31  and  N_32
REMARK   18  A    between atoms: C_33  and  C_35
REMARK                            x       y       z     vdW  Elec       q    Type
REMARK                         _______ _______ _______ _____ _____    ______ ____
ROOT
ATOM      1  C   UNL     1       5.197  -0.591  -4.200  0.00  0.00    +0.193 C 
ENDROOT
BRANCH   1   2
ATOM      2  C   UNL     1       5.720  -1.948  -4.596  0.00  0.00    -0.018 A 
ATOM      3  C   UNL     1       6.862  -2.448  -4.000  0.00  0.00    +0.009 A 
ATOM      4  C   UNL     1       7.344  -3.692  -4.362  0.00  0.00    +0.046 A 
ATOM      5  C   UNL     1       6.680  -4.438  -5.325  0.00  0.00    +0.120 A 
ATOM      6  C   UNL     1       5.533  -3.934  -5.921  0.00  0.00    +0.046 A 
ATOM      7  C   UNL     1       5.053  -2.692  -5.552  0.00  0.00    +0.009 A 
BRANCH   5   8
ATOM      8  O   UNL     1       7.152  -5.661  -5.683  0.00  0.00    -0.495 OA
ATOM      9  C   UNL     1       6.417  -6.373  -6.680  0.00  0.00    +0.277 C 
ENDBRANCH   5   8
ENDBRANCH   1   2
BRANCH   1  11
ATOM     10  N   UNL     1       3.695  -1.699  -2.576  0.00  0.00    -0.308 N 
ATOM     11  C   UNL     1       4.538  -0.683  -2.848  0.00  0.00    +0.239 C 
ATOM     12  O   UNL     1       4.766   0.159  -2.004  0.00  0.00    -0.273 OA
ATOM     13  H   UNL     1       3.513  -2.371  -3.251  0.00  0.00    +0.149 HD
BRANCH  10  14
ATOM     14  C   UNL     1       3.054  -1.788  -1.261  0.00  0.00    +0.030 C 
ATOM     15  C   UNL     1       2.481  -0.421  -0.880  0.00  0.00    +0.031 C 
ATOM     16  C   UNL     1       4.088  -2.215  -0.218  0.00  0.00    +0.031 C 
BRANCH  14  17
ATOM     17  C   UNL     1       1.925  -2.819  -1.313  0.00  0.00    +0.031 C 
BRANCH  17  19
ATOM     18  C   UNL     1       1.799  -3.243  -3.772  0.00  0.00    +0.010 C 
ATOM     19  C   UNL     1       1.092  -2.600  -2.577  0.00  0.00    -0.036 C 
ATOM     20  C   UNL     1       0.930  -1.099  -2.828  0.00  0.00    +0.010 C 
ATOM     21  C   UNL     1      -0.286  -3.238  -2.397  0.00  0.00    +0.010 C 
ENDBRANCH  17  19
ENDBRANCH  14  17
ENDBRANCH  10  14
ENDBRANCH   1  11
BRANCH   1  22
ATOM     22  N   UNL     1       6.308   0.361  -4.138  0.00  0.00    -0.277 N 
ATOM     23  C   UNL     1       6.889   0.794  -5.275  0.00  0.00    +0.234 C 
ATOM     24  O   UNL     1       6.491   0.395  -6.349  0.00  0.00    -0.274 OA
BRANCH  22  25
ATOM     25  C   UNL     1       6.788   0.844  -2.841  0.00  0.00    +0.183 C 
BRANCH  25  26
ATOM     26  C   UNL     1       7.440  -0.290  -2.093  0.00  0.00    +0.122 A 
ATOM     27  C   UNL     1       8.720  -0.685  -2.222  0.00  0.00    +0.046 A 
ATOM     28  C   UNL     1       8.903  -1.774  -1.340  0.00  0.00    +0.041 A 
ATOM     29  C   UNL     1       7.725  -1.980  -0.725  0.00  0.00    +0.195 A 
ATOM     30  O   UNL     1       6.844  -1.075  -1.180  0.00  0.00    -0.466 OA
ENDBRANCH  25  26
ENDBRANCH  22  25
BRANCH  23  31
ATOM     31  C   UNL     1       8.032   1.774  -5.211  0.00  0.00    +0.200 C 
BRANCH  31  32
ATOM     32  N   UNL     1       8.484   2.085  -6.569  0.00  0.00    -0.303 N 
ATOM     33  C   UNL     1       9.504   2.946  -6.760  0.00  0.00    +0.244 C 
ATOM     34  O   UNL     1      10.048   3.464  -5.804  0.00  0.00    -0.270 OA
ATOM     35  H   UNL     1       8.050   1.671  -7.332  0.00  0.00    +0.150 HD
BRANCH  33  36
ATOM     36  C   UNL     1       9.961   3.259  -8.130  0.00  0.00    +0.037 A 
ATOM     37  C   UNL     1       9.335   2.671  -9.230  0.00  0.00    +0.013 A 
ATOM     38  C   UNL     1       9.765   2.968 -10.506  0.00  0.00    +0.001 A 
ATOM     39  C   UNL     1      10.816   3.847 -10.697  0.00  0.00    +0.000 A 
ATOM     40  C   UNL     1      11.442   4.434  -9.612  0.00  0.00    +0.001 A 
ATOM     41  C   UNL     1      11.017   4.150  -8.330  0.00  0.00    +0.013 A 
ENDBRANCH  33  36
ENDBRANCH  31  32
ENDBRANCH  23  31
ENDBRANCH   1  22
TORSDOF 12
