REMARK  Name = ZINC16041357
REMARK  7 active torsions:
REMARK  status: ('A' for Active; 'I' for Inactive)
REMARK    1  A    between atoms: C_4  and  N_29
REMARK    2  A    between atoms: C_5  and  C_7
REMARK    3  A    between atoms: N_9  and  C_10
REMARK    4  A    between atoms: C_10  and  C_12
REMARK    5  A    between atoms: C_10  and  O_16
REMARK    6  A    between atoms: O_16  and  C_17
REMARK    7  A    between atoms: C_17  and  C_18
REMARK                            x       y       z     vdW  Elec       q    Type
REMARK                         _______ _______ _______ _____ _____    ______ ____
ROOT
ATOM      1  C   UNL     1      -0.884   2.311   0.921  0.00  0.00    +0.257 C 
ENDROOT
BRANCH   1   4
ATOM      2  C   UNL     1      -1.887   4.419   1.619  0.00  0.00    +0.248 C 
ATOM      3  O   UNL     1      -2.814   3.789   2.088  0.00  0.00    -0.270 OA
ATOM      4  N   UNL     1      -0.870   3.773   1.014  0.00  0.00    -0.283 N 
ATOM      5  H   UNL     1      -0.130   4.276   0.641  0.00  0.00    +0.152 HD
BRANCH   2  10
ATOM      6  C   UNL     1      -0.745   7.990   1.385  0.00  0.00    +0.001 A 
ATOM      7  C   UNL     1      -1.847   8.658   1.889  0.00  0.00    +0.002 A 
ATOM      8  C   UNL     1      -2.961   7.952   2.306  0.00  0.00    +0.033 A 
ATOM      9  C   UNL     1      -2.980   6.575   2.221  0.00  0.00    +0.138 A 
ATOM     10  C   UNL     1      -1.873   5.895   1.713  0.00  0.00    +0.067 A 
ATOM     11  C   UNL     1      -0.749   6.613   1.299  0.00  0.00    +0.015 A 
BRANCH   9  12
ATOM     12  N   UNL     1      -4.173   5.821   2.668  0.00  0.00    +0.057 N 
ATOM     13  O   UNL     1      -4.678   4.991   1.935  0.00  0.00    -0.126 OA
ATOM     14  O   UNL     1      -4.648   6.031   3.770  0.00  0.00    -0.126 OA
ENDBRANCH   9  12
ENDBRANCH   2  10
ENDBRANCH   1   4
BRANCH   1  15
ATOM     15  C   UNL     1      -0.252   1.878  -0.403  0.00  0.00    +0.233 C 
ATOM     16 CL   UNL     1      -0.269   0.079  -0.518  0.00  0.00    -0.079 Cl
ATOM     17 CL   UNL     1       1.449   2.469  -0.479  0.00  0.00    -0.079 Cl
ATOM     18 CL   UNL     1      -1.193   2.577  -1.774  0.00  0.00    -0.079 Cl
ENDBRANCH   1  15
BRANCH   1  19
ATOM     19  O   UNL     1      -0.139   1.758   2.008  0.00  0.00    -0.354 OA
BRANCH  19  20
ATOM     20  C   UNL     1      -0.817   1.809   3.264  0.00  0.00    +0.164 C 
BRANCH  20  21
ATOM     21  C   UNL     1       0.069   1.193   4.348  0.00  0.00    +0.001 C 
ATOM     22  C   UNL     1       1.322   2.051   4.529  0.00  0.00    +0.002 C 
ATOM     23  C   UNL     1       0.897   3.448   4.994  0.00  0.00    -0.018 C 
ATOM     24  C   UNL     1       0.123   3.317   6.305  0.00  0.00    -0.078 C 
ATOM     25  C   UNL     1      -0.710   1.126   5.666  0.00  0.00    -0.063 C 
ATOM     26  C   UNL     1      -1.977   0.297   5.428  0.00  0.00    -0.015 C 
ATOM     27  C   UNL     1      -2.809   0.241   6.710  0.00  0.00    -0.003 C 
ATOM     28  C   UNL     1      -3.154   1.673   7.134  0.00  0.00    -0.019 C 
ATOM     29  C   UNL     1      -1.856   2.449   7.351  0.00  0.00    -0.078 C 
ATOM     30  N   UNL     1      -1.083   2.498   6.095  0.00  0.00    +0.382 N 
ATOM     31  H   UNL     1      -1.659   2.929   5.362  0.00  0.00    -0.081 HD
ENDBRANCH  20  21
ENDBRANCH  19  20
ENDBRANCH   1  19
TORSDOF 7
