REMARK  Name = ZINC64864065
REMARK  3 active torsions:
REMARK  status: ('A' for Active; 'I' for Inactive)
REMARK    1  A    between atoms: N_9  and  N_12
REMARK    2  A    between atoms: C_13  and  C_15
REMARK    3  A    between atoms: C_16  and  C_17
REMARK                            x       y       z     vdW  Elec       q    Type
REMARK                         _______ _______ _______ _____ _____    ______ ____
ROOT
ATOM      1  C   UNL     1      -0.017   1.382   0.010  0.00  0.00    +0.001 A 
ATOM      2  C   UNL     1       1.165   2.099   0.002  0.00  0.00    +0.001 A 
ATOM      3  C   UNL     1       2.385   1.442  -0.013  0.00  0.00    +0.014 A 
ATOM      4  C   UNL     1       2.420   0.056  -0.021  0.00  0.00    +0.051 A 
ATOM      5  C   UNL     1       1.215  -0.675  -0.013  0.00  0.00    +0.051 A 
ATOM      6  C   UNL     1       0.002  -0.004   0.002  0.00  0.00    +0.014 A 
ATOM      7  C   UNL     1       1.606  -2.100  -0.025  0.00  0.00    +0.271 C 
ATOM      8  O   UNL     1       0.843  -3.045  -0.023  0.00  0.00    -0.268 OA
ATOM      9  N   UNL     1       2.949  -2.175  -0.039  0.00  0.00    -0.147 N 
ATOM     10  C   UNL     1       3.503  -0.949  -0.037  0.00  0.00    +0.271 C 
ATOM     11  O   UNL     1       4.693  -0.709  -0.048  0.00  0.00    -0.268 OA
ENDROOT
BRANCH   9  12
ATOM     12  N   UNL     1       3.676  -3.373  -0.052  0.00  0.00    -0.221 N 
ATOM     13  C   UNL     1       4.272  -3.786  -1.188  0.00  0.00    +0.254 C 
ATOM     14  O   UNL     1       4.180  -3.119  -2.202  0.00  0.00    -0.269 OA
ATOM     15  H   UNL     1       3.749  -3.905   0.755  0.00  0.00    +0.174 HD
BRANCH  13  16
ATOM     16  C   UNL     1       5.007  -4.998  -1.202  0.00  0.00    +0.071 C 
ATOM     17  C   UNL     1       5.606  -5.412  -2.342  0.00  0.00    +0.033 C 
BRANCH  17  18
ATOM     18  C   UNL     1       6.367  -6.667  -2.356  0.00  0.00    +0.071 A 
ATOM     19  C   UNL     1       7.000  -7.129  -3.494  0.00  0.00    +0.074 A 
ATOM     20  S   UNL     1       7.698  -8.562  -2.961  0.00  0.00    -0.083 S 
ATOM     21  C   UNL     1       7.185  -8.537  -1.363  0.00  0.00    +0.156 A 
ATOM     22  N   UNL     1       6.496  -7.433  -1.267  0.00  0.00    -0.248 NA
ENDBRANCH  17  18
ENDBRANCH  13  16
ENDBRANCH   9  12
TORSDOF 3
