REMARK  Name = ZINC44465288
REMARK  8 active torsions:
REMARK  status: ('A' for Active; 'I' for Inactive)
REMARK    1  A    between atoms: C_1  and  N_2
REMARK    2  A    between atoms: C_9  and  C_20
REMARK    3  A    between atoms: C_10  and  S_11
REMARK    4  A    between atoms: S_11  and  C_12
REMARK    5  A    between atoms: C_20  and  CA_21
REMARK    6  A    between atoms: CA_21  and  C_23
REMARK    7  A    between atoms: CA_21  and  N_25
REMARK    8  A    between atoms: C_23  and  O_24
REMARK                            x       y       z     vdW  Elec       q    Type
REMARK                         _______ _______ _______ _____ _____    ______ ____
ROOT
ATOM      1  C   UNL     1      -0.890   1.166   0.079  0.00  0.00    +0.150 C 
ATOM      2  N   UNL     1      -0.182  -0.115   0.020  0.00  0.00    -0.338 N 
ATOM      3  C   UNL     1       0.060  -0.836  -1.132  0.00  0.00    +0.050 A 
ATOM      4  C   UNL     1      -0.245  -0.626  -2.471  0.00  0.00    +0.026 A 
ATOM      5  C   UNL     1       0.141  -1.554  -3.416  0.00  0.00    +0.002 A 
ATOM      6  C   UNL     1       0.832  -2.698  -3.043  0.00  0.00    +0.001 A 
ATOM      7  C   UNL     1       1.143  -2.925  -1.732  0.00  0.00    +0.010 A 
ATOM      8  C   UNL     1       0.762  -1.998  -0.758  0.00  0.00    +0.004 A 
ATOM      9  C   UNL     1       0.926  -1.926   0.694  0.00  0.00    -0.009 A 
ATOM     10  C   UNL     1       0.346  -0.774   1.101  0.00  0.00    +0.085 A 
ENDROOT
BRANCH  10  11
ATOM     11  S   UNL     1       0.273  -0.208   2.768  0.00  0.00    -0.068 S 
BRANCH  11  12
ATOM     12  C   UNL     1       0.085   1.537   2.618  0.00  0.00    +0.051 A 
ATOM     13  C   UNL     1       1.180   2.332   2.299  0.00  0.00    +0.056 A 
ATOM     14  C   UNL     1       1.028   3.701   2.182  0.00  0.00    +0.021 A 
ATOM     15  C   UNL     1      -0.212   4.280   2.382  0.00  0.00    +0.003 A 
ATOM     16  C   UNL     1      -1.304   3.493   2.699  0.00  0.00    +0.021 A 
ATOM     17  C   UNL     1      -1.161   2.123   2.812  0.00  0.00    +0.056 A 
ATOM     18 CL   UNL     1      -2.534   1.135   3.204  0.00  0.00    -0.082 Cl
ATOM     19 CL   UNL     1       2.737   1.606   2.050  0.00  0.00    -0.082 Cl
ENDBRANCH  11  12
ENDBRANCH  10  11
BRANCH   9  20
ATOM     20  C   UNL     1       1.616  -2.940   1.570  0.00  0.00    +0.024 C 
BRANCH  20  21
ATOM     21  CA  UNL     1       3.099  -2.585   1.690  0.00  0.00    -0.045 C 
BRANCH  21  22
ATOM     22  N   UNL     1       3.240  -1.304   2.395  0.00  0.00    +0.382 N 
ATOM     23  H1  UNL     1       2.837  -1.380   3.316  0.00  0.00    -0.090 HD
ATOM     24  H2  UNL     1       4.218  -1.069   2.474  0.00  0.00    -0.090 HD
ATOM     25  H3  UNL     1       2.762  -0.581   1.877  0.00  0.00    -0.090 HD
ENDBRANCH  21  22
BRANCH  21  26
ATOM     26  C   UNL     1       3.824  -3.680   2.475  0.00  0.00    +0.140 C 
BRANCH  26  27
ATOM     27  O   UNL     1       5.227  -3.409   2.488  0.00  0.00    -0.397 OA
ATOM     28  H   UNL     1       5.750  -4.064   2.969  0.00  0.00    +0.209 HD
ENDBRANCH  26  27
ENDBRANCH  21  26
ENDBRANCH  20  21
ENDBRANCH   9  20
TORSDOF 7
