REMARK  Name = ZINC42911096
REMARK  10 active torsions:
REMARK  status: ('A' for Active; 'I' for Inactive)
REMARK    1  A    between atoms: C_1  and  C_2
REMARK    2  A    between atoms: C_2  and  C_3
REMARK    3  A    between atoms: C_2  and  N_4
REMARK    4  A    between atoms: C_5  and  C_7
REMARK    5  A    between atoms: C_7  and  N_8
REMARK    6  A    between atoms: N_16  and  C_17
REMARK    7  A    between atoms: C_19  and  C_25
REMARK    8  A    between atoms: C_19  and  C_26
REMARK    9  A    between atoms: C_21  and  C_23
REMARK   10  A    between atoms: C_21  and  C_24
REMARK                            x       y       z     vdW  Elec       q    Type
REMARK                         _______ _______ _______ _____ _____    ______ ____
ROOT
ATOM      1  N   UNL     1      -3.986  -1.233  -3.166  0.00  0.00    -0.291 NA
ATOM      2  C   UNL     1      -4.159   0.165  -3.581  0.00  0.00    +0.104 C 
ATOM      3  C   UNL     1      -4.671   0.207  -5.024  0.00  0.00    +0.124 C 
ATOM      4  N   UNL     1      -5.882  -0.622  -5.115  0.00  0.00    -0.283 N 
ATOM      5  C   UNL     1      -5.825  -1.996  -4.592  0.00  0.00    +0.124 C 
ATOM      6  C   UNL     1      -5.268  -1.951  -3.165  0.00  0.00    +0.104 C 
ATOM      7  C   UNL     1      -7.014  -0.137  -5.662  0.00  0.00    +0.302 C 
ATOM      8  O   UNL     1      -7.073   1.029  -6.003  0.00  0.00    -0.253 OA
ATOM      9  N   UNL     1      -8.080  -0.944  -5.833  0.00  0.00    -0.296 N 
ATOM     10  H   UNL     1      -8.059  -1.853  -5.495  0.00  0.00    +0.151 HD
ENDROOT
BRANCH   9  11
ATOM     11  C   UNL     1      -9.273  -0.446  -6.529  0.00  0.00    +0.072 C 
ATOM     12  C   UNL     1     -10.189   0.251  -5.522  0.00  0.00    +0.009 C 
ATOM     13  C   UNL     1     -11.443   0.764  -6.230  0.00  0.00    -0.072 C 
ATOM     14  N   UNL     1     -12.124  -0.289  -6.969  0.00  0.00    +0.386 N 
ATOM     15  C   UNL     1     -11.316  -1.156  -7.811  0.00  0.00    -0.072 C 
ATOM     16  C   UNL     1     -10.034  -1.627  -7.132  0.00  0.00    +0.009 C 
ATOM     17  C   UNL     1     -10.984  -0.496  -9.151  0.00  0.00    -0.010 C 
ATOM     18  C   UNL     1     -12.158  -2.416  -8.124  0.00  0.00    -0.010 C 
ATOM     19  C   UNL     1     -11.097   1.959  -7.118  0.00  0.00    -0.010 C 
ATOM     20  C   UNL     1     -12.412   1.270  -5.137  0.00  0.00    -0.010 C 
ATOM     21  H   UNL     1     -12.633  -0.872  -6.300  0.00  0.00    -0.084 HD
ATOM     22  H   UNL     1     -12.846   0.143  -7.551  0.00  0.00    -0.084 HD
ENDBRANCH   9  11
BRANCH   1  23
ATOM     23  C   UNL     1      -3.335  -1.316  -1.852  0.00  0.00    +0.180 C 
BRANCH  23  25
ATOM     24  N   UNL     1      -1.135  -0.767  -0.864  0.00  0.00    -0.312 N 
ATOM     25  C   UNL     1      -1.927  -0.788  -1.954  0.00  0.00    +0.227 C 
ATOM     26  O   UNL     1      -1.508  -0.383  -3.017  0.00  0.00    -0.274 OA
ATOM     27  H   UNL     1      -1.471  -1.091  -0.014  0.00  0.00    +0.149 HD
BRANCH  24  29
ATOM     28  C   UNL     1       0.221   1.268  -0.804  0.00  0.00    +0.027 C 
ATOM     29  C   UNL     1       0.234  -0.254  -0.964  0.00  0.00    +0.067 C 
ATOM     30  C   UNL     1       1.093  -0.875   0.139  0.00  0.00    +0.027 C 
ENDBRANCH  24  29
ENDBRANCH  23  25
ENDBRANCH   1  23
TORSDOF 4
