REMARK  Name = ZINC39353553
REMARK  4 active torsions:
REMARK  status: ('A' for Active; 'I' for Inactive)
REMARK    1  A    between atoms: C_6  and  C_7
REMARK    2  A    between atoms: C_11  and  C_13
REMARK    3  A    between atoms: C_13  and  N_14
REMARK    4  A    between atoms: N_23  and  C_24
REMARK                            x       y       z     vdW  Elec       q    Type
REMARK                         _______ _______ _______ _____ _____    ______ ____
ROOT
ATOM      1  N   UNL     1      -0.856  -4.348   1.164  0.00  0.00    +0.389 N 
ATOM      2  C   UNL     1       0.049  -4.839   0.094  0.00  0.00    -0.055 C 
ATOM      3  C   UNL     1       1.048  -5.786   0.831  0.00  0.00    +0.064 C 
ATOM      4  C   UNL     1       0.081  -6.389   1.916  0.00  0.00    +0.015 C 
ATOM      5  C   UNL     1      -0.352  -4.968   2.431  0.00  0.00    +0.022 C 
ATOM      6  C   UNL     1       1.034  -4.338   2.627  0.00  0.00    +0.206 C 
ATOM      7  O   UNL     1       1.341  -3.525   3.473  0.00  0.00    -0.277 OA
ATOM      8  N   UNL     1       1.869  -4.857   1.662  0.00  0.00    -0.271 N 
ATOM      9  H   UNL     1      -1.804  -4.645   0.984  0.00  0.00    -0.081 HD
ENDROOT
BRANCH   8  10
ATOM     10  C   UNL     1       3.233  -4.587   1.490  0.00  0.00    +0.040 A 
ATOM     11  C   UNL     1       3.940  -5.205   0.468  0.00  0.00    +0.027 A 
ATOM     12  C   UNL     1       5.285  -4.939   0.297  0.00  0.00    +0.051 A 
ATOM     13  C   UNL     1       5.932  -4.055   1.146  0.00  0.00    +0.166 A 
ATOM     14  C   UNL     1       5.225  -3.433   2.172  0.00  0.00    +0.168 A 
ATOM     15  C   UNL     1       3.876  -3.696   2.339  0.00  0.00    +0.073 A 
ATOM     16  O   UNL     1       6.079  -2.620   2.859  0.00  0.00    -0.453 OA
ATOM     17  C   UNL     1       7.402  -3.060   2.501  0.00  0.00    +0.466 C 
ATOM     18  O   UNL     1       7.229  -3.631   1.190  0.00  0.00    -0.453 OA
ENDBRANCH   8  10
BRANCH   1  19
ATOM     19  C   UNL     1      -0.790  -2.884   1.253  0.00  0.00    -0.062 C 
BRANCH  19  24
ATOM     20  C   UNL     1      -1.260  -0.760   0.011  0.00  0.00    +0.077 C 
ATOM     21  N   UNL     1      -2.470  -0.272   0.019  0.00  0.00    -0.153 NA
ATOM     22  N   UNL     1      -3.439  -1.270   0.026  0.00  0.00    -0.161 NA
ATOM     23  C   UNL     1      -2.927  -2.457   0.021  0.00  0.00    +0.115 C 
ATOM     24  C   UNL     1      -1.423  -2.267   0.004  0.00  0.00    +0.066 C 
BRANCH  20  30
ATOM     25  C   UNL     1      -0.017   1.395   0.010  0.00  0.00    +0.012 A 
ATOM     26  C   UNL     1       1.169   2.097   0.002  0.00  0.00    +0.039 A 
ATOM     27  C   UNL     1       2.379   1.420  -0.013  0.00  0.00    +0.123 A 
ATOM     28  C   UNL     1       2.405   0.033  -0.022  0.00  0.00    +0.039 A 
ATOM     29  C   UNL     1       1.226  -0.681  -0.014  0.00  0.00    +0.012 A 
ATOM     30  C   UNL     1       0.002  -0.004   0.002  0.00  0.00    -0.001 A 
ATOM     31  F   UNL     1       3.538   2.114  -0.021  0.00  0.00    -0.205 F 
ENDBRANCH  20  30
ENDBRANCH  19  24
ENDBRANCH   1  19
TORSDOF 4
