REMARK  Name = ZINC40318974
REMARK  10 active torsions:
REMARK  status: ('A' for Active; 'I' for Inactive)
REMARK    1  A    between atoms: C_4  and  O_9
REMARK    2  A    between atoms: C_5  and  C_7
REMARK    3  A    between atoms: O_9  and  C_10
REMARK    4  A    between atoms: C_10  and  C_11
REMARK    5  A    between atoms: C_11  and  C_13
REMARK    6  A    between atoms: C_11  and  O_30
REMARK    7  A    between atoms: C_13  and  N_14
REMARK    8  A    between atoms: N_14  and  C_15
REMARK    9  A    between atoms: N_14  and  C_22
REMARK   10  A    between atoms: C_15  and  C_16
REMARK                            x       y       z     vdW  Elec       q    Type
REMARK                         _______ _______ _______ _____ _____    ______ ____
ROOT
ATOM      1  N   UNL     1       8.394  -0.707  -0.504  0.00  0.00    +0.389 N 
ATOM      2  H   UNL     1       8.864  -1.287  -1.184  0.00  0.00    -0.081 HD
ENDROOT
BRANCH   1   3
ATOM      3  C   UNL     1       8.202  -1.467   0.738  0.00  0.00    -0.045 C 
ATOM      4  C   UNL     1       7.988  -0.497   1.912  0.00  0.00    +0.009 C 
ATOM      5  C   UNL     1       8.105  -1.260   3.254  0.00  0.00    +0.164 C 
ATOM      6  S   UNL     1       9.243  -2.642   2.835  0.00  0.00    -0.033 S 
ATOM      7  O   UNL     1       8.554  -3.874   2.998  0.00  0.00    -0.174 OA
ATOM      8  O   UNL     1      10.481  -2.440   3.503  0.00  0.00    -0.174 OA
ATOM      9  C   UNL     1       9.471  -2.315   1.037  0.00  0.00    +0.151 C 
ENDBRANCH   1   3
BRANCH   1  10
ATOM     10  C   UNL     1       7.087  -0.295  -1.033  0.00  0.00    -0.043 C 
BRANCH  10  11
ATOM     11  C   UNL     1       6.356  -1.516  -1.595  0.00  0.00    +0.135 C 
BRANCH  11  12
ATOM     12  O   UNL     1       5.982  -2.383  -0.523  0.00  0.00    -0.390 OA
ATOM     13  H   UNL     1       5.334  -2.001   0.085  0.00  0.00    +0.210 HD
ENDBRANCH  11  12
BRANCH  11  14
ATOM     14  C   UNL     1       5.102  -1.060  -2.343  0.00  0.00    +0.258 C 
BRANCH  14  15
ATOM     15  O   UNL     1       4.482  -2.187  -2.966  0.00  0.00    -0.489 OA
BRANCH  15  19
ATOM     16  C   UNL     1       1.030  -1.473  -5.127  0.00  0.00    +0.001 A 
ATOM     17  C   UNL     1       1.688  -0.431  -4.493  0.00  0.00    +0.004 A 
ATOM     18  C   UNL     1       2.841  -0.667  -3.771  0.00  0.00    +0.046 A 
ATOM     19  C   UNL     1       3.350  -1.954  -3.675  0.00  0.00    +0.131 A 
ATOM     20  C   UNL     1       2.687  -3.013  -4.315  0.00  0.00    +0.056 A 
ATOM     21  C   UNL     1       1.519  -2.758  -5.043  0.00  0.00    +0.015 A 
BRANCH  20  22
ATOM     22  C   UNL     1       3.215  -4.380  -4.221  0.00  0.00    +0.262 C 
ATOM     23  O   UNL     1       2.639  -5.292  -4.776  0.00  0.00    -0.296 OA
ENDBRANCH  20  22
ENDBRANCH  15  19
ENDBRANCH  14  15
ENDBRANCH  11  14
ENDBRANCH  10  11
ENDBRANCH   1  10
BRANCH   1  24
ATOM     24  C   UNL     1       9.209   0.484  -0.229  0.00  0.00    -0.003 C 
BRANCH  24  25
ATOM     25  C   UNL     1      10.595   0.060   0.183  0.00  0.00    +0.090 A 
ATOM     26  C   UNL     1      11.604  -0.245  -0.652  0.00  0.00    +0.044 A 
ATOM     27  C   UNL     1      12.714  -0.586   0.154  0.00  0.00    +0.057 A 
ATOM     28  C   UNL     1      12.317  -0.468   1.435  0.00  0.00    +0.170 A 
ATOM     29  O   UNL     1      11.034  -0.071   1.446  0.00  0.00    -0.455 OA
ATOM     30 BR   UNL     1      13.385  -0.799   2.960  0.00  0.00    -0.008 Br
ENDBRANCH  24  25
ENDBRANCH   1  24
TORSDOF 10
