REMARK  Name = ZINC39886340
REMARK  4 active torsions:
REMARK  status: ('A' for Active; 'I' for Inactive)
REMARK    1  A    between atoms: C_6  and  C_7
REMARK    2  A    between atoms: C_7  and  C_9
REMARK    3  A    between atoms: C_9  and  C_10
REMARK    4  A    between atoms: N_16  and  N_17
REMARK                            x       y       z     vdW  Elec       q    Type
REMARK                         _______ _______ _______ _____ _____    ______ ____
ROOT
ATOM      1  C   UNL     1      -2.669  -2.801   0.013  0.00  0.00    +0.147 C 
ATOM      2  C   UNL     1      -2.691  -4.320   0.035  0.00  0.00    +0.232 C 
ATOM      3  O   UNL     1      -2.219  -4.958   0.953  0.00  0.00    -0.274 OA
ATOM      4  N   UNL     1      -3.256  -4.904  -1.008  0.00  0.00    -0.263 N 
ATOM      5  C   UNL     1      -3.796  -4.183  -2.056  0.00  0.00    +0.183 C 
ATOM      6  N   UNL     1      -4.380  -4.640  -3.138  0.00  0.00    -0.125 NA
ATOM      7  S   UNL     1      -3.512  -2.480  -1.591  0.00  0.00    -0.075 S 
ATOM      8  H   UNL     1      -3.294  -5.872  -1.038  0.00  0.00    +0.157 HD
ENDROOT
BRANCH   6   9
ATOM      9  N   UNL     1      -4.513  -6.021  -3.332  0.00  0.00    -0.136 NA
ATOM     10  C   UNL     1      -5.092  -6.474  -4.404  0.00  0.00    +0.123 C 
ATOM     11  C   UNL     1      -5.604  -5.492  -5.423  0.00  0.00    +0.084 C 
ATOM     12  C   UNL     1      -7.074  -5.821  -5.724  0.00  0.00    +0.084 C 
ATOM     13  S   UNL     1      -7.131  -7.486  -6.453  0.00  0.00    -0.102 S 
ATOM     14  C   UNL     1      -6.076  -8.425  -5.398  0.00  0.00    +0.112 C 
ATOM     15  S   UNL     1      -6.158 -10.135  -5.440  0.00  0.00    -0.028 S 
ATOM     16  N   UNL     1      -5.209  -7.833  -4.569  0.00  0.00    -0.290 N 
ATOM     17  H   UNL     1      -4.624  -8.402  -4.045  0.00  0.00    +0.154 HD
ENDBRANCH   6   9
BRANCH   1  18
ATOM     18  C   UNL     1      -1.235  -2.267   0.002  0.00  0.00    +0.103 C 
BRANCH  18  19
ATOM     19  C   UNL     1      -1.260  -0.760   0.011  0.00  0.00    +0.165 C 
ATOM     20  O   UNL     1      -2.319  -0.171   0.024  0.00  0.00    -0.292 OA
BRANCH  19  26
ATOM     21  C   UNL     1      -0.017   1.395   0.010  0.00  0.00    +0.013 A 
ATOM     22  C   UNL     1       1.169   2.097   0.002  0.00  0.00    +0.020 A 
ATOM     23  C   UNL     1       2.378   1.420  -0.013  0.00  0.00    +0.041 A 
ATOM     24  C   UNL     1       2.405   0.035  -0.021  0.00  0.00    +0.020 A 
ATOM     25  C   UNL     1       1.227  -0.680  -0.013  0.00  0.00    +0.013 A 
ATOM     26  C   UNL     1       0.002  -0.004   0.002  0.00  0.00    +0.018 A 
ATOM     27 CL   UNL     1       3.867   2.313  -0.023  0.00  0.00    -0.084 Cl
ENDBRANCH  19  26
ENDBRANCH  18  19
ENDBRANCH   1  18
TORSDOF 4
