REMARK  Name = ZINC22450648
REMARK  4 active torsions:
REMARK  status: ('A' for Active; 'I' for Inactive)
REMARK    1  A    between atoms: C_1  and  C_2
REMARK    2  A    between atoms: C_2  and  C_3
REMARK    3  A    between atoms: C_4  and  C_19
REMARK    4  A    between atoms: C_16  and  C_18
REMARK                            x       y       z     vdW  Elec       q    Type
REMARK                         _______ _______ _______ _____ _____    ______ ____
ROOT
ATOM      1  C   UNL     1       2.338  -0.013  -0.020  0.00  0.00    +0.038 A 
ATOM      2  C   UNL     1       1.148  -0.681  -0.013  0.00  0.00    +0.050 A 
ATOM      3  N   UNL     1       0.002  -0.004   0.002  0.00  0.00    -0.221 NA
ATOM      4  C   UNL     1      -0.016   1.314   0.009  0.00  0.00    +0.199 A 
ATOM      5  N   UNL     1       1.139   2.033   0.002  0.00  0.00    -0.295 N 
ATOM      6  H   UNL     1       1.102   3.133   0.008  0.00  0.00    +0.172 HD
ATOM      7  C   UNL     1       2.328   1.393  -0.013  0.00  0.00    +0.256 A 
ATOM      8  O   UNL     1       3.373   2.023  -0.020  0.00  0.00    -0.267 OA
ATOM      9  N   UNL     1      -1.217   1.970   0.018  0.00  0.00    -0.298 N 
ATOM     10  C   UNL     1      -1.271   2.985  -1.042  0.00  0.00    +0.108 C 
ATOM     11  C   UNL     1      -2.673   3.595  -1.096  0.00  0.00    +0.019 C 
ATOM     12  C   UNL     1      -3.001   4.228   0.259  0.00  0.00    +0.003 C 
ATOM     13  C   UNL     1      -2.891   3.162   1.352  0.00  0.00    +0.022 C 
ATOM     14  C   UNL     1      -1.482   2.564   1.335  0.00  0.00    +0.073 C 
ATOM     15  C   UNL     1      -1.374   1.483   2.413  0.00  0.00    +0.028 C 
ATOM     16  C   UNL     1       1.131  -2.188  -0.021  0.00  0.00    +0.066 C 
ENDROOT
BRANCH   1  18
ATOM     17  C   UNL     1       4.131  -0.908  -1.480  0.00  0.00    +0.009 C 
ATOM     18  C   UNL     1       3.641  -0.769  -0.037  0.00  0.00    +0.039 C 
ENDBRANCH   1  18
TORSDOF 1
