REMARK  Name = ZINC21526010
REMARK  12 active torsions:
REMARK  status: ('A' for Active; 'I' for Inactive)
REMARK    1  A    between atoms: C_1  and  C_2
REMARK    2  A    between atoms: C_2  and  C_3
REMARK    3  A    between atoms: C_3  and  C_4
REMARK    4  A    between atoms: C_4  and  N_5
REMARK    5  A    between atoms: N_5  and  C_6
REMARK    6  A    between atoms: N_5  and  C_8
REMARK    7  A    between atoms: C_6  and  C_7
REMARK    8  A    between atoms: C_8  and  C_9
REMARK    9  A    between atoms: C_9  and  N_10
REMARK   10  A    between atoms: C_19  and  C_20
REMARK   11  A    between atoms: C_19  and  C_21
REMARK   12  A    between atoms: N_23  and  C_24
REMARK                            x       y       z     vdW  Elec       q    Type
REMARK                         _______ _______ _______ _____ _____    ______ ____
ROOT
ATOM      1  N   UNL     1      -0.181   0.683   1.868  0.00  0.00    -0.282 N 
ATOM      2  C   UNL     1      -0.900  -0.318   2.428  0.00  0.00    +0.264 C 
ATOM      3  O   UNL     1      -1.227  -1.306   1.797  0.00  0.00    -0.268 OA
ATOM      4  C   UNL     1      -1.266  -0.145   3.840  0.00  0.00    +0.106 A 
ATOM      5  C   UNL     1      -1.821  -1.020   4.726  0.00  0.00    +0.048 A 
ATOM      6  C   UNL     1      -1.945  -0.351   5.938  0.00  0.00    +0.038 A 
ATOM      7  C   UNL     1      -1.464   0.960   5.802  0.00  0.00    +0.057 A 
ATOM      8  N   UNL     1      -1.055   1.068   4.486  0.00  0.00    -0.333 N 
ATOM      9  C   UNL     1      -0.493   2.229   3.790  0.00  0.00    +0.157 C 
ATOM     10  C   UNL     1       0.428   1.740   2.667  0.00  0.00    +0.128 C 
ATOM     11  C   UNL     1       1.725   1.211   3.281  0.00  0.00    +0.043 C 
ATOM     12  C   UNL     1      -1.527   1.751   6.958  0.00  0.00    +0.034 A 
ATOM     13  C   UNL     1      -2.028   1.243   8.103  0.00  0.00    +0.048 A 
ATOM     14  S   UNL     1      -2.459  -0.425   7.634  0.00  0.00    -0.095 S 
ENDROOT
BRANCH  10  15
ATOM     15  C   UNL     1       0.757   2.903   1.767  0.00  0.00    +0.238 C 
ATOM     16  O   UNL     1       1.553   2.763   0.862  0.00  0.00    -0.273 OA
ATOM     17  N   UNL     1       0.167   4.098   1.966  0.00  0.00    -0.311 N 
ATOM     18  H   UNL     1      -0.513   4.240   2.819  0.00  0.00    +0.149 HD
BRANCH  17  19
ATOM     19  C   UNL     1       0.432   5.208   1.048  0.00  0.00    +0.073 C 
ATOM     20  C   UNL     1       1.789   5.845   1.413  0.00  0.00    +0.022 C 
ATOM     21  C   UNL     1       2.297   6.604   0.216  0.00  0.00    +0.002 C 
ATOM     22  C   UNL     1       1.912   8.095   0.259  0.00  0.00    +0.000 C 
ATOM     23  C   UNL     1       0.465   8.325   0.735  0.00  0.00    +0.000 C 
ATOM     24  C   UNL     1      -0.500   7.334   0.143  0.00  0.00    +0.002 C 
ATOM     25  C   UNL     1      -0.665   6.160   1.130  0.00  0.00    +0.022 C 
ENDBRANCH  17  19
ENDBRANCH  10  15
BRANCH   1  26
ATOM     26  C   UNL     1      -0.002   0.701   0.414  0.00  0.00    +0.091 C 
BRANCH  26  27
ATOM     27  C   UNL     1      -1.163   1.460  -0.233  0.00  0.00    -0.060 C 
BRANCH  27  28
ATOM     28  N   UNL     1      -1.071   1.342  -1.694  0.00  0.00    +0.381 N 
ATOM     29  H   UNL     1      -0.868   0.288  -1.936  0.00  0.00    -0.082 HD
BRANCH  28  30
ATOM     30  C   UNL     1       0.041   2.147  -2.218  0.00  0.00    -0.082 C 
ATOM     31  C   UNL     1      -0.253   3.631  -1.990  0.00  0.00    -0.017 C 
ENDBRANCH  28  30
BRANCH  28  32
ATOM     32  C   UNL     1      -2.339   1.716  -2.333  0.00  0.00    -0.079 C 
BRANCH  32  33
ATOM     33  C   UNL     1      -2.255   1.440  -3.836  0.00  0.00    -0.019 C 
BRANCH  33  35
ATOM     34  C   UNL     1      -3.448   1.655  -6.020  0.00  0.00    +0.004 C 
ATOM     35  C   UNL     1      -3.533   1.932  -4.518  0.00  0.00    -0.005 C 
ENDBRANCH  33  35
ENDBRANCH  32  33
ENDBRANCH  28  32
ENDBRANCH  27  28
ENDBRANCH  26  27
ENDBRANCH   1  26
TORSDOF 9
