REMARK  Name = ZINC40267210
REMARK  6 active torsions:
REMARK  status: ('A' for Active; 'I' for Inactive)
REMARK    1  A    between atoms: C_1  and  O_2
REMARK    2  A    between atoms: O_2  and  C_3
REMARK    3  A    between atoms: C_7  and  C_11
REMARK    4  A    between atoms: C_8  and  O_9
REMARK    5  A    between atoms: O_9  and  C_10
REMARK    6  A    between atoms: C_16  and  C_21
REMARK                            x       y       z     vdW  Elec       q    Type
REMARK                         _______ _______ _______ _____ _____    ______ ____
ROOT
ATOM      1  C   UNL     1      -3.108  -4.237  -0.054  0.00  0.00    +0.141 C 
ATOM      2  C   UNL     1      -3.058  -4.812   1.346  0.00  0.00    +0.037 C 
ATOM      3  C   UNL     1      -4.051  -5.221   2.150  0.00  0.00    +0.019 C 
ATOM      4  C   UNL     1      -3.766  -5.746   3.547  0.00  0.00    +0.059 C 
ATOM      5  C   UNL     1      -2.542  -5.040   4.129  0.00  0.00    +0.032 C 
ATOM      6  C   UNL     1      -1.361  -5.344   3.199  0.00  0.00    +0.088 C 
ATOM      7  C   UNL     1      -1.717  -4.901   1.815  0.00  0.00    +0.163 C 
ATOM      8  O   UNL     1      -0.817  -4.603   1.054  0.00  0.00    -0.292 OA
ATOM      9  N   UNL     1      -5.374  -5.240   1.816  0.00  0.00    -0.297 N 
ATOM     10  C   UNL     1      -5.994  -4.199   1.139  0.00  0.00    +0.208 A 
ATOM     11  C   UNL     1      -5.521  -3.808  -0.181  0.00  0.00    +0.205 A 
ATOM     12  N   UNL     1      -6.291  -2.872  -0.639  0.00  0.00    -0.032 NA
ATOM     13  O   UNL     1      -7.256  -2.588   0.365  0.00  0.00    -0.239 OA
ATOM     14  N   UNL     1      -6.997  -3.451   1.465  0.00  0.00    -0.032 NA
ATOM     15  N   UNL     1      -4.380  -4.375  -0.740  0.00  0.00    -0.312 N 
ATOM     16  H   UNL     1      -5.903  -6.014   2.061  0.00  0.00    +0.153 HD
ATOM     17  H   UNL     1      -4.436  -4.856  -1.581  0.00  0.00    +0.149 HD
ENDROOT
BRANCH   5  18
ATOM     18  C   UNL     1      -2.256  -5.565   5.513  0.00  0.00    -0.043 A 
ATOM     19  C   UNL     1      -1.974  -6.905   5.699  0.00  0.00    +0.007 A 
ATOM     20  C   UNL     1      -1.711  -7.388   6.967  0.00  0.00    +0.038 A 
ATOM     21  C   UNL     1      -1.730  -6.527   8.052  0.00  0.00    +0.123 A 
ATOM     22  C   UNL     1      -2.013  -5.185   7.864  0.00  0.00    +0.038 A 
ATOM     23  C   UNL     1      -2.270  -4.704   6.594  0.00  0.00    +0.007 A 
ATOM     24  F   UNL     1      -1.474  -6.997   9.292  0.00  0.00    -0.205 F 
ENDBRANCH   5  18
BRANCH   1  29
ATOM     25  C   UNL     1      -1.980  -0.754  -1.017  0.00  0.00    +0.162 A 
ATOM     26  C   UNL     1      -2.152  -0.074   0.178  0.00  0.00    +0.049 A 
ATOM     27  C   UNL     1      -2.632  -0.740   1.290  0.00  0.00    +0.004 A 
ATOM     28  C   UNL     1      -2.941  -2.086   1.214  0.00  0.00    +0.009 A 
ATOM     29  C   UNL     1      -2.771  -2.771   0.025  0.00  0.00    +0.023 A 
ATOM     30  C   UNL     1      -2.296  -2.107  -1.095  0.00  0.00    +0.167 A 
BRANCH  25  32
ATOM     31  C   UNL     1      -1.205   1.288  -1.958  0.00  0.00    +0.277 C 
ATOM     32  O   UNL     1      -1.509  -0.100  -2.112  0.00  0.00    -0.491 OA
ENDBRANCH  25  32
BRANCH  30  33
ATOM     33  O   UNL     1      -2.134  -2.778  -2.267  0.00  0.00    -0.491 OA
ATOM     34  C   UNL     1      -0.830  -3.292  -2.545  0.00  0.00    +0.277 C 
ENDBRANCH  30  33
ENDBRANCH   1  29
TORSDOF 4
