REMARK  Name = ZINC67474206
REMARK  8 active torsions:
REMARK  status: ('A' for Active; 'I' for Inactive)
REMARK    1  A    between atoms: C_1  and  C_2
REMARK    2  A    between atoms: C_2  and  C_3
REMARK    3  A    between atoms: C_2  and  C_4
REMARK    4  A    between atoms: C_4  and  C_5
REMARK    5  A    between atoms: C_5  and  C_7
REMARK    6  A    between atoms: C_5  and  N_23
REMARK    7  A    between atoms: C_12  and  N_15
REMARK    8  A    between atoms: C_16  and  C_18
REMARK                            x       y       z     vdW  Elec       q    Type
REMARK                         _______ _______ _______ _____ _____    ______ ____
ROOT
ATOM      1  C   UNL     1       0.660  -0.600   3.743  0.00  0.00    +0.236 C 
ATOM      2  O   UNL     1       0.139  -1.437   4.450  0.00  0.00    -0.274 OA
ATOM      3  N   UNL     1       1.865  -0.095   4.073  0.00  0.00    -0.300 N 
ATOM      4  C   UNL     1       2.455   1.002   3.294  0.00  0.00    +0.109 C 
ATOM      5  C   UNL     1       3.861   0.589   2.847  0.00  0.00    +0.041 C 
ATOM      6  C   UNL     1       4.681   0.176   4.071  0.00  0.00    +0.076 C 
ATOM      7  C   UNL     1       4.017  -1.025   4.749  0.00  0.00    +0.041 C 
ATOM      8  C   UNL     1       2.611  -0.626   5.222  0.00  0.00    +0.109 C 
ENDROOT
BRANCH   6   9
ATOM      9  N   UNL     1       6.036  -0.189   3.651  0.00  0.00    -0.308 N 
ATOM     10  C   UNL     1       7.059  -0.099   4.523  0.00  0.00    +0.245 C 
ATOM     11  O   UNL     1       6.857   0.284   5.660  0.00  0.00    -0.270 OA
ATOM     12  H   UNL     1       6.197  -0.495   2.744  0.00  0.00    +0.149 HD
BRANCH  10  13
ATOM     13  C   UNL     1       8.421  -0.465   4.101  0.00  0.00    +0.044 A 
ATOM     14  C   UNL     1       9.540  -0.387   5.008  0.00  0.00    +0.020 A 
ATOM     15  C   UNL     1      10.734  -0.751   4.499  0.00  0.00    +0.046 A 
ATOM     16  S   UNL     1      10.339  -1.189   2.820  0.00  0.00    -0.104 S 
ATOM     17  C   UNL     1       8.685  -0.903   2.823  0.00  0.00    +0.058 A 
ENDBRANCH  10  13
ENDBRANCH   6   9
BRANCH   1  18
ATOM     18  C   UNL     1      -0.040  -0.127   2.495  0.00  0.00    +0.161 C 
BRANCH  18  19
ATOM     19  N   UNL     1      -1.482  -0.347   2.630  0.00  0.00    -0.288 N 
ATOM     20  C   UNL     1      -2.348   0.410   1.927  0.00  0.00    +0.298 C 
ATOM     21  O   UNL     1      -1.932   1.275   1.181  0.00  0.00    -0.253 OA
ATOM     22  N   UNL     1      -3.674   0.207   2.052  0.00  0.00    -0.313 N 
ATOM     23  H   UNL     1      -1.813  -1.037   3.226  0.00  0.00    +0.151 HD
ATOM     24  H   UNL     1      -4.006  -0.483   2.648  0.00  0.00    +0.146 HD
ATOM     25  H   UNL     1      -4.298   0.752   1.546  0.00  0.00    +0.146 HD
ENDBRANCH  18  19
BRANCH  18  26
ATOM     26  C   UNL     1       0.484  -0.908   1.288  0.00  0.00    +0.034 C 
BRANCH  26  28
ATOM     27  C   UNL     1       0.420   1.112  -0.181  0.00  0.00    +0.007 C 
ATOM     28  C   UNL     1      -0.100  -0.316   0.004  0.00  0.00    -0.015 C 
ATOM     29  C   UNL     1       0.324  -1.172  -1.191  0.00  0.00    +0.007 C 
ENDBRANCH  26  28
ENDBRANCH  18  26
ENDBRANCH   1  18
TORSDOF 6
