REMARK  Name = ZINC40816190
REMARK  4 active torsions:
REMARK  status: ('A' for Active; 'I' for Inactive)
REMARK    1  A    between atoms: C_1  and  C_2
REMARK    2  A    between atoms: C_6  and  O_23
REMARK    3  A    between atoms: C_7  and  O_22
REMARK    4  A    between atoms: C_13  and  C_15
REMARK                            x       y       z     vdW  Elec       q    Type
REMARK                         _______ _______ _______ _____ _____    ______ ____
ROOT
ATOM      1  C   UNL     1      -0.432   1.039  -0.153  0.00  0.00    +0.033 C 
ATOM      2  C   UNL     1      -0.151  -0.460  -0.021  0.00  0.00    +0.104 C 
ATOM      3  C   UNL     1      -1.456  -1.208   0.080  0.00  0.00    -0.020 A 
ATOM      4  C   UNL     1      -2.239  -1.298  -1.064  0.00  0.00    +0.055 A 
ATOM      5  C   UNL     1      -3.452  -1.961  -1.036  0.00  0.00    +0.159 A 
ATOM      6  C   UNL     1      -3.889  -2.542   0.151  0.00  0.00    +0.158 A 
ATOM      7  C   UNL     1      -3.104  -2.454   1.286  0.00  0.00    +0.053 A 
ATOM      8  C   UNL     1      -1.883  -1.791   1.252  0.00  0.00    -0.037 A 
ATOM      9  C   UNL     1      -1.072  -1.760   2.521  0.00  0.00    +0.054 C 
ATOM     10  C   UNL     1      -0.040  -0.635   2.481  0.00  0.00    +0.113 C 
ATOM     11  N   UNL     1       0.651  -0.701   1.183  0.00  0.00    -0.290 N 
ATOM     12  C   UNL     1       1.968  -0.974   1.105  0.00  0.00    +0.249 C 
ATOM     13  O   UNL     1       2.625  -1.093   2.121  0.00  0.00    -0.270 OA
ENDROOT
BRANCH  12  14
ATOM     14  C   UNL     1       2.615  -1.127  -0.215  0.00  0.00    +0.056 A 
ATOM     15  C   UNL     1       2.369  -0.205  -1.240  0.00  0.00    +0.031 A 
ATOM     16  C   UNL     1       2.999  -0.394  -2.458  0.00  0.00    +0.037 A 
ATOM     17  C   UNL     1       3.843  -1.479  -2.622  0.00  0.00    +0.126 A 
ATOM     18  N   UNL     1       4.055  -2.332  -1.638  0.00  0.00    -0.261 NA
ATOM     19  C   UNL     1       3.484  -2.191  -0.460  0.00  0.00    +0.123 A 
ATOM     20 BR   UNL     1       2.709   0.816  -3.882  0.00  0.00    -0.049 Br
ENDBRANCH  12  14
BRANCH   6  21
ATOM     21  O   UNL     1      -5.082  -3.193   0.195  0.00  0.00    -0.503 OA
ATOM     22  H   UNL     1      -5.024  -4.136  -0.013  0.00  0.00    +0.292 HD
ENDBRANCH   6  21
BRANCH   5  23
ATOM     23  O   UNL     1      -4.212  -2.046  -2.160  0.00  0.00    -0.503 OA
ATOM     24  H   UNL     1      -4.025  -2.823  -2.704  0.00  0.00    +0.292 HD
ENDBRANCH   5  23
TORSDOF 3
