REMARK  Name = ZINC12449219
REMARK  4 active torsions:
REMARK  status: ('A' for Active; 'I' for Inactive)
REMARK    1  A    between atoms: C_5  and  C_7
REMARK    2  A    between atoms: C_7  and  C_8
REMARK    3  A    between atoms: C_8  and  C_9
REMARK    4  A    between atoms: C_16  and  C_18
REMARK                            x       y       z     vdW  Elec       q    Type
REMARK                         _______ _______ _______ _____ _____    ______ ____
ROOT
ATOM      1  C   UNL     1      -1.590   2.834   0.994  0.00  0.00    +0.077 C 
ATOM      2  C   UNL     1      -1.989   1.358   1.095  0.00  0.00    +0.022 C 
ATOM      3  C   UNL     1      -1.533   0.623  -0.167  0.00  0.00    +0.003 C 
ATOM      4  C   UNL     1      -2.227   1.227  -1.390  0.00  0.00    +0.019 C 
ATOM      5  C   UNL     1      -1.831   2.701  -1.520  0.00  0.00    +0.108 C 
ATOM      6  N   UNL     1      -2.133   3.385  -0.255  0.00  0.00    -0.293 N 
ATOM      7  C   UNL     1      -2.894   4.497  -0.241  0.00  0.00    +0.266 C 
ATOM      8  O   UNL     1      -3.289   4.950   0.815  0.00  0.00    -0.268 OA
ENDROOT
BRANCH   7   9
ATOM      9  C   UNL     1      -3.251   5.169  -1.516  0.00  0.00    +0.134 A 
ATOM     10  C   UNL     1      -4.155   6.237  -1.526  0.00  0.00    +0.005 A 
ATOM     11  C   UNL     1      -4.452   6.837  -2.732  0.00  0.00    +0.050 A 
ATOM     12  N   UNL     1      -3.884   6.374  -3.838  0.00  0.00    -0.219 NA
ATOM     13  C   UNL     1      -3.038   5.356  -3.801  0.00  0.00    +0.219 A 
ATOM     14  N   UNL     1      -2.720   4.759  -2.664  0.00  0.00    -0.209 NA
ATOM     15  N   UNL     1      -2.471   4.906  -4.981  0.00  0.00    -0.300 N 
ATOM     16  C   UNL     1      -1.704   5.988  -5.650  0.00  0.00    +0.108 C 
ATOM     17  C   UNL     1      -0.751   5.214  -6.596  0.00  0.00    +0.020 C 
ATOM     18  C   UNL     1      -0.372   3.969  -5.761  0.00  0.00    +0.020 C 
ATOM     19  C   UNL     1      -1.499   3.822  -4.722  0.00  0.00    +0.108 C 
ATOM     20  C   UNL     1      -5.399   8.001  -2.845  0.00  0.00    +0.056 C 
ATOM     21  C   UNL     1      -6.263   8.110  -1.590  0.00  0.00    +0.006 C 
ATOM     22  C   UNL     1      -5.345   8.090  -0.362  0.00  0.00    +0.005 C 
ATOM     23  C   UNL     1      -4.754   6.688  -0.223  0.00  0.00    +0.039 C 
ENDBRANCH   7   9
BRANCH   1  24
ATOM     24  C   UNL     1      -2.163   3.603   2.186  0.00  0.00    +0.028 C 
BRANCH  24  25
ATOM     25  C   UNL     1      -1.618   3.009   3.486  0.00  0.00    +0.057 C 
BRANCH  25  30
ATOM     26  C   UNL     1      -3.490   3.603   6.703  0.00  0.00    +0.003 A 
ATOM     27  C   UNL     1      -3.397   4.985   6.771  0.00  0.00    +0.020 A 
ATOM     28  C   UNL     1      -2.731   5.665   5.770  0.00  0.00    +0.111 A 
ATOM     29  N   UNL     1      -2.188   5.016   4.759  0.00  0.00    -0.260 NA
ATOM     30  C   UNL     1      -2.256   3.703   4.662  0.00  0.00    +0.041 A 
ATOM     31  C   UNL     1      -2.912   2.956   5.622  0.00  0.00    +0.023 A 
ENDBRANCH  25  30
ENDBRANCH  24  25
ENDBRANCH   1  24
TORSDOF 4
