REMARK  Name = ZINC46763325
REMARK  6 active torsions:
REMARK  status: ('A' for Active; 'I' for Inactive)
REMARK    1  A    between atoms: C_1  and  C_2
REMARK    2  A    between atoms: C_2  and  C_3
REMARK    3  A    between atoms: C_3  and  C_5
REMARK    4  A    between atoms: C_3  and  N_12
REMARK    5  A    between atoms: N_12  and  S_13
REMARK    6  A    between atoms: S_13  and  C_16
REMARK                            x       y       z     vdW  Elec       q    Type
REMARK                         _______ _______ _______ _____ _____    ______ ____
ROOT
ATOM      1  S   UNL     1       2.769   1.250   1.879  0.00  0.00    +0.059 S 
ATOM      2  O   UNL     1       4.159   1.369   1.610  0.00  0.00    -0.153 OA
ATOM      3  O   UNL     1       1.851   2.306   1.627  0.00  0.00    -0.153 OA
ENDROOT
BRANCH   1   4
ATOM      4  C   UNL     1       2.619   0.850   3.588  0.00  0.00    +0.106 A 
ATOM      5  C   UNL     1       1.448   1.139   4.265  0.00  0.00    +0.030 A 
ATOM      6  C   UNL     1       1.327   0.826   5.604  0.00  0.00    +0.025 A 
ATOM      7  C   UNL     1       2.383   0.221   6.272  0.00  0.00    +0.037 A 
ATOM      8  C   UNL     1       3.558  -0.068   5.590  0.00  0.00    -0.024 A 
ATOM      9  C   UNL     1       3.671   0.243   4.249  0.00  0.00    +0.034 A 
ATOM     10  C   UNL     1       4.704  -0.725   6.315  0.00  0.00    +0.046 C 
ATOM     11  C   UNL     1       4.739  -0.237   7.763  0.00  0.00    +0.101 C 
ATOM     12  C   UNL     1       3.366  -0.332   8.370  0.00  0.00    +0.218 C 
ATOM     13  O   UNL     1       3.247  -0.622   9.542  0.00  0.00    -0.275 OA
ATOM     14  N   UNL     1       2.267  -0.099   7.628  0.00  0.00    -0.285 N 
ATOM     15  H   UNL     1       1.389  -0.152   8.037  0.00  0.00    +0.155 HD
ENDBRANCH   1   4
BRANCH   1  16
ATOM     16  N   UNL     1       2.231  -0.059   1.020  0.00  0.00    -0.183 NA
ATOM     17  H   UNL     1       2.847  -0.560   0.463  0.00  0.00    +0.149 HD
BRANCH  16  18
ATOM     18  C   UNL     1       0.825  -0.463   1.103  0.00  0.00    +0.106 C 
BRANCH  18  19
ATOM     19  C   UNL     1       0.728  -1.813   1.766  0.00  0.00    -0.028 A 
ATOM     20  C   UNL     1       1.657  -2.795   1.474  0.00  0.00    +0.005 A 
ATOM     21  C   UNL     1       1.569  -4.033   2.080  0.00  0.00    +0.002 A 
ATOM     22  C   UNL     1       0.551  -4.291   2.980  0.00  0.00    +0.020 A 
ATOM     23  C   UNL     1      -0.379  -3.310   3.272  0.00  0.00    +0.041 A 
ATOM     24  C   UNL     1      -0.286  -2.068   2.669  0.00  0.00    +0.025 A 
ATOM     25 CL   UNL     1      -1.657  -3.633   4.401  0.00  0.00    -0.084 Cl
ENDBRANCH  18  19
BRANCH  18  27
ATOM     26  C   UNL     1       0.209   0.856  -0.928  0.00  0.00    +0.006 C 
ATOM     27  C   UNL     1       0.234  -0.542  -0.305  0.00  0.00    +0.022 C 
ENDBRANCH  18  27
ENDBRANCH  16  18
ENDBRANCH   1  16
TORSDOF 5
