REMARK  Name = ZINC09617170
REMARK  9 active torsions:
REMARK  status: ('A' for Active; 'I' for Inactive)
REMARK    1  A    between atoms: C_11  and  C_13
REMARK    2  A    between atoms: C_13  and  C_14
REMARK    3  A    between atoms: C_14  and  C_15
REMARK    4  A    between atoms: C_15  and  N_16
REMARK    5  A    between atoms: N_25  and  C_28
REMARK    6  A    between atoms: C_28  and  C_29
REMARK    7  A    between atoms: N_31  and  C_32
REMARK    8  A    between atoms: C_32  and  C_33
REMARK    9  A    between atoms: C_33  and  C_34
REMARK                            x       y       z     vdW  Elec       q    Type
REMARK                         _______ _______ _______ _____ _____    ______ ____
ROOT
ATOM      1  N   UNL     1      -0.675   1.545   3.712  0.00  0.00    -0.260 N 
ATOM      2  C   UNL     1      -0.314   2.726   4.259  0.00  0.00    +0.264 A 
ATOM      3  O   UNL     1       0.569   3.399   3.764  0.00  0.00    -0.267 OA
ATOM      4  C   UNL     1      -1.024   3.181   5.468  0.00  0.00    +0.063 A 
ATOM      5  C   UNL     1      -0.715   4.389   6.088  0.00  0.00    +0.015 A 
ATOM      6  C   UNL     1      -1.404   4.768   7.220  0.00  0.00    +0.001 A 
ATOM      7  C   UNL     1      -2.398   3.954   7.742  0.00  0.00    +0.002 A 
ATOM      8  C   UNL     1      -2.714   2.754   7.137  0.00  0.00    +0.027 A 
ATOM      9  C   UNL     1      -2.032   2.357   5.997  0.00  0.00    +0.059 A 
ATOM     10  N   UNL     1      -2.318   1.159   5.359  0.00  0.00    -0.284 N 
ATOM     11  C   UNL     1      -1.645   0.793   4.254  0.00  0.00    +0.333 A 
ATOM     12  O   UNL     1      -1.927  -0.265   3.725  0.00  0.00    -0.246 OA
ENDROOT
BRANCH   1  13
ATOM     13  C   UNL     1       0.011   1.072   2.506  0.00  0.00    +0.130 C 
BRANCH  13  14
ATOM     14  C   UNL     1      -0.729   1.579   1.267  0.00  0.00    +0.031 C 
BRANCH  14  15
ATOM     15  C   UNL     1      -0.013   1.086   0.008  0.00  0.00    +0.098 C 
BRANCH  15  26
ATOM     16  C   UNL     1       3.465   2.066  -5.653  0.00  0.00    +0.000 A 
ATOM     17  C   UNL     1       3.905   1.049  -4.827  0.00  0.00    +0.000 A 
ATOM     18  C   UNL     1       3.065   0.546  -3.854  0.00  0.00    +0.005 A 
ATOM     19  C   UNL     1       1.782   1.053  -3.700  0.00  0.00    -0.027 A 
ATOM     20  C   UNL     1       1.345   2.071  -4.517  0.00  0.00    -0.041 A 
ATOM     21  C   UNL     1       2.192   2.574  -5.498  0.00  0.00    +0.004 A 
ATOM     22  C   UNL     1      -0.027   2.680  -4.401  0.00  0.00    +0.054 C 
ATOM     23  C   UNL     1      -0.977   1.744  -3.656  0.00  0.00    +0.113 C 
ATOM     24  N   UNL     1      -0.288   1.272  -2.443  0.00  0.00    -0.297 N 
ATOM     25  C   UNL     1       0.914   0.453  -2.628  0.00  0.00    +0.143 C 
ATOM     26  C   UNL     1      -0.742   1.585  -1.213  0.00  0.00    +0.216 C 
ATOM     27  O   UNL     1      -1.736   2.268  -1.088  0.00  0.00    -0.276 OA
ENDBRANCH  15  26
ENDBRANCH  14  15
ENDBRANCH  13  14
ENDBRANCH   1  13
BRANCH  10  28
ATOM     28  C   UNL     1      -3.366   0.284   5.893  0.00  0.00    +0.222 C 
BRANCH  28  29
ATOM     29  C   UNL     1      -2.761  -0.677   6.883  0.00  0.00    +0.233 C 
ATOM     30  O   UNL     1      -1.572  -0.636   7.119  0.00  0.00    -0.274 OA
ATOM     31  N   UNL     1      -3.541  -1.583   7.506  0.00  0.00    -0.314 N 
ATOM     32  H   UNL     1      -4.491  -1.615   7.317  0.00  0.00    +0.149 HD
BRANCH  31  33
ATOM     33  C   UNL     1      -2.953  -2.517   8.469  0.00  0.00    +0.108 C 
BRANCH  33  34
ATOM     34  C   UNL     1      -4.046  -3.430   9.026  0.00  0.00    +0.049 C 
BRANCH  34  35
ATOM     35  C   UNL     1      -3.441  -4.392  10.017  0.00  0.00    -0.072 C 
ATOM     36  C   UNL     1      -3.480  -4.075  11.271  0.00  0.00    -0.028 C 
ATOM     37  C   UNL     1      -2.912  -4.924  12.370  0.00  0.00    +0.027 C 
ATOM     38  C   UNL     1      -2.683  -6.352  11.869  0.00  0.00    +0.004 C 
ATOM     39  C   UNL     1      -1.917  -6.283  10.542  0.00  0.00    +0.005 C 
ATOM     40  C   UNL     1      -2.836  -5.659   9.488  0.00  0.00    +0.030 C 
ENDBRANCH  34  35
ENDBRANCH  33  34
ENDBRANCH  31  33
ENDBRANCH  28  29
ENDBRANCH  10  28
TORSDOF 9
