REMARK  Name = ZINC21218355
REMARK  5 active torsions:
REMARK  status: ('A' for Active; 'I' for Inactive)
REMARK    1  A    between atoms: C_1  and  C_2
REMARK    2  A    between atoms: C_5  and  C_8
REMARK    3  A    between atoms: C_13  and  C_23
REMARK    4  A    between atoms: C_26  and  O_32
REMARK    5  A    between atoms: C_27  and  N_29
REMARK                            x       y       z     vdW  Elec       q    Type
REMARK                         _______ _______ _______ _____ _____    ______ ____
ROOT
ATOM      1  C   UNL     1       3.422   2.737   3.646  0.00  0.00    +0.032 C 
ATOM      2  C   UNL     1       3.036   1.285   3.368  0.00  0.00    +0.059 C 
ATOM      3  C   UNL     1       2.041   1.226   2.220  0.00  0.00    +0.017 C 
ATOM      4  C   UNL     1       2.109   2.117   1.217  0.00  0.00    +0.036 C 
ATOM      5  C   UNL     1       1.212   2.154   0.002  0.00  0.00    +0.136 C 
ATOM      6  N   UNL     1       0.052   1.293   0.088  0.00  0.00    -0.331 N 
ATOM      7  C   UNL     1       0.186  -0.092   0.156  0.00  0.00    +0.049 A 
ATOM      8  C   UNL     1      -0.275  -0.914  -0.860  0.00  0.00    +0.025 A 
ATOM      9  C   UNL     1      -0.079  -2.282  -0.770  0.00  0.00    +0.002 A 
ATOM     10  C   UNL     1       0.574  -2.825   0.321  0.00  0.00    +0.002 A 
ATOM     11  C   UNL     1       1.021  -2.008   1.346  0.00  0.00    +0.025 A 
ATOM     12  C   UNL     1       0.807  -0.643   1.267  0.00  0.00    +0.052 A 
ATOM     13  N   UNL     1       1.134   0.221   2.306  0.00  0.00    -0.316 N 
ATOM     14  C   UNL     1       3.083   3.143   1.240  0.00  0.00    +0.163 C 
ATOM     15  O   UNL     1       3.134   3.923   0.309  0.00  0.00    -0.292 OA
ATOM     16  C   UNL     1       4.056   3.303   2.370  0.00  0.00    +0.088 C 
ATOM     17  H   UNL     1      -0.958   1.731   0.102  0.00  0.00    +0.147 HD
ATOM     18  H   UNL     1       0.598   0.044   3.250  0.00  0.00    +0.152 HD
ENDROOT
BRANCH   1  23
ATOM     19  C   UNL     1       7.227   2.955   7.989  0.00  0.00    +0.044 C 
ATOM     20  C   UNL     1       6.235   2.897   6.857  0.00  0.00    -0.050 A 
ATOM     21  C   UNL     1       5.019   3.546   6.970  0.00  0.00    +0.003 A 
ATOM     22  C   UNL     1       4.109   3.494   5.931  0.00  0.00    +0.004 A 
ATOM     23  C   UNL     1       4.415   2.794   4.779  0.00  0.00    -0.043 A 
ATOM     24  C   UNL     1       5.628   2.141   4.668  0.00  0.00    +0.004 A 
ATOM     25  C   UNL     1       6.540   2.196   5.705  0.00  0.00    +0.003 A 
ENDBRANCH   1  23
BRANCH   5  26
ATOM     26  C   UNL     1       2.022   1.746  -1.202  0.00  0.00    -0.020 A 
ATOM     27  C   UNL     1       2.520   0.459  -1.294  0.00  0.00    +0.009 A 
ATOM     28  C   UNL     1       3.257   0.081  -2.399  0.00  0.00    +0.048 A 
ATOM     29  C   UNL     1       3.508   0.997  -3.411  0.00  0.00    +0.147 A 
ATOM     30  C   UNL     1       3.012   2.288  -3.313  0.00  0.00    +0.168 A 
ATOM     31  C   UNL     1       2.270   2.660  -2.209  0.00  0.00    +0.042 A 
BRANCH  30  32
ATOM     32  N   UNL     1       3.278   3.267  -4.391  0.00  0.00    +0.060 N 
ATOM     33  O   UNL     1       2.843   4.402  -4.304  0.00  0.00    -0.126 OA
ATOM     34  O   UNL     1       3.932   2.939  -5.364  0.00  0.00    -0.126 OA
ENDBRANCH  30  32
BRANCH  29  35
ATOM     35  O   UNL     1       4.238   0.628  -4.497  0.00  0.00    -0.504 OA
ATOM     36  H   UNL     1       4.436   1.355  -5.299  0.00  0.00    +0.292 HD
ENDBRANCH  29  35
ENDBRANCH   5  26
TORSDOF 4
