REMARK  Name = ZINC39669530
REMARK  9 active torsions:
REMARK  status: ('A' for Active; 'I' for Inactive)
REMARK    1  A    between atoms: C_1  and  C_2
REMARK    2  A    between atoms: C_2  and  C_3
REMARK    3  A    between atoms: C_2  and  C_4
REMARK    4  A    between atoms: C_4  and  C_6
REMARK    5  A    between atoms: C_4  and  O_36
REMARK    6  A    between atoms: C_10  and  C_19
REMARK    7  A    between atoms: N_21  and  C_22
REMARK    8  A    between atoms: C_22  and  C_23
REMARK    9  A    between atoms: O_36  and  C_37
REMARK                            x       y       z     vdW  Elec       q    Type
REMARK                         _______ _______ _______ _____ _____    ______ ____
ROOT
ATOM      1  C   UNL     1      -2.248   0.025  -1.005  0.00  0.00    +0.257 C 
ATOM      2  O   UNL     1      -2.877  -0.649  -1.794  0.00  0.00    -0.272 OA
ATOM      3  N   UNL     1      -2.386   1.365  -1.004  0.00  0.00    -0.297 N 
ATOM      4  C   UNL     1      -1.647   2.353  -0.182  0.00  0.00    +0.121 C 
ATOM      5  C   UNL     1      -1.390   3.540  -1.138  0.00  0.00    +0.100 C 
ATOM      6  C   UNL     1      -2.485   3.425  -2.211  0.00  0.00    -0.004 C 
ATOM      7  C   UNL     1      -3.306   2.185  -1.828  0.00  0.00    +0.115 C 
ATOM      8  C   UNL     1      -3.369   4.669  -2.200  0.00  0.00    -0.010 C 
ATOM      9  C   UNL     1      -4.414   4.556  -3.313  0.00  0.00    -0.082 C 
ATOM     10  N   UNL     1      -3.738   4.423  -4.610  0.00  0.00    +0.379 N 
ATOM     11  C   UNL     1      -2.964   3.177  -4.645  0.00  0.00    -0.082 C 
ATOM     12  C   UNL     1      -1.858   3.230  -3.588  0.00  0.00    -0.010 C 
ATOM     13  H   UNL     1      -4.427   4.411  -5.347  0.00  0.00    -0.086 HD
ATOM     14  H   UNL     1      -3.118   5.207  -4.746  0.00  0.00    -0.086 HD
ENDROOT
BRANCH   5  15
ATOM     15  C   UNL     1      -1.513   4.846  -0.397  0.00  0.00    +0.218 C 
ATOM     16  O   UNL     1      -2.203   4.917   0.598  0.00  0.00    -0.275 OA
ATOM     17  N   UNL     1      -0.856   5.937  -0.840  0.00  0.00    -0.315 N 
ATOM     18  H   UNL     1      -0.304   5.881  -1.635  0.00  0.00    +0.149 HD
BRANCH  17  19
ATOM     19  C   UNL     1      -0.976   7.207  -0.119  0.00  0.00    +0.109 C 
BRANCH  19  20
ATOM     20  C   UNL     1      -0.138   8.275  -0.826  0.00  0.00    +0.024 C 
ATOM     21  C   UNL     1      -0.164   9.568  -0.007  0.00  0.00    +0.008 C 
ATOM     22  C   UNL     1       0.701  10.627  -0.696  0.00  0.00    +0.019 C 
ATOM     23  C   UNL     1       0.128  10.922  -2.085  0.00  0.00    +0.108 C 
ATOM     24  N   UNL     1       0.014   9.660  -2.829  0.00  0.00    -0.299 N 
ATOM     25  C   UNL     1      -0.720   8.544  -2.217  0.00  0.00    +0.113 C 
ATOM     26  C   UNL     1       0.586   9.525  -4.081  0.00  0.00    +0.218 A 
ATOM     27  N   UNL     1       0.461   8.376  -4.729  0.00  0.00    -0.223 NA
ATOM     28  C   UNL     1       0.996   8.214  -5.928  0.00  0.00    +0.116 A 
ATOM     29  C   UNL     1       1.693   9.264  -6.505  0.00  0.00    +0.039 A 
ATOM     30  C   UNL     1       1.805  10.452  -5.800  0.00  0.00    +0.116 A 
ATOM     31  N   UNL     1       1.242  10.550  -4.607  0.00  0.00    -0.223 NA
ENDBRANCH  19  20
ENDBRANCH  17  19
ENDBRANCH   5  15
BRANCH   1  32
ATOM     32  C   UNL     1      -1.312  -0.638  -0.027  0.00  0.00    +0.261 C 
BRANCH  32  34
ATOM     33  C   UNL     1       0.660   0.559  -0.987  0.00  0.00    +0.011 C 
ATOM     34  C   UNL     1       0.062  -0.815  -0.675  0.00  0.00    +0.033 C 
ATOM     35  C   UNL     1       0.986  -1.567   0.285  0.00  0.00    +0.011 C 
ENDBRANCH  32  34
BRANCH  32  36
ATOM     36  O   UNL     1      -1.834  -1.917   0.340  0.00  0.00    -0.479 OA
BRANCH  36  37
ATOM     37  C   UNL     1      -1.588  -2.343   1.607  0.00  0.00    +0.122 A 
ATOM     38  C   UNL     1      -0.937  -1.510   2.506  0.00  0.00    +0.045 A 
ATOM     39  C   UNL     1      -0.689  -1.946   3.794  0.00  0.00    +0.004 A 
ATOM     40  C   UNL     1      -1.088  -3.210   4.186  0.00  0.00    +0.000 A 
ATOM     41  C   UNL     1      -1.736  -4.042   3.292  0.00  0.00    +0.004 A 
ATOM     42  C   UNL     1      -1.992  -3.609   2.005  0.00  0.00    +0.045 A 
ENDBRANCH  36  37
ENDBRANCH  32  36
ENDBRANCH   1  32
TORSDOF 7
