REMARK  Name = ZINC20463543
REMARK  3 active torsions:
REMARK  status: ('A' for Active; 'I' for Inactive)
REMARK    1  A    between atoms: C_4  and  N_7
REMARK    2  A    between atoms: C_13  and  C_16
REMARK    3  A    between atoms: C_22  and  C_24
REMARK                            x       y       z     vdW  Elec       q    Type
REMARK                         _______ _______ _______ _____ _____    ______ ____
ROOT
ATOM      1  C   UNL     1       6.816   3.585   2.172  0.00  0.00    +0.222 C 
ATOM      2  O   UNL     1       7.006   3.285   3.331  0.00  0.00    -0.275 OA
ATOM      3  N   UNL     1       7.347   4.719   1.674  0.00  0.00    -0.263 N 
ATOM      4  C   UNL     1       8.113   5.545   2.490  0.00  0.00    +0.188 A 
ATOM      5  N   UNL     1       8.432   5.407   3.766  0.00  0.00    -0.126 NA
ATOM      6  N   UNL     1       9.149   6.253   4.369  0.00  0.00    -0.144 NA
ATOM      7  C   UNL     1       9.599   7.322   3.741  0.00  0.00    +0.110 A 
ATOM      8  S   UNL     1       8.908   7.046   2.115  0.00  0.00    -0.035 S 
ATOM      9  H   UNL     1       7.175   4.992   0.622  0.00  0.00    +0.157 HD
ENDROOT
BRANCH   1  16
ATOM     10  N   UNL     1       1.362   1.590  -0.006  0.00  0.00    -0.296 N 
ATOM     11  C   UNL     1       2.331   0.926   0.654  0.00  0.00    +0.302 C 
ATOM     12  O   UNL     1       2.050  -0.043   1.333  0.00  0.00    -0.253 OA
ATOM     13  N   UNL     1       3.612   1.335   0.562  0.00  0.00    -0.286 N 
ATOM     14  C   UNL     1       3.954   2.565  -0.165  0.00  0.00    +0.110 C 
ATOM     15  C   UNL     1       4.776   3.470   0.766  0.00  0.00    +0.032 C 
ATOM     16  C   UNL     1       5.986   2.691   1.288  0.00  0.00    +0.078 C 
ATOM     17  C   UNL     1       5.507   1.480   2.092  0.00  0.00    +0.032 C 
ATOM     18  C   UNL     1       4.693   0.556   1.182  0.00  0.00    +0.110 C 
ATOM     19  H   UNL     1       1.603   2.514  -0.553  0.00  0.00    +0.151 HD
BRANCH  10  23
ATOM     20  C   UNL     1      -2.904   1.554   0.030  0.00  0.00    +0.000 C 
ATOM     21  C   UNL     1      -2.186   1.055  -1.226  0.00  0.00    +0.002 C 
ATOM     22  C   UNL     1      -0.751   1.585  -1.237  0.00  0.00    +0.022 C 
ATOM     23  C   UNL     1      -0.012   1.083   0.005  0.00  0.00    +0.074 C 
ATOM     24  C   UNL     1      -0.730   1.581   1.261  0.00  0.00    +0.022 C 
ATOM     25  C   UNL     1      -2.165   1.052   1.273  0.00  0.00    +0.002 C 
ENDBRANCH  10  23
ENDBRANCH   1  16
BRANCH   7  26
ATOM     26  C   UNL     1      10.453   8.454   4.250  0.00  0.00    +0.022 C 
ATOM     27  C   UNL     1       9.735   9.156   5.405  0.00  0.00    +0.017 C 
ATOM     28  C   UNL     1      10.602  10.306   5.921  0.00  0.00    -0.010 C 
ATOM     29  C   UNL     1      11.941   9.753   6.414  0.00  0.00    +0.007 C 
ATOM     30  C   UNL     1      12.659   9.052   5.260  0.00  0.00    -0.010 C 
ATOM     31  C   UNL     1      11.792   7.902   4.743  0.00  0.00    +0.017 C 
ATOM     32  C   UNL     1      12.906  10.053   4.129  0.00  0.00    +0.007 C 
ATOM     33  C   UNL     1      11.567  10.605   3.636  0.00  0.00    -0.010 C 
ATOM     34  C   UNL     1      10.849  11.307   4.791  0.00  0.00    +0.007 C 
ATOM     35  C   UNL     1      10.700   9.455   3.120  0.00  0.00    +0.017 C 
ENDBRANCH   7  26
TORSDOF 3
