REMARK  Name = ZINC03186469
REMARK  7 active torsions:
REMARK  status: ('A' for Active; 'I' for Inactive)
REMARK    1  A    between atoms: C_1  and  C_2
REMARK    2  A    between atoms: C_2  and  O_3
REMARK    3  A    between atoms: O_3  and  C_4
REMARK    4  A    between atoms: C_6  and  C_12
REMARK    5  A    between atoms: C_9  and  O_10
REMARK    6  A    between atoms: N_13  and  N_14
REMARK    7  A    between atoms: C_15  and  C_17
REMARK                            x       y       z     vdW  Elec       q    Type
REMARK                         _______ _______ _______ _____ _____    ______ ____
ROOT
ATOM      1  C   UNL     1       3.337   8.228   0.014  0.00  0.00    +0.138 C 
ATOM      2  N   UNL     1       3.414   6.932   0.006  0.00  0.00    -0.187 NA
ENDROOT
BRANCH   1   5
ATOM      3  C   UNL     1       5.643  11.191   0.006  0.00  0.00    +0.163 A 
ATOM      4  C   UNL     1       4.486  10.434   0.008  0.00  0.00    +0.059 A 
ATOM      5  C   UNL     1       4.567   9.040   0.006  0.00  0.00    -0.001 A 
ATOM      6  C   UNL     1       5.818   8.416  -0.010  0.00  0.00    +0.028 A 
ATOM      7  C   UNL     1       6.968   9.178  -0.018  0.00  0.00    +0.063 A 
ATOM      8  C   UNL     1       6.886  10.563  -0.010  0.00  0.00    +0.173 A 
ATOM      9 BR   UNL     1       8.659   8.332  -0.039  0.00  0.00    -0.046 Br
BRANCH   8  10
ATOM     10  O   UNL     1       8.023  11.310  -0.017  0.00  0.00    -0.503 OA
ATOM     11  H   UNL     1       8.343  11.530  -0.902  0.00  0.00    +0.292 HD
ENDBRANCH   8  10
BRANCH   3  12
ATOM     12  O   UNL     1       5.567  12.549   0.014  0.00  0.00    -0.489 OA
BRANCH  12  14
ATOM     13  C   UNL     1       4.375  14.651   0.036  0.00  0.00    +0.048 C 
ATOM     14  C   UNL     1       4.260  13.126   0.030  0.00  0.00    +0.226 C 
ENDBRANCH  12  14
ENDBRANCH   3  12
ENDBRANCH   1   5
BRANCH   2  15
ATOM     15  N   UNL     1       2.245   6.160   0.013  0.00  0.00    -0.203 N 
ATOM     16  C   UNL     1       2.325   4.815   0.005  0.00  0.00    +0.265 C 
ATOM     17  O   UNL     1       3.412   4.271  -0.009  0.00  0.00    -0.268 OA
ATOM     18  H   UNL     1       1.377   6.594   0.024  0.00  0.00    +0.178 HD
BRANCH  16  19
ATOM     19  C   UNL     1       1.092   4.001   0.013  0.00  0.00    +0.057 A 
ATOM     20  C   UNL     1       1.161   2.603   0.005  0.00  0.00    +0.031 A 
ATOM     21  C   UNL     1      -0.024   1.887   0.012  0.00  0.00    +0.037 A 
ATOM     22  C   UNL     1      -1.228   2.570   0.022  0.00  0.00    +0.126 A 
ATOM     23  N   UNL     1      -1.262   3.889   0.035  0.00  0.00    -0.261 NA
ATOM     24  C   UNL     1      -0.162   4.614   0.029  0.00  0.00    +0.123 A 
ATOM     25 BR   UNL     1       0.002  -0.004   0.002  0.00  0.00    -0.049 Br
ENDBRANCH  16  19
ENDBRANCH   2  15
TORSDOF 6
