REMARK  Name = ZINC35213617
REMARK  12 active torsions:
REMARK  status: ('A' for Active; 'I' for Inactive)
REMARK    1  A    between atoms: C_1  and  C_2
REMARK    2  A    between atoms: C_2  and  C_3
REMARK    3  A    between atoms: C_3  and  C_5
REMARK    4  A    between atoms: C_3  and  N_6
REMARK    5  A    between atoms: C_7  and  C_33
REMARK    6  A    between atoms: C_15  and  C_21
REMARK    7  A    between atoms: N_23  and  C_24
REMARK    8  A    between atoms: C_27  and  O_30
REMARK    9  A    between atoms: O_30  and  C_31
REMARK   10  A    between atoms: C_31  and  C_32
REMARK   11  A    between atoms: N_35  and  C_36
REMARK   12  A    between atoms: C_42  and  C_44
REMARK                            x       y       z     vdW  Elec       q    Type
REMARK                         _______ _______ _______ _____ _____    ______ ____
ROOT
ATOM      1  N   UNL     1      -2.056   0.592   1.193  0.00  0.00    -0.284 N 
ATOM      2  C   UNL     1      -3.356   1.290   1.448  0.00  0.00    +0.199 C 
ATOM      3  C   UNL     1      -3.148   1.836   2.826  0.00  0.00    +0.127 C 
ATOM      4  C   UNL     1      -2.164   2.991   2.860  0.00  0.00    +0.009 C 
ATOM      5  C   UNL     1      -2.094   3.366   4.129  0.00  0.00    +0.004 C 
ATOM      6  C   UNL     1      -3.002   2.387   4.883  0.00  0.00    +0.155 C 
ATOM      7  O   UNL     1      -4.055   2.122   3.865  0.00  0.00    -0.358 OA
ATOM      8  C   UNL     1      -2.150   1.059   4.861  0.00  0.00    +0.123 C 
ATOM      9  C   UNL     1      -2.452   0.560   3.448  0.00  0.00    +0.128 C 
ATOM     10  C   UNL     1      -1.475   0.248   2.390  0.00  0.00    +0.224 C 
ATOM     11  O   UNL     1      -0.367  -0.220   2.546  0.00  0.00    -0.275 OA
ENDROOT
BRANCH   8  12
ATOM     12  C   UNL     1      -0.684   1.354   5.048  0.00  0.00    +0.224 C 
ATOM     13  O   UNL     1       0.110   1.063   4.179  0.00  0.00    -0.275 OA
ATOM     14  N   UNL     1      -0.254   1.941   6.183  0.00  0.00    -0.285 N 
ATOM     15  H   UNL     1      -0.895   2.239   6.848  0.00  0.00    +0.155 HD
BRANCH  14  16
ATOM     16  C   UNL     1       1.117   2.123   6.402  0.00  0.00    +0.034 A 
ATOM     17  C   UNL     1       1.568   3.230   7.108  0.00  0.00    +0.027 A 
ATOM     18  C   UNL     1       2.920   3.408   7.324  0.00  0.00    +0.047 A 
ATOM     19  C   UNL     1       3.829   2.481   6.836  0.00  0.00    +0.121 A 
ATOM     20  C   UNL     1       3.380   1.375   6.130  0.00  0.00    +0.047 A 
ATOM     21  C   UNL     1       2.027   1.192   5.918  0.00  0.00    +0.027 A 
BRANCH  19  22
ATOM     22  O   UNL     1       5.160   2.657   7.048  0.00  0.00    -0.492 OA
BRANCH  22  23
ATOM     23  C   UNL     1       6.039   1.663   6.517  0.00  0.00    +0.225 C 
ATOM     24  C   UNL     1       7.486   2.029   6.854  0.00  0.00    +0.048 C 
ENDBRANCH  22  23
ENDBRANCH  19  22
ENDBRANCH  14  16
ENDBRANCH   8  12
BRANCH   2  25
ATOM     25  C   UNL     1      -4.505   0.315   1.421  0.00  0.00    +0.237 C 
ATOM     26  O   UNL     1      -4.295  -0.873   1.551  0.00  0.00    -0.274 OA
ATOM     27  N   UNL     1      -5.765   0.763   1.254  0.00  0.00    -0.311 N 
ATOM     28  H   UNL     1      -5.932   1.712   1.150  0.00  0.00    +0.149 HD
BRANCH  27  29
ATOM     29  C   UNL     1      -6.882  -0.185   1.228  0.00  0.00    +0.076 C 
ATOM     30  C   UNL     1      -7.047  -0.740  -0.188  0.00  0.00    +0.022 C 
ATOM     31  C   UNL     1      -7.331   0.409  -1.157  0.00  0.00    +0.002 C 
ATOM     32  C   UNL     1      -8.617   1.125  -0.736  0.00  0.00    +0.000 C 
ATOM     33  C   UNL     1      -8.451   1.680   0.680  0.00  0.00    +0.005 C 
ATOM     34  C   UNL     1      -8.167   0.530   1.649  0.00  0.00    +0.006 C 
ATOM     35  C   UNL     1      -8.002   1.085   3.065  0.00  0.00    +0.009 C 
ENDBRANCH  27  29
ENDBRANCH   2  25
BRANCH   1  36
ATOM     36  C   UNL     1      -1.493   0.313  -0.130  0.00  0.00    +0.074 C 
ATOM     37  C   UNL     1      -1.453  -1.200  -0.358  0.00  0.00    +0.028 C 
BRANCH  36  39
ATOM     38  C   UNL     1      -0.127   2.405  -0.126  0.00  0.00    +0.005 C 
ATOM     39  C   UNL     1      -0.073   0.878  -0.209  0.00  0.00    +0.019 C 
ENDBRANCH  36  39
ENDBRANCH   1  36
TORSDOF 8
