REMARK  Name = ZINC16430423
REMARK  3 active torsions:
REMARK  status: ('A' for Active; 'I' for Inactive)
REMARK    1  A    between atoms: C_3  and  C_14
REMARK    2  A    between atoms: C_5  and  C_6
REMARK    3  A    between atoms: N_7  and  N_8
REMARK                            x       y       z     vdW  Elec       q    Type
REMARK                         _______ _______ _______ _____ _____    ______ ____
ROOT
ATOM      1  C   UNL     1       3.889   6.254  -0.009  0.00  0.00    +0.051 A 
ATOM      2  C   UNL     1       2.522   5.953  -0.005  0.00  0.00    +0.050 A 
ATOM      3  C   UNL     1       2.411   4.593  -0.017  0.00  0.00    +0.136 A 
ATOM      4  O   UNL     1       3.646   4.060  -0.022  0.00  0.00    -0.454 OA
ATOM      5  C   UNL     1       4.561   5.051  -0.023  0.00  0.00    +0.148 A 
ENDROOT
BRANCH   3   6
ATOM      6  C   UNL     1       1.145   3.833  -0.017  0.00  0.00    +0.020 A 
ATOM      7  C   UNL     1      -0.078   4.507  -0.004  0.00  0.00    +0.031 A 
ATOM      8  C   UNL     1      -1.258   3.791  -0.004  0.00  0.00    +0.043 A 
ATOM      9  C   UNL     1      -1.231   2.406  -0.023  0.00  0.00    +0.040 A 
ATOM     10  C   UNL     1      -0.021   1.732  -0.030  0.00  0.00    +0.043 A 
ATOM     11  C   UNL     1       1.166   2.437  -0.030  0.00  0.00    +0.031 A 
ATOM     12 CL   UNL     1       0.002  -0.004  -0.046  0.00  0.00    -0.083 Cl
ATOM     13 CL   UNL     1      -2.779   4.627   0.011  0.00  0.00    -0.083 Cl
ENDBRANCH   3   6
BRANCH   5  14
ATOM     14  C   UNL     1       6.014   4.879  -0.032  0.00  0.00    +0.181 C 
ATOM     15  N   UNL     1       6.529   3.686   0.060  0.00  0.00    -0.149 NA
BRANCH  15  16
ATOM     16  N   UNL     1       5.694   2.561   0.062  0.00  0.00    -0.095 N 
ATOM     17  C   UNL     1       5.341   1.789  -1.005  0.00  0.00    +0.255 A 
ATOM     18  N   UNL     1       4.548   0.844  -0.548  0.00  0.00    -0.091 NA
ATOM     19  N   UNL     1       4.380   0.969   0.719  0.00  0.00    -0.020 NA
ATOM     20  N   UNL     1       5.044   1.980   1.165  0.00  0.00    -0.020 NA
ATOM     21  N   UNL     1       5.742   1.965  -2.318  0.00  0.00    -0.325 N 
ATOM     22  H   UNL     1       6.334   2.697  -2.550  0.00  0.00    +0.145 HD
ATOM     23  H   UNL     1       5.432   1.355  -3.006  0.00  0.00    +0.145 HD
ENDBRANCH  15  16
ENDBRANCH   5  14
TORSDOF 3
