REMARK  Name = ZINC32511075
REMARK  6 active torsions:
REMARK  status: ('A' for Active; 'I' for Inactive)
REMARK    1  A    between atoms: C_1  and  C_2
REMARK    2  A    between atoms: C_9  and  C_13
REMARK    3  A    between atoms: C_13  and  N_14
REMARK    4  A    between atoms: N_14  and  C_15
REMARK    5  A    between atoms: C_15  and  C_17
REMARK    6  A    between atoms: C_15  and  C_18
REMARK                            x       y       z     vdW  Elec       q    Type
REMARK                         _______ _______ _______ _____ _____    ______ ____
ROOT
ATOM      1  C   UNL     1       0.047   0.089   4.816  0.00  0.00    -0.025 C 
ENDROOT
BRANCH   1  10
ATOM      2  C   UNL     1      -0.018   1.503   0.010  0.00  0.00    +0.047 C 
ATOM      3  C   UNL     1       0.002  -0.004   0.002  0.00  0.00    -0.008 A 
ATOM      4  C   UNL     1       0.006  -0.685  -1.179  0.00  0.00    +0.008 A 
ATOM      5  C   UNL     1       0.025  -2.086  -1.169  0.00  0.00    +0.019 A 
ATOM      6  C   UNL     1       0.039  -2.757   0.005  0.00  0.00    +0.096 A 
ATOM      7  N   UNL     1       0.035  -2.087   1.190  0.00  0.00    -0.268 N 
ATOM      8  C   UNL     1       0.023  -0.720   1.213  0.00  0.00    +0.143 A 
ATOM      9  N   UNL     1       0.025  -0.056   2.368  0.00  0.00    -0.236 NA
ATOM     10  C   UNL     1       0.045  -0.693   3.528  0.00  0.00    +0.032 A 
ATOM     11  C   UNL     1       0.064  -2.074   3.559  0.00  0.00    +0.092 A 
ATOM     12  C   UNL     1       0.050  -2.779   2.349  0.00  0.00    +0.258 A 
ATOM     13  O   UNL     1       0.066  -3.999   2.343  0.00  0.00    -0.267 OA
ENDBRANCH   1  10
BRANCH   1  14
ATOM     14  N   UNL     1       1.293   0.860   4.919  0.00  0.00    +0.387 N 
ATOM     15  H   UNL     1       2.081   0.229   4.907  0.00  0.00    -0.085 HD
ATOM     16  H   UNL     1       1.360   1.496   4.139  0.00  0.00    -0.085 HD
BRANCH  14  17
ATOM     17  C   UNL     1       1.295   1.622   6.175  0.00  0.00    -0.044 C 
ATOM     18  C   UNL     1       1.319   0.653   7.359  0.00  0.00    -0.009 C 
BRANCH  17  19
ATOM     19  C   UNL     1       2.514   2.506   6.224  0.00  0.00    -0.062 A 
ATOM     20  C   UNL     1       3.729   2.034   5.762  0.00  0.00    +0.003 A 
ATOM     21  C   UNL     1       4.848   2.845   5.807  0.00  0.00    +0.020 A 
ATOM     22  C   UNL     1       4.752   4.128   6.314  0.00  0.00    +0.041 A 
ATOM     23  C   UNL     1       3.536   4.600   6.776  0.00  0.00    +0.020 A 
ATOM     24  C   UNL     1       2.417   3.791   6.726  0.00  0.00    +0.003 A 
ATOM     25 CL   UNL     1       6.156   5.147   6.371  0.00  0.00    -0.084 Cl
ENDBRANCH  17  19
ENDBRANCH  14  17
ENDBRANCH   1  14
TORSDOF 4
