REMARK  Name = ZINC05102451
REMARK  10 active torsions:
REMARK  status: ('A' for Active; 'I' for Inactive)
REMARK    1  A    between atoms: C_1  and  C_2
REMARK    2  A    between atoms: C_2  and  O_3
REMARK    3  A    between atoms: O_3  and  C_4
REMARK    4  A    between atoms: C_6  and  C_11
REMARK    5  A    between atoms: C_9  and  O_10
REMARK    6  A    between atoms: C_11  and  C_13
REMARK    7  A    between atoms: C_11  and  N_24
REMARK    8  A    between atoms: C_22  and  O_23
REMARK    9  A    between atoms: N_24  and  C_25
REMARK   10  A    between atoms: C_27  and  C_30
REMARK                            x       y       z     vdW  Elec       q    Type
REMARK                         _______ _______ _______ _____ _____    ______ ____
ROOT
ATOM      1  C   UNL     1      -0.209  -4.962   0.489  0.00  0.00    +0.136 C 
ENDROOT
BRANCH   1   2
ATOM      2  C   UNL     1      -1.580  -5.371   0.018  0.00  0.00    +0.021 A 
ATOM      3  C   UNL     1      -1.768  -6.638  -0.528  0.00  0.00    +0.010 A 
ATOM      4  C   UNL     1      -2.996  -7.041  -0.957  0.00  0.00    +0.010 A 
ATOM      5  C   UNL     1      -4.089  -6.165  -0.860  0.00  0.00    +0.004 A 
ATOM      6  C   UNL     1      -5.372  -6.544  -1.298  0.00  0.00    +0.011 A 
ATOM      7  C   UNL     1      -6.389  -5.641  -1.172  0.00  0.00    +0.020 A 
ATOM      8  C   UNL     1      -6.139  -4.385  -0.622  0.00  0.00    +0.111 A 
ATOM      9  N   UNL     1      -4.943  -4.037  -0.215  0.00  0.00    -0.251 NA
ATOM     10  C   UNL     1      -3.905  -4.873  -0.310  0.00  0.00    +0.113 A 
ATOM     11  C   UNL     1      -2.620  -4.493   0.129  0.00  0.00    +0.148 A 
BRANCH  11  12
ATOM     12  O   UNL     1      -2.417  -3.259   0.661  0.00  0.00    -0.504 OA
ATOM     13  H   UNL     1      -2.177  -2.585   0.010  0.00  0.00    +0.292 HD
ENDBRANCH  11  12
ENDBRANCH   1   2
BRANCH   1  16
ATOM     14  C   UNL     1       1.305  -2.149  -1.529  0.00  0.00    +0.162 A 
ATOM     15  C   UNL     1       0.661  -2.842  -0.516  0.00  0.00    +0.055 A 
ATOM     16  C   UNL     1       0.496  -4.211  -0.611  0.00  0.00    -0.019 A 
ATOM     17  C   UNL     1       0.982  -4.894  -1.711  0.00  0.00    +0.009 A 
ATOM     18  C   UNL     1       1.629  -4.210  -2.723  0.00  0.00    +0.049 A 
ATOM     19  C   UNL     1       1.794  -2.837  -2.636  0.00  0.00    +0.158 A 
BRANCH  19  20
ATOM     20  O   UNL     1       2.431  -2.163  -3.630  0.00  0.00    -0.503 OA
ATOM     21  H   UNL     1       3.387  -2.086  -3.504  0.00  0.00    +0.292 HD
ENDBRANCH  19  20
BRANCH  14  22
ATOM     22  O   UNL     1       1.463  -0.802  -1.440  0.00  0.00    -0.489 OA
BRANCH  22  24
ATOM     23  C   UNL     1       1.208   1.341  -0.352  0.00  0.00    +0.048 C 
ATOM     24  C   UNL     1       0.936  -0.162  -0.276  0.00  0.00    +0.226 C 
ENDBRANCH  22  24
ENDBRANCH  14  22
ENDBRANCH   1  16
BRANCH   1  25
ATOM     25  N   UNL     1       0.565  -6.156   0.839  0.00  0.00    -0.320 N 
ATOM     26  H   UNL     1       1.188  -6.534   0.199  0.00  0.00    +0.148 HD
BRANCH  25  27
ATOM     27  C   UNL     1       0.405  -6.747   2.087  0.00  0.00    +0.097 A 
ATOM     28  C   UNL     1      -0.421  -6.147   3.033  0.00  0.00    +0.045 A 
ATOM     29  C   UNL     1      -0.571  -6.745   4.270  0.00  0.00    -0.046 A 
ATOM     30  C   UNL     1       0.112  -7.928   4.521  0.00  0.00    +0.021 A 
ATOM     31  C   UNL     1       0.914  -8.468   3.537  0.00  0.00    +0.084 A 
ATOM     32  C   UNL     1      -1.456  -6.128   5.322  0.00  0.00    +0.044 C 
ATOM     33  N   UNL     1       1.081  -7.911   2.308  0.00  0.00    -0.350 N 
ATOM     34  H   UNL     1       1.678  -8.339   1.591  0.00  0.00    +0.166 HD
ENDBRANCH  25  27
ENDBRANCH   1  25
TORSDOF 8
