REMARK  Name = ZINC16020000
REMARK  8 active torsions:
REMARK  status: ('A' for Active; 'I' for Inactive)
REMARK    1  A    between atoms: C_1  and  C_2
REMARK    2  A    between atoms: C_2  and  C_3
REMARK    3  A    between atoms: C_14  and  C_17
REMARK    4  A    between atoms: C_17  and  C_18
REMARK    5  A    between atoms: C_21  and  O_25
REMARK    6  A    between atoms: C_22  and  O_24
REMARK    7  A    between atoms: N_28  and  C_31
REMARK    8  A    between atoms: C_31  and  C_32
REMARK                            x       y       z     vdW  Elec       q    Type
REMARK                         _______ _______ _______ _____ _____    ______ ____
ROOT
ATOM      1  C   UNL     1       0.707  -0.490  -1.238  0.00  0.00    -0.047 A 
ATOM      2  C   UNL     1      -0.009  -0.719  -2.398  0.00  0.00    +0.005 A 
ATOM      3  C   UNL     1       0.631  -1.165  -3.536  0.00  0.00    +0.024 A 
ATOM      4  C   UNL     1       2.006  -1.387  -3.525  0.00  0.00    +0.039 A 
ATOM      5  C   UNL     1       2.717  -1.152  -2.352  0.00  0.00    +0.004 A 
ATOM      6  C   UNL     1       2.075  -0.703  -1.220  0.00  0.00    +0.011 A 
ATOM      7  C   UNL     1       4.149  -1.480  -2.667  0.00  0.00    +0.136 C 
ATOM      8  C   UNL     1       4.685  -2.588  -1.753  0.00  0.00    +0.122 C 
ATOM      9  C   UNL     1       6.170  -2.204  -1.502  0.00  0.00    +0.107 C 
ATOM     10  C   UNL     1       6.390  -0.915  -2.321  0.00  0.00    +0.072 C 
ATOM     11  N   UNL     1       5.029  -0.316  -2.453  0.00  0.00    -0.295 NA
ATOM     12  C   UNL     1       6.204  -1.887  -0.024  0.00  0.00    +0.227 C 
ATOM     13  O   UNL     1       7.183  -1.526   0.593  0.00  0.00    -0.275 OA
ATOM     14  N   UNL     1       4.984  -2.067   0.497  0.00  0.00    -0.237 N 
ATOM     15  C   UNL     1       4.045  -2.474  -0.388  0.00  0.00    +0.229 C 
ATOM     16  O   UNL     1       2.882  -2.707  -0.138  0.00  0.00    -0.275 OA
ATOM     17  C   UNL     1       4.144  -1.909  -4.108  0.00  0.00    +0.243 C 
ATOM     18  O   UNL     1       5.103  -2.260  -4.763  0.00  0.00    -0.273 OA
ATOM     19  N   UNL     1       2.868  -1.828  -4.532  0.00  0.00    -0.283 N 
ATOM     20  H   UNL     1       4.991   0.316  -3.239  0.00  0.00    +0.124 HD
ATOM     21  H   UNL     1       2.580  -2.051  -5.431  0.00  0.00    +0.155 HD
ENDROOT
BRANCH   1  23
ATOM     22  C   UNL     1      -0.019   1.526   0.010  0.00  0.00    +0.009 C 
ATOM     23  C   UNL     1       0.002  -0.004   0.002  0.00  0.00    +0.032 C 
ENDBRANCH   1  23
BRANCH  10  24
ATOM     24  C   UNL     1       7.309   0.046  -1.564  0.00  0.00    +0.054 C 
BRANCH  24  25
ATOM     25  C   UNL     1       7.610   1.242  -2.431  0.00  0.00    -0.042 A 
ATOM     26  C   UNL     1       8.702   1.222  -3.279  0.00  0.00    +0.007 A 
ATOM     27  C   UNL     1       8.982   2.316  -4.076  0.00  0.00    +0.049 A 
ATOM     28  C   UNL     1       8.166   3.435  -4.027  0.00  0.00    +0.158 A 
ATOM     29  C   UNL     1       7.067   3.455  -3.175  0.00  0.00    +0.158 A 
ATOM     30  C   UNL     1       6.789   2.353  -2.381  0.00  0.00    +0.052 A 
BRANCH  29  31
ATOM     31  O   UNL     1       6.264   4.551  -3.123  0.00  0.00    -0.503 OA
ATOM     32  H   UNL     1       5.528   4.529  -3.750  0.00  0.00    +0.292 HD
ENDBRANCH  29  31
BRANCH  28  33
ATOM     33  O   UNL     1       8.440   4.513  -4.811  0.00  0.00    -0.503 OA
ATOM     34  H   UNL     1       8.016   4.486  -5.679  0.00  0.00    +0.292 HD
ENDBRANCH  28  33
ENDBRANCH  24  25
ENDBRANCH  10  24
BRANCH  14  35
ATOM     35  C   UNL     1       4.689  -1.848   1.915  0.00  0.00    +0.151 C 
BRANCH  35  36
ATOM     36  C   UNL     1       4.269  -0.416   2.125  0.00  0.00    -0.029 A 
ATOM     37  C   UNL     1       5.218   0.548   2.406  0.00  0.00    +0.008 A 
ATOM     38  C   UNL     1       4.834   1.861   2.599  0.00  0.00    +0.038 A 
ATOM     39  C   UNL     1       3.497   2.211   2.510  0.00  0.00    +0.123 A 
ATOM     40  C   UNL     1       2.547   1.245   2.228  0.00  0.00    +0.038 A 
ATOM     41  C   UNL     1       2.934  -0.067   2.031  0.00  0.00    +0.008 A 
ATOM     42  F   UNL     1       3.121   3.495   2.698  0.00  0.00    -0.205 F 
ENDBRANCH  35  36
ENDBRANCH  14  35
TORSDOF 7
