REMARK  Name = ZINC40680935
REMARK  4 active torsions:
REMARK  status: ('A' for Active; 'I' for Inactive)
REMARK    1  A    between atoms: C_1  and  C_2
REMARK    2  A    between atoms: C_9  and  N_25
REMARK    3  A    between atoms: C_10  and  N_14
REMARK    4  A    between atoms: N_14  and  C_15
REMARK                            x       y       z     vdW  Elec       q    Type
REMARK                         _______ _______ _______ _____ _____    ______ ____
ROOT
ATOM      1  C   UNL     1       0.096   1.014   2.014  0.00  0.00    +0.089 C 
ATOM      2  C   UNL     1       0.080  -0.337   1.348  0.00  0.00    +0.136 A 
ATOM      3  C   UNL     1      -1.016  -1.061   1.061  0.00  0.00    +0.091 A 
ATOM      4  C   UNL     1      -0.599  -2.261   0.441  0.00  0.00    +0.167 A 
ATOM      5  N   UNL     1       0.708  -2.240   0.365  0.00  0.00    -0.063 NA
ATOM      6  O   UNL     1       1.156  -1.023   0.932  0.00  0.00    -0.358 OA
ATOM      7  N   UNL     1      -1.431  -3.283  -0.010  0.00  0.00    -0.282 N 
ATOM      8  C   UNL     1      -2.811  -3.157   0.103  0.00  0.00    +0.127 A 
ATOM      9  C   UNL     1      -3.620  -4.289   0.212  0.00  0.00    +0.104 A 
ATOM     10  C   UNL     1      -4.999  -4.106   0.324  0.00  0.00    +0.145 A 
ATOM     11  N   UNL     1      -5.488  -2.868   0.322  0.00  0.00    -0.221 NA
ATOM     12  C   UNL     1      -4.689  -1.825   0.216  0.00  0.00    +0.200 A 
ATOM     13  N   UNL     1      -3.381  -1.954   0.114  0.00  0.00    -0.333 N 
ATOM     14  H   UNL     1      -1.047  -4.082  -0.403  0.00  0.00    +0.155 HD
ATOM     15  H   UNL     1      -2.827  -1.161   0.043  0.00  0.00    +0.168 HD
ENDROOT
BRANCH   9  16
ATOM     16  N   UNL     1      -3.061  -5.577   0.210  0.00  0.00    -0.353 N 
ATOM     17  H   UNL     1      -2.101  -5.689   0.131  0.00  0.00    +0.143 HD
ATOM     18  H   UNL     1      -3.635  -6.355   0.286  0.00  0.00    +0.143 HD
ENDBRANCH   9  16
BRANCH  10  19
ATOM     19  N   UNL     1      -5.850  -5.200   0.435  0.00  0.00    -0.322 N 
ATOM     20  H   UNL     1      -5.486  -6.099   0.435  0.00  0.00    +0.148 HD
BRANCH  19  21
ATOM     21  C   UNL     1      -7.296  -4.995   0.551  0.00  0.00    +0.034 C 
ATOM     22  C   UNL     1      -7.807  -4.253  -0.686  0.00  0.00    +0.029 C 
ATOM     23  C   UNL     1      -9.317  -4.039  -0.564  0.00  0.00    -0.008 C 
ATOM     24  C   UNL     1     -10.017  -5.395  -0.457  0.00  0.00    +0.007 C 
ATOM     25  C   UNL     1      -9.506  -6.136   0.780  0.00  0.00    -0.008 C 
ATOM     26  C   UNL     1      -7.996  -6.351   0.658  0.00  0.00    +0.029 C 
ATOM     27  C   UNL     1      -9.805  -5.308   2.031  0.00  0.00    +0.007 C 
ATOM     28  C   UNL     1      -9.104  -3.952   1.923  0.00  0.00    -0.008 C 
ATOM     29  C   UNL     1      -9.615  -3.210   0.687  0.00  0.00    +0.007 C 
ATOM     30  C   UNL     1      -7.594  -4.166   1.802  0.00  0.00    +0.029 C 
ENDBRANCH  19  21
ENDBRANCH  10  19
TORSDOF 3
