REMARK  Name = ZINC32561107
REMARK  10 active torsions:
REMARK  status: ('A' for Active; 'I' for Inactive)
REMARK    1  A    between atoms: C_1  and  C_2
REMARK    2  A    between atoms: C_9  and  C_24
REMARK    3  A    between atoms: C_10  and  C_11
REMARK    4  A    between atoms: C_11  and  N_12
REMARK    5  A    between atoms: N_12  and  C_13
REMARK    6  A    between atoms: C_13  and  C_14
REMARK    7  A    between atoms: C_16  and  C_20
REMARK    8  A    between atoms: C_20  and  C_21
REMARK    9  A    between atoms: C_20  and  C_22
REMARK   10  A    between atoms: C_20  and  C_23
REMARK                            x       y       z     vdW  Elec       q    Type
REMARK                         _______ _______ _______ _____ _____    ______ ____
ROOT
ATOM      1  C   UNL     1       0.346   1.489  -0.021  0.00  0.00    +0.044 C 
ATOM      2  C   UNL     1       0.207  -0.012  -0.016  0.00  0.00    -0.046 A 
ATOM      3  C   UNL     1      -0.060  -0.700  -1.212  0.00  0.00    +0.021 A 
ATOM      4  C   UNL     1      -0.185  -2.043  -1.212  0.00  0.00    +0.093 A 
ATOM      5  N   UNL     1      -0.054  -2.755  -0.052  0.00  0.00    -0.305 N 
ATOM      6  C   UNL     1       0.208  -2.111   1.132  0.00  0.00    +0.139 A 
ATOM      7  C   UNL     1       0.345  -0.706   1.145  0.00  0.00    +0.050 A 
ATOM      8  N   UNL     1       0.287  -3.017   2.091  0.00  0.00    -0.223 NA
ATOM      9  C   UNL     1       0.083  -4.237   1.560  0.00  0.00    +0.146 A 
ATOM     10  C   UNL     1      -0.131  -4.087   0.219  0.00  0.00    +0.039 A 
ENDROOT
BRANCH   9  11
ATOM     11  C   UNL     1       0.090  -5.515   2.298  0.00  0.00    +0.267 C 
ATOM     12  O   UNL     1      -0.001  -6.566   1.694  0.00  0.00    -0.268 OA
ATOM     13  N   UNL     1       0.199  -5.517   3.641  0.00  0.00    -0.296 N 
ATOM     14  C   UNL     1       0.175  -4.251   4.340  0.00  0.00    +0.108 C 
ATOM     15  C   UNL     1       1.616  -3.696   4.458  0.00  0.00    +0.019 C 
ATOM     16  C   UNL     1       2.393  -4.494   5.419  0.00  0.00    +0.002 C 
ATOM     17  C   UNL     1       2.583  -5.953   5.017  0.00  0.00    +0.002 C 
ATOM     18  C   UNL     1       1.385  -6.755   5.464  0.00  0.00    +0.019 C 
ATOM     19  C   UNL     1       0.330  -6.811   4.339  0.00  0.00    +0.108 C 
ENDBRANCH   9  11
BRANCH  10  20
ATOM     20  C   UNL     1      -0.403  -5.189  -0.773  0.00  0.00    -0.025 C 
BRANCH  20  21
ATOM     21  N   UNL     1       0.868  -5.673  -1.327  0.00  0.00    +0.386 N 
ATOM     22  H   UNL     1       1.344  -4.913  -1.790  0.00  0.00    -0.085 HD
ATOM     23  H   UNL     1       1.447  -6.028  -0.581  0.00  0.00    -0.085 HD
BRANCH  21  24
ATOM     24  C   UNL     1       0.603  -6.747  -2.294  0.00  0.00    -0.026 C 
BRANCH  24  25
ATOM     25  C   UNL     1       1.907  -7.243  -2.863  0.00  0.00    +0.019 A 
ATOM     26  C   UNL     1       2.484  -6.829  -4.015  0.00  0.00    +0.046 A 
ATOM     27  C   UNL     1       3.679  -7.537  -4.176  0.00  0.00    +0.068 A 
ATOM     28  N   UNL     1       3.815  -8.348  -3.158  0.00  0.00    -0.178 NA
ATOM     29  N   UNL     1       2.711  -8.177  -2.313  0.00  0.00    -0.283 N 
ATOM     30  H   UNL     1       2.551  -8.648  -1.480  0.00  0.00    +0.188 HD
BRANCH  27  31
ATOM     31  C   UNL     1       4.644  -7.393  -5.325  0.00  0.00    +0.006 C 
ATOM     32  C   UNL     1       5.433  -6.091  -5.167  0.00  0.00    +0.017 C 
ATOM     33  C   UNL     1       5.612  -8.578  -5.331  0.00  0.00    +0.017 C 
ATOM     34  C   UNL     1       3.868  -7.362  -6.643  0.00  0.00    +0.017 C 
ENDBRANCH  27  31
ENDBRANCH  24  25
ENDBRANCH  21  24
ENDBRANCH  20  21
ENDBRANCH  10  20
TORSDOF 6
