REMARK  Name = ZINC14018439
REMARK  5 active torsions:
REMARK  status: ('A' for Active; 'I' for Inactive)
REMARK    1  A    between atoms: C_1  and  C_2
REMARK    2  A    between atoms: C_4  and  C_36
REMARK    3  A    between atoms: C_17  and  C_19
REMARK    4  A    between atoms: N_24  and  S_26
REMARK    5  A    between atoms: S_26  and  C_29
REMARK                            x       y       z     vdW  Elec       q    Type
REMARK                         _______ _______ _______ _____ _____    ______ ____
ROOT
ATOM      1  C   UNL     1      -0.307   7.314 -12.131  0.00  0.00    +0.044 C 
ATOM      2  C   UNL     1      -0.757   6.494 -10.950  0.00  0.00    -0.049 A 
ATOM      3  C   UNL     1      -2.030   6.659 -10.426  0.00  0.00    +0.009 A 
ATOM      4  C   UNL     1      -2.464   5.924  -9.353  0.00  0.00    -0.024 A 
ATOM      5  C   UNL     1      -1.619   4.969  -8.743  0.00  0.00    +0.083 A 
ATOM      6  C   UNL     1      -0.330   4.827  -9.303  0.00  0.00    +0.041 A 
ATOM      7  C   UNL     1       0.096   5.567 -10.378  0.00  0.00    +0.020 A 
ATOM      8  S   UNL     1       0.394   3.572  -8.275  0.00  0.00    -0.052 S 
ATOM      9  C   UNL     1      -1.016   3.314  -7.208  0.00  0.00    +0.162 A 
ATOM     10  N   UNL     1      -1.890   4.169  -7.687  0.00  0.00    -0.224 NA
ATOM     11  N   UNL     1      -1.149   2.443  -6.146  0.00  0.00    -0.307 N 
ATOM     12  C   UNL     1       0.079   1.662  -5.948  0.00  0.00    +0.126 C 
ATOM     13  C   UNL     1      -0.170   0.586  -4.885  0.00  0.00    +0.126 C 
ATOM     14  N   UNL     1      -0.695   1.238  -3.675  0.00  0.00    -0.298 N 
ATOM     15  C   UNL     1      -1.847   2.142  -3.815  0.00  0.00    +0.126 C 
ATOM     16  C   UNL     1      -1.528   3.160  -4.921  0.00  0.00    +0.126 C 
ATOM     17  C   UNL     1      -0.138   1.008  -2.469  0.00  0.00    +0.220 C 
ATOM     18  O   UNL     1       0.858   0.322  -2.382  0.00  0.00    -0.275 OA
ATOM     19  C   UNL     1      -3.857   6.137  -8.818  0.00  0.00    +0.046 C 
ENDROOT
BRANCH  17  20
ATOM     20  C   UNL     1      -0.753   1.605  -1.230  0.00  0.00    +0.091 C 
ATOM     21  C   UNL     1      -1.912   0.722  -0.759  0.00  0.00    +0.015 C 
ATOM     22  C   UNL     1      -2.558   1.343   0.480  0.00  0.00    +0.018 C 
ATOM     23  C   UNL     1      -1.523   1.422   1.607  0.00  0.00    +0.109 C 
ATOM     24  N   UNL     1      -0.340   2.148   1.115  0.00  0.00    -0.176 NA
ATOM     25  C   UNL     1       0.303   1.686  -0.123  0.00  0.00    +0.122 C 
BRANCH  24  26
ATOM     26  S   UNL     1       0.253   3.458   1.936  0.00  0.00    +0.061 S 
ATOM     27  O   UNL     1      -0.172   3.319   3.284  0.00  0.00    -0.153 OA
ATOM     28  O   UNL     1       1.623   3.576   1.577  0.00  0.00    -0.153 OA
BRANCH  26  29
ATOM     29  C   UNL     1      -0.560   4.885   1.297  0.00  0.00    +0.106 A 
ATOM     30  C   UNL     1      -0.013   5.571   0.229  0.00  0.00    +0.031 A 
ATOM     31  C   UNL     1      -0.653   6.687  -0.277  0.00  0.00    +0.040 A 
ATOM     32  C   UNL     1      -1.836   7.124   0.294  0.00  0.00    +0.124 A 
ATOM     33  C   UNL     1      -2.380   6.439   1.367  0.00  0.00    +0.040 A 
ATOM     34  C   UNL     1      -1.742   5.320   1.867  0.00  0.00    +0.031 A 
ATOM     35  F   UNL     1      -2.459   8.219  -0.196  0.00  0.00    -0.205 F 
ENDBRANCH  26  29
ENDBRANCH  24  26
ENDBRANCH  17  20
TORSDOF 3
