REMARK  Name = ZINC63122360
REMARK  6 active torsions:
REMARK  status: ('A' for Active; 'I' for Inactive)
REMARK    1  A    between atoms: C_7  and  C_10
REMARK    2  A    between atoms: C_10  and  C_11
REMARK    3  A    between atoms: C_11  and  N_12
REMARK    4  A    between atoms: C_13  and  C_15
REMARK    5  A    between atoms: C_15  and  C_20
REMARK    6  A    between atoms: C_20  and  C_21
REMARK                            x       y       z     vdW  Elec       q    Type
REMARK                         _______ _______ _______ _____ _____    ______ ____
ROOT
ATOM      1  N   UNL     1      -0.458  -4.798  -1.460  0.00  0.00    -0.315 N 
ATOM      2  C   UNL     1      -0.811  -5.380  -2.623  0.00  0.00    +0.220 C 
ATOM      3  O   UNL     1      -0.371  -4.957  -3.671  0.00  0.00    -0.275 OA
ATOM      4  H   UNL     1      -0.810  -5.136  -0.622  0.00  0.00    +0.149 HD
ENDROOT
BRANCH   2   5
ATOM      5  C   UNL     1      -1.752  -6.557  -2.622  0.00  0.00    +0.053 C 
ATOM      6  C   UNL     1      -1.100  -7.772  -1.915  0.00  0.00    +0.016 C 
ATOM      7  C   UNL     1      -0.190  -8.362  -3.020  0.00  0.00    +0.001 C 
ATOM      8  C   UNL     1      -1.011  -8.196  -4.316  0.00  0.00    +0.001 C 
ATOM      9  C   UNL     1      -2.004  -7.049  -4.062  0.00  0.00    +0.016 C 
BRANCH   5  10
ATOM     10  C   UNL     1      -3.072  -6.185  -1.944  0.00  0.00    +0.079 C 
BRANCH  10  11
ATOM     11  C   UNL     1      -2.804  -5.752  -0.525  0.00  0.00    +0.080 A 
ATOM     12  N   UNL     1      -2.556  -4.550  -0.092  0.00  0.00    -0.244 NA
ATOM     13  C   UNL     1      -2.331  -4.289   1.212  0.00  0.00    +0.078 A 
ATOM     14  C   UNL     1      -2.051  -3.065   1.855  0.00  0.00    +0.029 A 
ATOM     15  C   UNL     1      -1.853  -3.020   3.201  0.00  0.00    +0.002 A 
ATOM     16  C   UNL     1      -1.918  -4.163   3.985  0.00  0.00    +0.001 A 
ATOM     17  C   UNL     1      -2.191  -5.381   3.391  0.00  0.00    +0.017 A 
ATOM     18  C   UNL     1      -2.393  -5.438   2.033  0.00  0.00    +0.039 A 
ATOM     19  S   UNL     1      -2.763  -6.712   0.856  0.00  0.00    -0.072 S 
ENDBRANCH  10  11
ENDBRANCH   5  10
ENDBRANCH   2   5
BRANCH   1  20
ATOM     20  C   UNL     1       0.457  -3.653  -1.462  0.00  0.00    +0.108 C 
BRANCH  20  21
ATOM     21  C   UNL     1       0.691  -3.186  -0.024  0.00  0.00    +0.052 C 
BRANCH  21  28
ATOM     22  C   UNL     1      -0.016   1.348   0.009  0.00  0.00    +0.001 A 
ATOM     23  C   UNL     1       1.166   2.101   0.002  0.00  0.00    +0.002 A 
ATOM     24  C   UNL     1       2.391   1.535  -0.013  0.00  0.00    +0.026 A 
ATOM     25  C   UNL     1       2.529   0.120  -0.022  0.00  0.00    +0.043 A 
ATOM     26  N   UNL     1       3.587  -0.654  -0.037  0.00  0.00    -0.380 N 
ATOM     27  C   UNL     1       3.143  -2.053  -0.041  0.00  0.00    +0.144 C 
ATOM     28  C   UNL     1       1.631  -2.008  -0.025  0.00  0.00    -0.040 C 
ATOM     29  C   UNL     1       1.295  -0.698  -0.014  0.00  0.00    -0.001 A 
ATOM     30  C   UNL     1       0.002  -0.004   0.002  0.00  0.00    +0.010 A 
ATOM     31  H   UNL     1       4.509  -0.353  -0.045  0.00  0.00    +0.160 HD
ENDBRANCH  21  28
ENDBRANCH  20  21
ENDBRANCH   1  20
TORSDOF 6
