REMARK  Name = ZINC36580226
REMARK  13 active torsions:
REMARK  status: ('A' for Active; 'I' for Inactive)
REMARK    1  A    between atoms: C_1  and  C_2
REMARK    2  A    between atoms: C_5  and  S_8
REMARK    3  A    between atoms: S_8  and  C_11
REMARK    4  A    between atoms: C_11  and  N_12
REMARK    5  A    between atoms: C_13  and  C_15
REMARK    6  A    between atoms: C_15  and  C_17
REMARK    7  A    between atoms: C_15  and  N_24
REMARK    8  A    between atoms: C_20  and  O_23
REMARK    9  A    between atoms: N_24  and  C_33
REMARK   10  A    between atoms: C_25  and  C_27
REMARK   11  A    between atoms: C_33  and  C_34
REMARK   12  A    between atoms: C_33  and  C_35
REMARK   13  A    between atoms: C_33  and  C_36
REMARK                            x       y       z     vdW  Elec       q    Type
REMARK                         _______ _______ _______ _____ _____    ______ ____
ROOT
ATOM      1  C   UNL     1       3.081  -5.834   2.623  0.00  0.00    +0.193 C 
ENDROOT
BRANCH   1   2
ATOM      2  C   UNL     1       4.549  -5.757   2.291  0.00  0.00    -0.018 A 
ATOM      3  C   UNL     1       5.345  -6.880   2.416  0.00  0.00    +0.009 A 
ATOM      4  C   UNL     1       6.691  -6.812   2.112  0.00  0.00    +0.046 A 
ATOM      5  C   UNL     1       7.244  -5.615   1.681  0.00  0.00    +0.117 A 
ATOM      6  C   UNL     1       6.443  -4.489   1.556  0.00  0.00    +0.046 A 
ATOM      7  C   UNL     1       5.096  -4.564   1.856  0.00  0.00    +0.009 A 
BRANCH   5   8
ATOM      8  O   UNL     1       8.568  -5.545   1.382  0.00  0.00    -0.507 OA
ATOM      9  H   UNL     1       8.773  -5.744   0.459  0.00  0.00    +0.292 HD
ENDBRANCH   5   8
ENDBRANCH   1   2
BRANCH   1  11
ATOM     10  N   UNL     1       2.297  -4.739   0.549  0.00  0.00    -0.294 N 
ATOM     11  C   UNL     1       2.276  -5.823   1.349  0.00  0.00    +0.239 C 
ATOM     12  O   UNL     1       1.610  -6.790   1.044  0.00  0.00    -0.273 OA
ATOM     13  H   UNL     1       2.830  -3.966   0.792  0.00  0.00    +0.150 HD
BRANCH  10  14
ATOM     14  C   UNL     1       1.515  -4.728  -0.690  0.00  0.00    +0.278 C 
BRANCH  14  15
ATOM     15  S   UNL     1      -0.089  -3.936  -0.385  0.00  0.00    +0.013 S 
ATOM     16  O   UNL     1      -0.676  -4.460   0.798  0.00  0.00    -0.168 OA
ATOM     17  O   UNL     1      -0.835  -3.861  -1.593  0.00  0.00    -0.168 OA
BRANCH  15  22
ATOM     18  C   UNL     1       1.239   1.793   0.962  0.00  0.00    +0.044 C 
ATOM     19  C   UNL     1       0.907   0.362   0.625  0.00  0.00    -0.050 A 
ATOM     20  C   UNL     1       0.679  -0.004  -0.688  0.00  0.00    +0.005 A 
ATOM     21  C   UNL     1       0.376  -1.317  -0.997  0.00  0.00    +0.027 A 
ATOM     22  C   UNL     1       0.300  -2.263   0.008  0.00  0.00    +0.090 A 
ATOM     23  C   UNL     1       0.529  -1.897   1.321  0.00  0.00    +0.027 A 
ATOM     24  C   UNL     1       0.837  -0.585   1.629  0.00  0.00    +0.005 A 
ENDBRANCH  15  22
ENDBRANCH  14  15
ENDBRANCH  10  14
ENDBRANCH   1  11
BRANCH   1  25
ATOM     25  N   UNL     1       2.812  -7.072   3.360  0.00  0.00    -0.281 N 
ATOM     26  C   UNL     1       3.000  -8.265   2.764  0.00  0.00    +0.220 C 
ATOM     27  O   UNL     1       3.294  -8.317   1.588  0.00  0.00    -0.275 OA
BRANCH  26  28
ATOM     28  C   UNL     1       2.846  -9.537   3.558  0.00  0.00    +0.075 C 
ATOM     29  C   UNL     1       3.845  -9.539   4.717  0.00  0.00    +0.013 C 
ATOM     30  C   UNL     1       3.688 -10.830   5.523  0.00  0.00    +0.001 C 
ATOM     31  C   UNL     1       3.956 -12.033   4.617  0.00  0.00    +0.000 C 
ATOM     32  C   UNL     1       2.957 -12.031   3.458  0.00  0.00    +0.001 C 
ATOM     33  C   UNL     1       3.113 -10.740   2.651  0.00  0.00    +0.013 C 
ENDBRANCH  26  28
BRANCH  25  34
ATOM     34  C   UNL     1       2.338  -7.011   4.745  0.00  0.00    +0.030 C 
ATOM     35  C   UNL     1       1.527  -5.730   4.951  0.00  0.00    +0.031 C 
ATOM     36  C   UNL     1       1.455  -8.226   5.036  0.00  0.00    +0.031 C 
ATOM     37  C   UNL     1       3.538  -7.013   5.695  0.00  0.00    +0.031 C 
ENDBRANCH  25  34
ENDBRANCH   1  25
TORSDOF 9
