REMARK  Name = ZINC12903464
REMARK  8 active torsions:
REMARK  status: ('A' for Active; 'I' for Inactive)
REMARK    1  A    between atoms: C_1  and  C_2
REMARK    2  A    between atoms: C_5  and  C_8
REMARK    3  A    between atoms: C_10  and  C_13
REMARK    4  A    between atoms: C_13  and  C_14
REMARK    5  A    between atoms: N_16  and  C_17
REMARK    6  A    between atoms: C_17  and  C_18
REMARK    7  A    between atoms: C_18  and  C_20
REMARK    8  A    between atoms: C_18  and  N_56
REMARK                            x       y       z     vdW  Elec       q    Type
REMARK                         _______ _______ _______ _____ _____    ______ ____
ROOT
ATOM      1  C   UNL     1      -0.722   3.923  -0.940  0.00  0.00    +0.219 C 
ATOM      2  O   UNL     1      -1.475   3.256  -1.618  0.00  0.00    -0.275 OA
ATOM      3  N   UNL     1      -0.537   5.228  -1.223  0.00  0.00    -0.316 N 
ATOM      4  H   UNL     1       0.066   5.761  -0.681  0.00  0.00    +0.149 HD
ENDROOT
BRANCH   1   5
ATOM      5  C   UNL     1       0.009   3.292   0.217  0.00  0.00    +0.151 C 
BRANCH   5   8
ATOM      6  C   UNL     1      -1.992   0.218   0.498  0.00  0.00    +0.109 A 
ATOM      7  N   UNL     1      -1.632   1.491   0.410  0.00  0.00    -0.243 NA
ATOM      8  C   UNL     1      -0.370   1.837   0.317  0.00  0.00    +0.058 A 
ATOM      9  C   UNL     1       0.596   0.880   0.310  0.00  0.00    +0.071 A 
ATOM     10  S   UNL     1      -0.402  -0.598   0.447  0.00  0.00    -0.075 S 
BRANCH   6  15
ATOM     11  C   UNL     1      -7.257  -2.066   0.931  0.00  0.00    +0.044 C 
ATOM     12  C   UNL     1      -5.878  -1.468   0.818  0.00  0.00    -0.050 A 
ATOM     13  C   UNL     1      -4.769  -2.294   0.795  0.00  0.00    +0.004 A 
ATOM     14  C   UNL     1      -3.504  -1.753   0.691  0.00  0.00    +0.011 A 
ATOM     15  C   UNL     1      -3.345  -0.369   0.609  0.00  0.00    +0.007 A 
ATOM     16  C   UNL     1      -4.468   0.459   0.638  0.00  0.00    +0.011 A 
ATOM     17  C   UNL     1      -5.728  -0.095   0.737  0.00  0.00    +0.004 A 
ENDBRANCH   6  15
ENDBRANCH   5   8
ENDBRANCH   1   5
BRANCH   3  18
ATOM     18  C   UNL     1      -1.247   5.841  -2.348  0.00  0.00    +0.096 C 
BRANCH  18  19
ATOM     19  C   UNL     1      -0.863   7.319  -2.449  0.00  0.00    +0.016 C 
BRANCH  19  25
ATOM     20  C   UNL     1      -2.523   7.820  -0.760  0.00  0.00    -0.078 C 
ATOM     21  C   UNL     1      -2.721   8.393   0.645  0.00  0.00    -0.019 C 
ATOM     22  C   UNL     1      -2.337   9.876   0.645  0.00  0.00    -0.004 C 
ATOM     23  C   UNL     1      -0.886  10.019   0.176  0.00  0.00    -0.019 C 
ATOM     24  C   UNL     1      -0.742   9.399  -1.216  0.00  0.00    -0.078 C 
ATOM     25  N   UNL     1      -1.103   7.967  -1.143  0.00  0.00    +0.387 N 
ATOM     26  H   UNL     1      -0.518   7.512  -0.432  0.00  0.00    -0.081 HD
ENDBRANCH  19  25
BRANCH  19  27
ATOM     27  C   UNL     1      -1.683   7.979  -3.527  0.00  0.00    +0.093 A 
ATOM     28  C   UNL     1      -1.229   8.376  -4.729  0.00  0.00    +0.043 A 
ATOM     29  C   UNL     1      -2.329   8.937  -5.418  0.00  0.00    +0.041 A 
ATOM     30  C   UNL     1      -3.388   8.856  -4.592  0.00  0.00    +0.195 A 
ATOM     31  O   UNL     1      -2.991   8.275  -3.448  0.00  0.00    -0.469 OA
ENDBRANCH  19  27
ENDBRANCH  18  19
ENDBRANCH   3  18
TORSDOF 7
