REMARK  Name = ZINC37357731
REMARK  5 active torsions:
REMARK  status: ('A' for Active; 'I' for Inactive)
REMARK    1  A    between atoms: C_5  and  N_7
REMARK    2  A    between atoms: C_8  and  N_31
REMARK    3  A    between atoms: C_10  and  C_24
REMARK    4  A    between atoms: N_16  and  C_17
REMARK    5  A    between atoms: C_17  and  C_18
REMARK                            x       y       z     vdW  Elec       q    Type
REMARK                         _______ _______ _______ _____ _____    ______ ____
ROOT
ATOM      1  N   UNL     1       1.177  -2.159  -0.281  0.00  0.00    -0.215 N 
ATOM      2  C   UNL     1       0.145  -2.914   0.144  0.00  0.00    +0.131 A 
ATOM      3  C   UNL     1       0.640  -4.183   0.418  0.00  0.00    +0.086 A 
ATOM      4  C   UNL     1       0.099  -5.402   0.884  0.00  0.00    +0.089 A 
ATOM      5  N   UNL     1       0.915  -6.439   1.027  0.00  0.00    -0.214 NA
ATOM      6  C   UNL     1       2.212  -6.361   0.747  0.00  0.00    +0.218 A 
ATOM      7  N   UNL     1       2.799  -5.266   0.309  0.00  0.00    -0.193 NA
ATOM      8  C   UNL     1       2.084  -4.141   0.120  0.00  0.00    +0.189 A 
ATOM      9  N   UNL     1       2.350  -2.922  -0.296  0.00  0.00    -0.144 NA
ATOM     10  N   UNL     1       2.989  -7.492   0.926  0.00  0.00    -0.308 N 
ATOM     11  H   UNL     1       2.583  -8.312   1.247  0.00  0.00    +0.149 HD
ENDROOT
BRANCH   1  16
ATOM     12  C   UNL     1      -0.175   1.218  -0.821  0.00  0.00    +0.002 A 
ATOM     13  C   UNL     1       0.910   1.845  -1.407  0.00  0.00    +0.002 A 
ATOM     14  C   UNL     1       2.084   1.146  -1.620  0.00  0.00    +0.022 A 
ATOM     15  C   UNL     1       2.176  -0.182  -1.248  0.00  0.00    +0.066 A 
ATOM     16  C   UNL     1       1.087  -0.814  -0.659  0.00  0.00    +0.086 A 
ATOM     17  C   UNL     1      -0.090  -0.108  -0.447  0.00  0.00    +0.029 A 
ATOM     18 CL   UNL     1       3.650  -1.059  -1.516  0.00  0.00    -0.081 Cl
ENDBRANCH   1  16
BRANCH   4  19
ATOM     19  C   UNL     1      -1.342  -5.520   1.204  0.00  0.00    +0.001 A 
ATOM     20  C   UNL     1      -2.299  -5.021   0.320  0.00  0.00    +0.011 A 
ATOM     21  C   UNL     1      -3.639  -5.134   0.623  0.00  0.00    +0.020 A 
ATOM     22  C   UNL     1      -4.036  -5.741   1.803  0.00  0.00    +0.041 A 
ATOM     23  C   UNL     1      -3.091  -6.237   2.685  0.00  0.00    +0.020 A 
ATOM     24  C   UNL     1      -1.748  -6.135   2.389  0.00  0.00    +0.011 A 
ATOM     25 CL   UNL     1      -5.726  -5.879   2.179  0.00  0.00    -0.084 Cl
ENDBRANCH   4  19
BRANCH   2  26
ATOM     26  N   UNL     1      -1.167  -2.501   0.283  0.00  0.00    -0.342 N 
ATOM     27  H   UNL     1      -1.595  -1.997  -0.427  0.00  0.00    +0.144 HD
ATOM     28  H   UNL     1      -1.659  -2.715   1.091  0.00  0.00    +0.144 HD
ENDBRANCH   2  26
BRANCH  10  29
ATOM     29  C   UNL     1       4.423  -7.450   0.630  0.00  0.00    +0.160 C 
BRANCH  29  30
ATOM     30  C   UNL     1       5.032  -8.801   0.906  0.00  0.00    +0.058 A 
ATOM     31  C   UNL     1       5.184  -9.706  -0.127  0.00  0.00    +0.025 A 
ATOM     32  C   UNL     1       5.745 -10.946   0.138  0.00  0.00    +0.003 A 
ATOM     33  C   UNL     1       6.135 -11.229   1.438  0.00  0.00    +0.020 A 
ATOM     34  C   UNL     1       5.952 -10.274   2.420  0.00  0.00    +0.111 A 
ATOM     35  N   UNL     1       5.419  -9.103   2.130  0.00  0.00    -0.258 NA
ENDBRANCH  29  30
ENDBRANCH  10  29
TORSDOF 5
