REMARK  Name = ZINC32689390
REMARK  9 active torsions:
REMARK  status: ('A' for Active; 'I' for Inactive)
REMARK    1  A    between atoms: C_1  and  C_2
REMARK    2  A    between atoms: C_4  and  N_10
REMARK    3  A    between atoms: C_7  and  C_8
REMARK    4  A    between atoms: C_11  and  C_13
REMARK    5  A    between atoms: C_13  and  O_14
REMARK    6  A    between atoms: O_14  and  C_15
REMARK    7  A    between atoms: C_18  and  C_21
REMARK    8  A    between atoms: C_22  and  C_23
REMARK    9  A    between atoms: C_30  and  N_31
REMARK                            x       y       z     vdW  Elec       q    Type
REMARK                         _______ _______ _______ _____ _____    ______ ____
ROOT
ATOM      1  C   UNL     1       0.349  -2.886  -7.218  0.00  0.00    +0.121 A 
ATOM      2  C   UNL     1       0.446  -4.220  -7.596  0.00  0.00    +0.046 A 
ATOM      3  C   UNL     1       0.078  -4.606  -8.866  0.00  0.00    +0.011 A 
ATOM      4  C   UNL     1      -0.393  -3.653  -9.775  0.00  0.00    -0.025 A 
ATOM      5  C   UNL     1      -0.489  -2.312  -9.389  0.00  0.00    +0.011 A 
ATOM      6  C   UNL     1      -0.124  -1.936  -8.116  0.00  0.00    +0.046 A 
ENDROOT
BRANCH   4   7
ATOM      7  C   UNL     1      -0.787  -4.060 -11.133  0.00  0.00    +0.010 C 
ATOM      8  C   UNL     1      -1.456  -5.214 -11.323  0.00  0.00    +0.031 C 
BRANCH   8   9
ATOM      9  C   UNL     1      -1.974  -5.960 -10.170  0.00  0.00    +0.105 A 
ATOM     10  N   UNL     1      -2.429  -5.309  -9.098  0.00  0.00    -0.191 NA
ATOM     11  C   UNL     1      -2.901  -5.971  -8.047  0.00  0.00    +0.349 A 
ATOM     12  O   UNL     1      -3.309  -5.348  -7.080  0.00  0.00    -0.245 OA
ATOM     13  N   UNL     1      -2.937  -7.316  -8.028  0.00  0.00    -0.272 N 
ATOM     14  C   UNL     1      -2.484  -8.034  -9.100  0.00  0.00    +0.285 A 
ATOM     15  O   UNL     1      -2.520  -9.384  -9.083  0.00  0.00    -0.265 OA
ATOM     16  C   UNL     1      -2.000  -7.367 -10.191  0.00  0.00    +0.215 A 
ATOM     17  H   UNL     1      -3.286  -7.779  -7.250  0.00  0.00    +0.174 HD
BRANCH  16  18
ATOM     18  N   UNL     1      -1.508  -8.112 -11.371  0.00  0.00    +0.064 N 
ATOM     19  O   UNL     1      -1.626  -9.314 -11.420  0.00  0.00    -0.126 OA
ATOM     20  O   UNL     1      -0.988  -7.518 -12.287  0.00  0.00    -0.126 OA
ENDBRANCH  16  18
ENDBRANCH   8   9
ENDBRANCH   4   7
BRANCH   1  21
ATOM     21  O   UNL     1       0.714  -2.510  -5.965  0.00  0.00    -0.483 OA
BRANCH  21  22
ATOM     22  C   UNL     1       1.191  -3.536  -5.093  0.00  0.00    +0.324 C 
BRANCH  22  24
ATOM     23  N   UNL     1       2.020  -3.720  -2.770  0.00  0.00    -0.282 N 
ATOM     24  C   UNL     1       1.545  -2.935  -3.757  0.00  0.00    +0.255 C 
ATOM     25  O   UNL     1       1.402  -1.746  -3.570  0.00  0.00    -0.272 OA
ATOM     26  H   UNL     1       2.211  -4.655  -2.943  0.00  0.00    +0.155 HD
BRANCH  23  30
ATOM     27  C   UNL     1       1.014  -0.299   0.615  0.00  0.00    +0.044 C 
ATOM     28  C   UNL     1       1.765  -1.528   0.172  0.00  0.00    -0.046 A 
ATOM     29  C   UNL     1       1.547  -2.053  -1.087  0.00  0.00    +0.028 A 
ATOM     30  C   UNL     1       2.239  -3.186  -1.495  0.00  0.00    +0.048 A 
ATOM     31  C   UNL     1       3.148  -3.788  -0.633  0.00  0.00    +0.039 A 
ATOM     32  C   UNL     1       3.361  -3.259   0.625  0.00  0.00    +0.020 A 
ATOM     33  C   UNL     1       2.674  -2.127   1.025  0.00  0.00    -0.046 A 
ATOM     34  C   UNL     1       2.913  -1.547   2.395  0.00  0.00    +0.044 C 
ATOM     35 BR   UNL     1       4.092  -5.332  -1.183  0.00  0.00    -0.048 Br
ENDBRANCH  23  30
ENDBRANCH  22  24
ENDBRANCH  21  22
ENDBRANCH   1  21
TORSDOF 7
