REMARK  Name = ZINC12332558
REMARK  10 active torsions:
REMARK  status: ('A' for Active; 'I' for Inactive)
REMARK    1  A    between atoms: C_1  and  C_2
REMARK    2  A    between atoms: C_5  and  C_8
REMARK    3  A    between atoms: C_8  and  C_9
REMARK    4  A    between atoms: C_9  and  C_10
REMARK    5  A    between atoms: C_15  and  C_16
REMARK    6  A    between atoms: C_15  and  N_70
REMARK    7  A    between atoms: N_21  and  S_24
REMARK    8  A    between atoms: S_24  and  C_27
REMARK    9  A    between atoms: C_28  and  C_33
REMARK   10  A    between atoms: C_31  and  C_32
REMARK                            x       y       z     vdW  Elec       q    Type
REMARK                         _______ _______ _______ _____ _____    ______ ____
ROOT
ATOM      1  C   UNL     1      -0.089   5.904  -2.595  0.00  0.00    +0.199 C 
ATOM      2  O   UNL     1      -0.762   5.085  -3.184  0.00  0.00    -0.278 OA
ATOM      3  N   UNL     1      -0.093   7.191  -2.993  0.00  0.00    -0.300 N 
ATOM      4  C   UNL     1       0.712   8.196  -2.284  0.00  0.00    +0.125 C 
ATOM      5  C   UNL     1       1.628   8.892  -3.305  0.00  0.00    +0.128 C 
ATOM      6  N   UNL     1       0.813   9.318  -4.451  0.00  0.00    -0.173 NA
ATOM      7  C   UNL     1       0.003   8.315  -5.156  0.00  0.00    +0.128 C 
ATOM      8  C   UNL     1      -0.908   7.618  -4.139  0.00  0.00    +0.125 C 
ENDROOT
BRANCH   6   9
ATOM      9  S   UNL     1       0.807  10.900  -4.939  0.00  0.00    +0.066 S 
ATOM     10  O   UNL     1       2.027  11.470  -4.486  0.00  0.00    -0.153 OA
ATOM     11  O   UNL     1       0.427  10.902  -6.309  0.00  0.00    -0.153 OA
BRANCH   9  12
ATOM     12  C   UNL     1      -0.485  11.712  -4.058  0.00  0.00    +0.170 A 
ATOM     13  C   UNL     1      -0.408  12.367  -2.808  0.00  0.00    +0.107 A 
ATOM     14  N   UNL     1      -1.603  12.816  -2.553  0.00  0.00    -0.081 NA
ATOM     15  O   UNL     1      -2.380  12.541  -3.438  0.00  0.00    -0.358 OA
ATOM     16  C   UNL     1      -1.781  11.858  -4.424  0.00  0.00    +0.161 A 
ATOM     17  C   UNL     1      -2.423  11.351  -5.690  0.00  0.00    +0.091 C 
ATOM     18  C   UNL     1       0.816  12.517  -1.941  0.00  0.00    +0.071 C 
ENDBRANCH   9  12
ENDBRANCH   6   9
BRANCH   1  19
ATOM     19  C   UNL     1       0.752   5.481  -1.418  0.00  0.00    +0.019 C 
BRANCH  19  25
ATOM     20  C   UNL     1       1.757   1.347  -0.999  0.00  0.00    -0.014 C 
ATOM     21  C   UNL     1       1.097   2.084   0.169  0.00  0.00    -0.015 C 
ATOM     22  C   UNL     1       1.297   3.591  -0.007  0.00  0.00    -0.078 C 
ATOM     23  C   UNL     1       1.352   3.361  -2.419  0.00  0.00    -0.078 C 
ATOM     24  C   UNL     1       1.153   1.847  -2.315  0.00  0.00    -0.015 C 
ATOM     25  N   UNL     1       0.672   4.013  -1.279  0.00  0.00    +0.385 N 
ATOM     26  H   UNL     1      -0.315   3.731  -1.275  0.00  0.00    -0.081 HD
BRANCH  20  27
ATOM     27  C   UNL     1       1.508  -0.157  -0.861  0.00  0.00    +0.008 C 
BRANCH  27  28
ATOM     28  C   UNL     1       2.218  -0.678   0.390  0.00  0.00    +0.035 C 
BRANCH  28  33
ATOM     29  C   UNL     1       1.279  -6.356   0.911  0.00  0.00    +0.044 C 
ATOM     30  C   UNL     1       1.524  -4.875   0.776  0.00  0.00    -0.050 A 
ATOM     31  C   UNL     1       2.617  -4.418   0.064  0.00  0.00    +0.003 A 
ATOM     32  C   UNL     1       2.842  -3.060  -0.060  0.00  0.00    +0.004 A 
ATOM     33  C   UNL     1       1.973  -2.159   0.526  0.00  0.00    -0.047 A 
ATOM     34  C   UNL     1       0.883  -2.616   1.242  0.00  0.00    +0.004 A 
ATOM     35  C   UNL     1       0.656  -3.974   1.364  0.00  0.00    +0.003 A 
ENDBRANCH  28  33
ENDBRANCH  27  28
ENDBRANCH  20  27
ENDBRANCH  19  25
ENDBRANCH   1  19
TORSDOF 7
