REMARK  Name = ZINC39692246
REMARK  8 active torsions:
REMARK  status: ('A' for Active; 'I' for Inactive)
REMARK    1  A    between atoms: C_1  and  C_2
REMARK    2  A    between atoms: C_4  and  C_34
REMARK    3  A    between atoms: C_8  and  C_12
REMARK    4  A    between atoms: C_12  and  S_13
REMARK    5  A    between atoms: S_13  and  C_14
REMARK    6  A    between atoms: N_24  and  C_25
REMARK    7  A    between atoms: C_25  and  C_26
REMARK    8  A    between atoms: C_26  and  C_27
REMARK                            x       y       z     vdW  Elec       q    Type
REMARK                         _______ _______ _______ _____ _____    ______ ____
ROOT
ATOM      1  C   UNL     1       7.082  -4.802   1.403  0.00  0.00    +0.173 A 
ATOM      2  N   UNL     1       6.910  -4.679   2.696  0.00  0.00    -0.223 NA
ATOM      3  C   UNL     1       7.757  -5.247   3.578  0.00  0.00    +0.079 A 
ATOM      4  C   UNL     1       7.574  -5.116   4.958  0.00  0.00    +0.028 A 
ATOM      5  C   UNL     1       8.457  -5.708   5.816  0.00  0.00    +0.002 A 
ATOM      6  C   UNL     1       9.537  -6.439   5.339  0.00  0.00    +0.001 A 
ATOM      7  C   UNL     1       9.743  -6.585   3.995  0.00  0.00    +0.015 A 
ATOM      8  C   UNL     1       8.857  -5.992   3.096  0.00  0.00    +0.065 A 
ATOM      9  C   UNL     1       9.028  -6.116   1.642  0.00  0.00    +0.262 A 
ATOM     10  O   UNL     1       9.955  -6.745   1.166  0.00  0.00    -0.267 OA
ATOM     11  N   UNL     1       8.113  -5.508   0.851  0.00  0.00    -0.287 N 
ENDROOT
BRANCH   1  12
ATOM     12  S   UNL     1       5.925  -4.026   0.324  0.00  0.00    -0.080 S 
BRANCH  12  13
ATOM     13  C   UNL     1       4.752  -3.218   1.448  0.00  0.00    +0.151 C 
BRANCH  13  20
ATOM     14  C   UNL     1      -0.019   1.526   0.010  0.00  0.00    +0.057 C 
ATOM     15  C   UNL     1       0.002  -0.004   0.002  0.00  0.00    +0.210 C 
ATOM     16  C   UNL     1       0.722  -0.505  -1.230  0.00  0.00    +0.098 C 
ATOM     17  C   UNL     1       1.782  -1.221  -0.786  0.00  0.00    +0.114 C 
ATOM     18  C   UNL     1       1.783  -1.207   0.691  0.00  0.00    +0.230 C 
ATOM     19  N   UNL     1       2.751  -1.859   1.310  0.00  0.00    -0.199 NA
ATOM     20  C   UNL     1       3.694  -2.507   0.643  0.00  0.00    +0.136 C 
ATOM     21  N   UNL     1       3.778  -2.576  -0.661  0.00  0.00    -0.160 NA
ATOM     22  C   UNL     1       2.876  -1.971  -1.456  0.00  0.00    +0.275 C 
ATOM     23  O   UNL     1       2.953  -2.035  -2.669  0.00  0.00    -0.268 OA
ATOM     24  O   UNL     1       0.733  -0.490   1.131  0.00  0.00    -0.468 OA
BRANCH  16  25
ATOM     25  C   UNL     1       0.342  -0.261  -2.642  0.00  0.00    +0.387 C 
ATOM     26  O   UNL     1       1.018  -0.729  -3.546  0.00  0.00    -0.241 OA
ATOM     27  O   UNL     1      -0.646   0.408  -2.902  0.00  0.00    -0.241 OA
ENDBRANCH  16  25
ENDBRANCH  13  20
ENDBRANCH  12  13
ENDBRANCH   1  12
BRANCH  11  28
ATOM     28  C   UNL     1       8.232  -5.604  -0.606  0.00  0.00    +0.131 C 
BRANCH  28  29
ATOM     29  C   UNL     1       9.084  -4.444  -1.125  0.00  0.00    +0.052 C 
BRANCH  29  30
ATOM     30  C   UNL     1       9.207  -4.543  -2.624  0.00  0.00    -0.072 C 
ATOM     31  C   UNL     1       8.378  -3.861  -3.347  0.00  0.00    -0.028 C 
ATOM     32  C   UNL     1       8.369  -3.866  -4.848  0.00  0.00    +0.027 C 
ATOM     33  C   UNL     1       9.693  -4.418  -5.380  0.00  0.00    +0.004 C 
ATOM     34  C   UNL     1       9.995  -5.737  -4.656  0.00  0.00    +0.005 C 
ATOM     35  C   UNL     1      10.286  -5.422  -3.186  0.00  0.00    +0.030 C 
ENDBRANCH  29  30
ENDBRANCH  28  29
ENDBRANCH  11  28
TORSDOF 7
