REMARK  Name = ZINC09636456
REMARK  15 active torsions:
REMARK  status: ('A' for Active; 'I' for Inactive)
REMARK    1  A    between atoms: C_1  and  C_2
REMARK    2  A    between atoms: C_2  and  C_3
REMARK    3  A    between atoms: C_3  and  C_4
REMARK    4  A    between atoms: C_4  and  C_5
REMARK    5  A    between atoms: C_5  and  C_7
REMARK    6  A    between atoms: C_5  and  C_9
REMARK    7  A    between atoms: C_7  and  C_8
REMARK    8  A    between atoms: C_9  and  N_10
REMARK    9  A    between atoms: C_11  and  C_13
REMARK   10  A    between atoms: C_13  and  C_15
REMARK   11  A    between atoms: C_13  and  N_21
REMARK   12  A    between atoms: N_21  and  S_22
REMARK   13  A    between atoms: S_22  and  C_25
REMARK   14  A    between atoms: N_33  and  C_38
REMARK   15  A    between atoms: N_36  and  C_37
REMARK                            x       y       z     vdW  Elec       q    Type
REMARK                         _______ _______ _______ _____ _____    ______ ____
ROOT
ATOM      1  C   UNL     1       0.450   8.096   4.182  0.00  0.00    +0.192 C 
ENDROOT
BRANCH   1   2
ATOM      2  C   UNL     1       1.054   9.414   3.773  0.00  0.00    -0.020 A 
ATOM      3  C   UNL     1       0.784  10.555   4.505  0.00  0.00    +0.006 A 
ATOM      4  C   UNL     1       1.343  11.764   4.132  0.00  0.00    +0.000 A 
ATOM      5  C   UNL     1       2.164  11.833   3.022  0.00  0.00    +0.000 A 
ATOM      6  C   UNL     1       2.429  10.693   2.287  0.00  0.00    +0.000 A 
ATOM      7  C   UNL     1       1.875   9.483   2.662  0.00  0.00    +0.006 A 
ENDBRANCH   1   2
BRANCH   1   9
ATOM      8  N   UNL     1       2.557   7.225   5.142  0.00  0.00    -0.313 N 
ATOM      9  C   UNL     1       1.250   7.506   5.314  0.00  0.00    +0.236 C 
ATOM     10  O   UNL     1       0.718   7.284   6.381  0.00  0.00    -0.274 OA
ATOM     11  H   UNL     1       2.982   7.402   4.288  0.00  0.00    +0.149 HD
BRANCH   8  12
ATOM     12  C   UNL     1       3.335   6.652   6.243  0.00  0.00    +0.107 C 
BRANCH  12  13
ATOM     13  C   UNL     1       4.758   6.358   5.763  0.00  0.00    +0.006 C 
BRANCH  13  14
ATOM     14  C   UNL     1       4.719   5.275   4.684  0.00  0.00    +0.002 C 
ATOM     15  C   UNL     1       4.225   3.962   5.296  0.00  0.00    +0.004 C 
ENDBRANCH  13  14
BRANCH  13  16
ATOM     16  C   UNL     1       5.603   5.873   6.943  0.00  0.00    +0.005 C 
BRANCH  16  17
ATOM     17  C   UNL     1       7.055   5.699   6.492  0.00  0.00    +0.000 C 
BRANCH  17  19
ATOM     18  C   UNL     1       9.352   5.040   7.220  0.00  0.00    +0.004 C 
ATOM     19  C   UNL     1       7.901   5.214   7.671  0.00  0.00    -0.003 C 
ENDBRANCH  17  19
ENDBRANCH  16  17
ENDBRANCH  13  16
ENDBRANCH  12  13
ENDBRANCH   8  12
ENDBRANCH   1   9
BRANCH   1  20
ATOM     20  N   UNL     1      -0.932   8.307   4.619  0.00  0.00    -0.174 NA
ATOM     21  H   UNL     1      -1.117   8.570   5.534  0.00  0.00    +0.149 HD
BRANCH  20  22
ATOM     22  S   UNL     1      -2.180   8.097   3.550  0.00  0.00    +0.059 S 
ATOM     23  O   UNL     1      -1.834   8.818   2.375  0.00  0.00    -0.153 OA
ATOM     24  O   UNL     1      -3.379   8.346   4.271  0.00  0.00    -0.153 OA
BRANCH  22  25
ATOM     25  C   UNL     1      -2.204   6.392   3.105  0.00  0.00    +0.106 A 
ATOM     26  C   UNL     1      -2.960   5.498   3.847  0.00  0.00    +0.030 A 
ATOM     27  C   UNL     1      -2.992   4.158   3.514  0.00  0.00    +0.028 A 
ATOM     28  C   UNL     1      -2.261   3.701   2.428  0.00  0.00    +0.058 A 
ATOM     29  C   UNL     1      -1.494   4.607   1.675  0.00  0.00    +0.065 A 
ATOM     30  C   UNL     1      -1.471   5.956   2.022  0.00  0.00    +0.043 A 
ATOM     31  C   UNL     1      -0.726   4.087   0.531  0.00  0.00    +0.264 A 
ATOM     32  O   UNL     1      -0.042   4.828  -0.150  0.00  0.00    -0.267 OA
ATOM     33  N   UNL     1      -0.804   2.767   0.254  0.00  0.00    -0.263 N 
ATOM     34  C   UNL     1      -1.552   1.942   1.003  0.00  0.00    +0.332 A 
ATOM     35  O   UNL     1      -1.584   0.761   0.713  0.00  0.00    -0.246 OA
ATOM     36  N   UNL     1      -2.267   2.364   2.060  0.00  0.00    -0.296 N 
ATOM     37  C   UNL     1      -3.059   1.402   2.830  0.00  0.00    +0.154 C 
ATOM     38  C   UNL     1      -0.054   2.226  -0.882  0.00  0.00    +0.157 C 
ENDBRANCH  22  25
ENDBRANCH  20  22
ENDBRANCH   1  20
TORSDOF 11
