REMARK  Name = ZINC08856946
REMARK  8 active torsions:
REMARK  status: ('A' for Active; 'I' for Inactive)
REMARK    1  A    between atoms: C_1  and  C_2
REMARK    2  A    between atoms: C_3  and  C_25
REMARK    3  A    between atoms: C_11  and  S_13
REMARK    4  A    between atoms: S_13  and  C_14
REMARK    5  A    between atoms: C_14  and  C_15
REMARK    6  A    between atoms: C_15  and  C_17
REMARK    7  A    between atoms: C_20  and  O_24
REMARK    8  A    between atoms: C_21  and  O_23
REMARK                            x       y       z     vdW  Elec       q    Type
REMARK                         _______ _______ _______ _____ _____    ______ ____
ROOT
ATOM      1  S   UNL     1      -5.203   4.251   0.075  0.00  0.00    -0.080 S 
ENDROOT
BRANCH   1  12
ATOM      2  C   UNL     1     -11.088   0.531   0.110  0.00  0.00    +0.045 C 
ATOM      3  C   UNL     1      -9.608   0.245   0.095  0.00  0.00    -0.026 A 
ATOM      4  C   UNL     1      -9.162  -1.020   0.083  0.00  0.00    -0.008 A 
ATOM      5  S   UNL     1      -7.389  -0.834   0.068  0.00  0.00    -0.073 S 
ATOM      6  C   UNL     1      -7.298   0.938   0.077  0.00  0.00    +0.117 A 
ATOM      7  C   UNL     1      -8.648   1.336   0.092  0.00  0.00    +0.075 A 
ATOM      8  C   UNL     1      -8.882   2.747   0.102  0.00  0.00    +0.261 A 
ATOM      9  O   UNL     1     -10.019   3.185   0.116  0.00  0.00    -0.267 OA
ATOM     10  N   UNL     1      -7.829   3.585   0.102  0.00  0.00    -0.301 N 
ATOM     11  H   UNL     1      -7.992   4.673   0.118  0.00  0.00    +0.171 HD
ATOM     12  C   UNL     1      -6.548   3.114   0.082  0.00  0.00    +0.170 A 
ATOM     13  N   UNL     1      -6.305   1.819   0.072  0.00  0.00    -0.216 NA
ATOM     14  C   UNL     1      -9.967  -2.294   0.084  0.00  0.00    +0.052 C 
ENDBRANCH   1  12
BRANCH   1  15
ATOM     15  C   UNL     1      -3.812   3.093   0.056  0.00  0.00    +0.156 C 
BRANCH  15  16
ATOM     16  C   UNL     1      -2.517   3.864   0.047  0.00  0.00    +0.173 C 
ATOM     17  O   UNL     1      -2.533   5.076   0.054  0.00  0.00    -0.291 OA
BRANCH  16  18
ATOM     18  C   UNL     1      -1.236   3.146   0.031  0.00  0.00    +0.022 A 
ATOM     19  C   UNL     1      -1.215   1.746   0.017  0.00  0.00    +0.015 A 
ATOM     20  C   UNL     1      -0.013   1.076   0.008  0.00  0.00    +0.050 A 
ATOM     21  C   UNL     1       1.182   1.785   0.000  0.00  0.00    +0.158 A 
ATOM     22  C   UNL     1       1.170   3.180   0.008  0.00  0.00    +0.159 A 
ATOM     23  C   UNL     1      -0.031   3.860   0.024  0.00  0.00    +0.060 A 
BRANCH  22  24
ATOM     24  O   UNL     1       2.342   3.870   0.001  0.00  0.00    -0.503 OA
ATOM     25  H   UNL     1       2.333   4.970   0.006  0.00  0.00    +0.292 HD
ENDBRANCH  22  24
BRANCH  21  26
ATOM     26  O   UNL     1       2.365   1.118  -0.015  0.00  0.00    -0.503 OA
ATOM     27  H   UNL     1       3.311   1.678  -0.021  0.00  0.00    +0.292 HD
ENDBRANCH  21  26
ENDBRANCH  16  18
ENDBRANCH  15  16
ENDBRANCH   1  15
TORSDOF 6
