REMARK  Name = ZINC07387108
REMARK  12 active torsions:
REMARK  status: ('A' for Active; 'I' for Inactive)
REMARK    1  A    between atoms: C_1  and  C_2
REMARK    2  A    between atoms: C_2  and  O_3
REMARK    3  A    between atoms: O_3  and  C_4
REMARK    4  A    between atoms: C_11  and  C_13
REMARK    5  A    between atoms: C_11  and  C_14
REMARK    6  A    between atoms: C_11  and  N_53
REMARK    7  A    between atoms: C_14  and  C_16
REMARK    8  A    between atoms: C_17  and  C_27
REMARK    9  A    between atoms: C_18  and  C_23
REMARK   10  A    between atoms: C_19  and  C_22
REMARK   11  A    between atoms: C_23  and  O_25
REMARK   12  A    between atoms: O_25  and  C_26
REMARK                            x       y       z     vdW  Elec       q    Type
REMARK                         _______ _______ _______ _____ _____    ______ ____
ROOT
ATOM      1  C   UNL     1      -1.330   1.946   0.019  0.00  0.00    +0.003 C 
ATOM      2  C   UNL     1      -1.586   2.513   1.417  0.00  0.00    -0.005 C 
ENDROOT
BRANCH   1  10
ATOM      3  C   UNL     1      -5.464  -0.263  -2.715  0.00  0.00    +0.403 C 
ATOM      4  O   UNL     1      -6.561   0.242  -2.588  0.00  0.00    -0.226 OA
ATOM      5  N   UNL     1      -4.534  -0.107  -1.751  0.00  0.00    -0.271 N 
ATOM      6  C   UNL     1      -4.828   0.672  -0.538  0.00  0.00    +0.092 C 
ATOM      7  C   UNL     1      -3.712   1.703  -0.340  0.00  0.00    -0.058 C 
ATOM      8  C   UNL     1      -2.147   0.376  -1.634  0.00  0.00    -0.058 C 
ATOM      9  C   UNL     1      -3.199  -0.709  -1.885  0.00  0.00    +0.092 C 
ATOM     10  N   UNL     1      -2.412   0.998  -0.318  0.00  0.00    +0.388 N 
ATOM     11  H   UNL     1      -2.445   0.262   0.397  0.00  0.00    -0.081 HD
BRANCH   3  12
ATOM     12  O   UNL     1      -5.176  -0.979  -3.818  0.00  0.00    -0.451 OA
BRANCH  12  14
ATOM     13  C   UNL     1      -5.716  -1.947  -5.986  0.00  0.00    +0.048 C 
ATOM     14  C   UNL     1      -6.225  -1.106  -4.814  0.00  0.00    +0.230 C 
ENDBRANCH  12  14
ENDBRANCH   3  12
ENDBRANCH   1  10
BRANCH   1  15
ATOM     15  C   UNL     1      -0.014   1.210   0.009  0.00  0.00    +0.166 C 
ATOM     16  O   UNL     1       0.002  -0.004   0.002  0.00  0.00    -0.292 OA
BRANCH  15  17
ATOM     17  C   UNL     1       1.202   1.934   0.001  0.00  0.00    +0.084 A 
ATOM     18  C   UNL     1       2.468   1.391  -0.014  0.00  0.00    -0.008 A 
ATOM     19  C   UNL     1       3.376   2.471  -0.017  0.00  0.00    +0.083 A 
ATOM     20  C   UNL     1       2.628   3.635  -0.004  0.00  0.00    +0.028 A 
ATOM     21  N   UNL     1       1.327   3.309   0.001  0.00  0.00    -0.355 N 
ATOM     22  H   UNL     1       0.590   3.939   0.006  0.00  0.00    +0.166 HD
ATOM     23  C   UNL     1       3.182   5.036  -0.002  0.00  0.00    +0.064 C 
ATOM     24  C   UNL     1       2.816  -0.076  -0.025  0.00  0.00    +0.047 C 
BRANCH  19  25
ATOM     25  C   UNL     1       4.846   2.377  -0.031  0.00  0.00    +0.341 C 
ATOM     26  O   UNL     1       5.443   2.344  -1.089  0.00  0.00    -0.245 OA
BRANCH  25  27
ATOM     27  O   UNL     1       5.529   2.328   1.129  0.00  0.00    -0.464 OA
ATOM     28  C   UNL     1       6.976   2.236   1.040  0.00  0.00    +0.280 C 
ENDBRANCH  25  27
ENDBRANCH  19  25
ENDBRANCH  15  17
ENDBRANCH   1  15
TORSDOF 7
