REMARK  Name = ZINC06885703
REMARK  4 active torsions:
REMARK  status: ('A' for Active; 'I' for Inactive)
REMARK    1  A    between atoms: C_4  and  C_7
REMARK    2  A    between atoms: C_10  and  C_12
REMARK    3  A    between atoms: C_25  and  N_29
REMARK    4  A    between atoms: C_26  and  C_27
REMARK                            x       y       z     vdW  Elec       q    Type
REMARK                         _______ _______ _______ _____ _____    ______ ____
ROOT
ATOM      1  C   UNL     1       2.415   3.830  -0.002  0.00  0.00    +0.141 C 
ATOM      2  C   UNL     1       1.123   3.059   0.007  0.00  0.00    +0.092 A 
ATOM      3  C   UNL     1       1.149   1.652   0.000  0.00  0.00    +0.262 A 
ATOM      4  O   UNL     1       2.213   1.057  -0.012  0.00  0.00    -0.267 OA
ATOM      5  N   UNL     1      -0.011   0.966   0.007  0.00  0.00    -0.275 N 
ATOM      6  H   UNL     1       0.003  -0.034   0.006  0.00  0.00    +0.173 HD
ATOM      7  C   UNL     1      -1.188   1.619   0.017  0.00  0.00    +0.329 A 
ATOM      8  O   UNL     1      -2.225   0.984   0.019  0.00  0.00    -0.247 OA
ATOM      9  N   UNL     1      -1.234   2.963   0.029  0.00  0.00    -0.278 N 
ATOM     10  H   UNL     1      -2.119   3.429   0.043  0.00  0.00    +0.173 HD
ATOM     11  C   UNL     1      -0.074   3.701   0.021  0.00  0.00    +0.214 A 
ATOM     12  O   UNL     1      -0.145   5.046   0.027  0.00  0.00    -0.425 OA
ATOM     13  C   UNL     1       0.912   5.779  -0.363  0.00  0.00    +0.200 C 
ATOM     14  C   UNL     1       2.163   5.258  -0.399  0.00  0.00    +0.101 C 
ENDROOT
BRANCH   1  18
ATOM     15  C   UNL     1       3.284   4.072   3.539  0.00  0.00    +0.135 A 
ATOM     16  C   UNL     1       4.408   3.463   3.076  0.00  0.00    +0.050 A 
ATOM     17  C   UNL     1       4.232   3.286   1.689  0.00  0.00    +0.046 A 
ATOM     18  C   UNL     1       3.025   3.797   1.376  0.00  0.00    +0.119 A 
ATOM     19  O   UNL     1       2.454   4.269   2.496  0.00  0.00    -0.459 OA
BRANCH  15  23
ATOM     20  C   UNL     1       2.523   5.164   7.572  0.00  0.00    +0.000 A 
ATOM     21  C   UNL     1       1.577   5.428   6.596  0.00  0.00    +0.001 A 
ATOM     22  C   UNL     1       1.819   5.076   5.285  0.00  0.00    +0.011 A 
ATOM     23  C   UNL     1       3.019   4.452   4.942  0.00  0.00    +0.017 A 
ATOM     24  C   UNL     1       3.967   4.184   5.932  0.00  0.00    +0.011 A 
ATOM     25  C   UNL     1       3.715   4.547   7.239  0.00  0.00    +0.001 A 
ENDBRANCH  15  23
ENDBRANCH   1  18
BRANCH  13  26
ATOM     26  N   UNL     1       0.721   7.086  -0.734  0.00  0.00    -0.328 N 
ATOM     27  H   UNL     1       1.476   7.625  -1.017  0.00  0.00    +0.145 HD
ATOM     28  H   UNL     1      -0.169   7.471  -0.712  0.00  0.00    +0.145 HD
ENDBRANCH  13  26
BRANCH  14  29
ATOM     29  C   UNL     1       3.258   6.078  -0.822  0.00  0.00    +0.101 C 
ATOM     30  N   UNL     1       4.126   6.729  -1.157  0.00  0.00    -0.191 NA
ENDBRANCH  14  29
TORSDOF 4
