REMARK  Name = ZINC39570989
REMARK  9 active torsions:
REMARK  status: ('A' for Active; 'I' for Inactive)
REMARK    1  A    between atoms: C_1  and  C_2
REMARK    2  A    between atoms: C_2  and  C_3
REMARK    3  A    between atoms: C_2  and  O_4
REMARK    4  A    between atoms: O_4  and  C_5
REMARK    5  A    between atoms: C_8  and  C_11
REMARK    6  A    between atoms: C_13  and  C_17
REMARK    7  A    between atoms: N_19  and  N_20
REMARK    8  A    between atoms: C_21  and  C_22
REMARK    9  A    between atoms: C_31  and  O_32
REMARK                            x       y       z     vdW  Elec       q    Type
REMARK                         _______ _______ _______ _____ _____    ______ ____
ROOT
ATOM      1  C   UNL     1      -2.830  -0.282   9.095  0.00  0.00    +0.263 C 
ATOM      2  O   UNL     1      -3.386   0.792   9.001  0.00  0.00    -0.271 OA
ATOM      3  N   UNL     1      -2.068  -0.555  10.173  0.00  0.00    -0.205 N 
ATOM      4  H   UNL     1      -1.623  -1.414  10.248  0.00  0.00    +0.177 HD
ENDROOT
BRANCH   1   7
ATOM      5  C   UNL     1      -2.296  -0.983   5.883  0.00  0.00    +0.092 C 
ATOM      6  C   UNL     1      -1.784  -1.311   7.085  0.00  0.00    +0.041 C 
ATOM      7  C   UNL     1      -2.991  -1.311   8.006  0.00  0.00    +0.240 C 
ATOM      8  N   UNL     1      -4.100  -0.952   7.107  0.00  0.00    -0.170 NA
ATOM      9  N   UNL     1      -3.638  -0.786   5.976  0.00  0.00    -0.153 NA
BRANCH   5  13
ATOM     10  C   UNL     1      -0.030  -0.600   2.303  0.00  0.00    +0.121 A 
ATOM     11  C   UNL     1      -1.401  -0.376   2.283  0.00  0.00    +0.046 A 
ATOM     12  C   UNL     1      -2.138  -0.499   3.442  0.00  0.00    +0.013 A 
ATOM     13  C   UNL     1      -1.506  -0.850   4.634  0.00  0.00    +0.002 A 
ATOM     14  C   UNL     1      -0.130  -1.074   4.651  0.00  0.00    +0.013 A 
ATOM     15  C   UNL     1       0.601  -0.954   3.488  0.00  0.00    +0.046 A 
BRANCH  10  16
ATOM     16  O   UNL     1       0.693  -0.477   1.160  0.00  0.00    -0.489 OA
BRANCH  16  18
ATOM     17  C   UNL     1      -0.292   1.273  -0.184  0.00  0.00    +0.051 C 
ATOM     18  C   UNL     1      -0.034  -0.229  -0.045  0.00  0.00    +0.167 C 
ATOM     19  C   UNL     1       0.781  -0.719  -1.243  0.00  0.00    +0.051 C 
ENDBRANCH  16  18
ENDBRANCH  10  16
ENDBRANCH   5  13
ENDBRANCH   1   7
BRANCH   3  20
ATOM     20  N   UNL     1      -1.918   0.402  11.185  0.00  0.00    -0.188 NA
ATOM     21  C   UNL     1      -1.183   0.139  12.224  0.00  0.00    +0.142 C 
BRANCH  21  22
ATOM     22  C   UNL     1      -1.026   1.143  13.286  0.00  0.00    +0.044 A 
ATOM     23  C   UNL     1      -0.198   0.866  14.459  0.00  0.00    -0.006 A 
ATOM     24  C   UNL     1       0.469  -0.355  14.610  0.00  0.00    +0.009 A 
ATOM     25  C   UNL     1       1.231  -0.574  15.719  0.00  0.00    +0.001 A 
ATOM     26  C   UNL     1       1.356   0.403  16.704  0.00  0.00    +0.001 A 
ATOM     27  C   UNL     1       0.722   1.602  16.588  0.00  0.00    +0.008 A 
ATOM     28  C   UNL     1      -0.073   1.861  15.459  0.00  0.00    -0.017 A 
ATOM     29  C   UNL     1      -0.742   3.088  15.304  0.00  0.00    +0.012 A 
ATOM     30  C   UNL     1      -1.507   3.329  14.206  0.00  0.00    +0.046 A 
ATOM     31  C   UNL     1      -1.658   2.383  13.194  0.00  0.00    +0.126 A 
BRANCH  31  32
ATOM     32  O   UNL     1      -2.428   2.669  12.113  0.00  0.00    -0.506 OA
ATOM     33  H   UNL     1      -3.357   2.422  12.216  0.00  0.00    +0.292 HD
ENDBRANCH  31  32
ENDBRANCH  21  22
ENDBRANCH   3  20
TORSDOF 7
