REMARK  Name = ZINC12871477
REMARK  10 active torsions:
REMARK  status: ('A' for Active; 'I' for Inactive)
REMARK    1  A    between atoms: C_1  and  C_2
REMARK    2  A    between atoms: C_13  and  C_14
REMARK    3  A    between atoms: C_13  and  O_15
REMARK    4  A    between atoms: N_21  and  O_22
REMARK    5  A    between atoms: O_22  and  C_23
REMARK    6  A    between atoms: C_23  and  C_24
REMARK    7  A    between atoms: N_26  and  C_27
REMARK    8  A    between atoms: C_27  and  C_28
REMARK    9  A    between atoms: C_28  and  C_29
REMARK   10  A    between atoms: C_41  and  C_42
REMARK                            x       y       z     vdW  Elec       q    Type
REMARK                         _______ _______ _______ _____ _____    ______ ____
ROOT
ATOM      1  C   UNL     1       1.722   2.915  -2.785  0.00  0.00    +0.014 C 
ATOM      2  C   UNL     1       0.932   3.445  -1.586  0.00  0.00    -0.000 C 
ATOM      3  C   UNL     1       1.561   3.048  -0.255  0.00  0.00    +0.010 C 
ATOM      4  C   UNL     1       1.444   1.548  -0.003  0.00  0.00    +0.005 C 
ATOM      5  C   UNL     1      -0.013   1.104   0.008  0.00  0.00    +0.006 C 
ATOM      6  C   UNL     1      -0.700   1.524  -1.276  0.00  0.00    -0.003 C 
ATOM      7  C   UNL     1      -0.542   2.976  -1.622  0.00  0.00    +0.001 C 
ATOM      8  C   UNL     1      -1.232   3.951  -0.654  0.00  0.00    +0.007 C 
ATOM      9  C   UNL     1      -0.564   5.312  -0.968  0.00  0.00    +0.035 C 
ATOM     10  C   UNL     1       0.785   4.987  -1.638  0.00  0.00    +0.069 C 
ATOM     11  C   UNL     1       1.925   5.695  -0.912  0.00  0.00    +0.042 C 
ATOM     12  C   UNL     1      -2.150   1.054  -1.287  0.00  0.00    +0.008 C 
ATOM     13  C   UNL     1      -2.959   1.673  -0.162  0.00  0.00    +0.032 C 
ATOM     14  C   UNL     1      -2.143   1.967   1.067  0.00  0.00    -0.058 C 
ATOM     15  C   UNL     1      -2.761   2.667   2.030  0.00  0.00    +0.031 C 
ATOM     16  C   UNL     1      -2.014   3.050   3.252  0.00  0.00    +0.102 C 
ATOM     17  N   UNL     1      -2.646   3.452   4.336  0.00  0.00    -0.085 NA
ATOM     18  C   UNL     1      -0.532   2.969   3.217  0.00  0.00    +0.027 C 
ATOM     19  C   UNL     1       0.057   2.286   2.229  0.00  0.00    -0.014 C 
ATOM     20  C   UNL     1      -0.749   1.489   1.259  0.00  0.00    +0.011 C 
ATOM     21  C   UNL     1      -0.933   0.140   1.979  0.00  0.00    +0.020 C 
ENDROOT
BRANCH  10  22
ATOM     22  O   UNL     1       0.750   5.418  -3.006  0.00  0.00    -0.388 OA
ATOM     23  H   UNL     1       0.659   6.375  -3.115  0.00  0.00    +0.210 HD
ENDBRANCH  10  22
BRANCH  17  24
ATOM     24  O   UNL     1      -1.910   3.812   5.491  0.00  0.00    -0.384 OA
BRANCH  24  25
ATOM     25  C   UNL     1      -2.722   4.228   6.591  0.00  0.00    +0.358 C 
BRANCH  25  26
ATOM     26  C   UNL     1      -1.840   4.586   7.760  0.00  0.00    +0.253 C 
ATOM     27  O   UNL     1      -0.634   4.494   7.660  0.00  0.00    -0.272 OA
ATOM     28  N   UNL     1      -2.390   5.008   8.915  0.00  0.00    -0.312 N 
ATOM     29  H   UNL     1      -3.354   5.081   8.995  0.00  0.00    +0.149 HD
BRANCH  28  30
ATOM     30  C   UNL     1      -1.533   5.356  10.051  0.00  0.00    +0.109 C 
BRANCH  30  31
ATOM     31  C   UNL     1      -2.402   5.801  11.229  0.00  0.00    +0.056 C 
BRANCH  31  32
ATOM     32  C   UNL     1      -1.520   6.159  12.397  0.00  0.00    -0.021 A 
ATOM     33  C   UNL     1      -1.182   5.355  13.418  0.00  0.00    +0.087 A 
ATOM     34  N   UNL     1      -0.366   6.025  14.288  0.00  0.00    -0.360 N 
ATOM     35  H   UNL     1       0.009   5.651  15.101  0.00  0.00    +0.165 HD
ATOM     36  C   UNL     1      -0.160   7.311  13.841  0.00  0.00    +0.047 A 
ATOM     37  C   UNL     1      -0.874   7.451  12.637  0.00  0.00    +0.003 A 
ATOM     38  C   UNL     1      -0.848   8.666  11.949  0.00  0.00    +0.010 A 
ATOM     39  C   UNL     1      -0.128   9.714  12.450  0.00  0.00    +0.001 A 
ATOM     40  C   UNL     1       0.578   9.581  13.638  0.00  0.00    +0.002 A 
ATOM     41  C   UNL     1       0.566   8.391  14.333  0.00  0.00    +0.026 A 
ENDBRANCH  31  32
ENDBRANCH  30  31
ENDBRANCH  28  30
ENDBRANCH  25  26
ENDBRANCH  24  25
ENDBRANCH  17  24
TORSDOF 7
