REMARK  Name = ZINC36501673
REMARK  13 active torsions:
REMARK  status: ('A' for Active; 'I' for Inactive)
REMARK    1  A    between atoms: C_1  and  C_2
REMARK    2  A    between atoms: C_2  and  C_4
REMARK    3  A    between atoms: C_2  and  C_34
REMARK    4  A    between atoms: C_4  and  C_5
REMARK    5  A    between atoms: N_7  and  C_8
REMARK    6  A    between atoms: N_7  and  C_14
REMARK    7  A    between atoms: C_8  and  C_9
REMARK    8  A    between atoms: C_14  and  C_16
REMARK    9  A    between atoms: C_14  and  C_25
REMARK   10  A    between atoms: C_17  and  O_24
REMARK   11  A    between atoms: C_19  and  O_23
REMARK   12  A    between atoms: C_21  and  O_22
REMARK   13  A    between atoms: N_27  and  C_28
REMARK                            x       y       z     vdW  Elec       q    Type
REMARK                         _______ _______ _______ _____ _____    ______ ____
ROOT
ATOM      1  C   UNL     1      -0.527  -0.211   4.639  0.00  0.00    +0.200 C 
ENDROOT
BRANCH   1   2
ATOM      2  C   UNL     1       0.797   0.076   5.297  0.00  0.00    +0.065 A 
ATOM      3  C   UNL     1       1.831  -0.845   5.207  0.00  0.00    +0.129 A 
ATOM      4  C   UNL     1       3.050  -0.581   5.813  0.00  0.00    +0.091 A 
ATOM      5  C   UNL     1       3.236   0.605   6.508  0.00  0.00    +0.124 A 
ATOM      6  C   UNL     1       2.203   1.526   6.597  0.00  0.00    +0.091 A 
ATOM      7  C   UNL     1       0.985   1.264   5.988  0.00  0.00    +0.129 A 
BRANCH   7   8
ATOM      8  O   UNL     1      -0.025   2.168   6.071  0.00  0.00    -0.506 OA
ATOM      9  H   UNL     1      -0.602   2.044   6.837  0.00  0.00    +0.292 HD
ENDBRANCH   7   8
BRANCH   5  10
ATOM     10  O   UNL     1       4.430   0.864   7.103  0.00  0.00    -0.507 OA
ATOM     11  H   UNL     1       5.060   1.328   6.535  0.00  0.00    +0.292 HD
ENDBRANCH   5  10
BRANCH   3  12
ATOM     12  O   UNL     1       1.648  -2.006   4.526  0.00  0.00    -0.506 OA
ATOM     13  H   UNL     1       1.961  -1.979   3.611  0.00  0.00    +0.292 HD
ENDBRANCH   3  12
ENDBRANCH   1   2
BRANCH   1  14
ATOM     14  C   UNL     1      -1.307  -1.186   5.483  0.00  0.00    +0.239 C 
ATOM     15  O   UNL     1      -1.063  -2.373   5.420  0.00  0.00    -0.273 OA
ATOM     16  N   UNL     1      -2.275  -0.740   6.307  0.00  0.00    -0.311 N 
ATOM     17  H   UNL     1      -2.470   0.209   6.357  0.00  0.00    +0.149 HD
BRANCH  16  18
ATOM     18  C   UNL     1      -3.033  -1.688   7.128  0.00  0.00    +0.073 C 
ATOM     19  C   UNL     1      -4.194  -2.256   6.310  0.00  0.00    +0.022 C 
ATOM     20  C   UNL     1      -4.986  -3.245   7.167  0.00  0.00    +0.002 C 
ATOM     21  C   UNL     1      -5.535  -2.527   8.401  0.00  0.00    +0.000 C 
ATOM     22  C   UNL     1      -4.373  -1.959   9.219  0.00  0.00    +0.002 C 
ATOM     23  C   UNL     1      -3.582  -0.969   8.362  0.00  0.00    +0.022 C 
ENDBRANCH  16  18
ENDBRANCH   1  14
BRANCH   1  26
ATOM     24  C   UNL     1       0.492  -0.150   2.426  0.00  0.00    +0.217 C 
ATOM     25  O   UNL     1       1.014   0.903   2.728  0.00  0.00    -0.276 OA
ATOM     26  N   UNL     1      -0.298  -0.788   3.312  0.00  0.00    -0.278 N 
BRANCH  24  27
ATOM     27  C   UNL     1       0.728  -0.744   1.062  0.00  0.00    +0.104 C 
BRANCH  27  29
ATOM     28  C   UNL     1       3.031   0.215   0.926  0.00  0.00    +0.013 C 
ATOM     29  C   UNL     1       1.654   0.173   0.260  0.00  0.00    +0.025 C 
BRANCH  29  30
ATOM     30  C   UNL     1       1.792  -0.356  -1.145  0.00  0.00    -0.044 A 
ATOM     31  C   UNL     1       2.300  -1.623  -1.359  0.00  0.00    +0.004 A 
ATOM     32  C   UNL     1       2.427  -2.109  -2.647  0.00  0.00    +0.000 A 
ATOM     33  C   UNL     1       2.044  -1.327  -3.721  0.00  0.00    +0.000 A 
ATOM     34  C   UNL     1       1.534  -0.060  -3.506  0.00  0.00    +0.000 A 
ATOM     35  C   UNL     1       1.404   0.424  -2.218  0.00  0.00    +0.004 A 
ENDBRANCH  29  30
ENDBRANCH  27  29
ENDBRANCH  24  27
BRANCH  26  36
ATOM     36  C   UNL     1      -0.928  -2.060   2.947  0.00  0.00    +0.183 C 
BRANCH  36  37
ATOM     37  C   UNL     1       0.118  -3.143   2.897  0.00  0.00    +0.122 A 
ATOM     38  C   UNL     1       0.399  -4.011   3.886  0.00  0.00    +0.046 A 
ATOM     39  C   UNL     1       1.439  -4.845   3.415  0.00  0.00    +0.041 A 
ATOM     40  C   UNL     1       1.731  -4.437   2.167  0.00  0.00    +0.195 A 
ATOM     41  O   UNL     1       0.924  -3.409   1.857  0.00  0.00    -0.466 OA
ENDBRANCH  36  37
ENDBRANCH  26  36
ENDBRANCH   1  26
TORSDOF 12
