REMARK  Name = ZINC40631339
REMARK  5 active torsions:
REMARK  status: ('A' for Active; 'I' for Inactive)
REMARK    1  A    between atoms: C_1  and  C_2
REMARK    2  A    between atoms: C_5  and  N_9
REMARK    3  A    between atoms: C_10  and  C_12
REMARK    4  A    between atoms: C_15  and  O_19
REMARK    5  A    between atoms: O_19  and  C_20
REMARK                            x       y       z     vdW  Elec       q    Type
REMARK                         _______ _______ _______ _____ _____    ______ ____
ROOT
ATOM      1  N   UNL     1       0.059  -4.172  -0.021  0.00  0.00    -0.285 N 
ATOM      2  C   UNL     1       0.473  -4.846   1.070  0.00  0.00    +0.203 C 
ATOM      3  O   UNL     1       0.743  -4.245   2.088  0.00  0.00    -0.277 OA
ATOM      4  H   UNL     1      -0.225  -4.656  -0.811  0.00  0.00    +0.155 HD
ENDROOT
BRANCH   1   9
ATOM      5  C   UNL     1      -0.017   1.503   0.009  0.00  0.00    +0.044 C 
ATOM      6  C   UNL     1       0.003  -0.004   0.001  0.00  0.00    -0.048 A 
ATOM      7  C   UNL     1       1.145  -0.676  -0.394  0.00  0.00    +0.020 A 
ATOM      8  C   UNL     1       1.167  -2.058  -0.402  0.00  0.00    +0.040 A 
ATOM      9  C   UNL     1       0.041  -2.772  -0.013  0.00  0.00    +0.062 A 
ATOM     10  C   UNL     1      -1.105  -2.093   0.383  0.00  0.00    +0.040 A 
ATOM     11  C   UNL     1      -1.118  -0.711   0.394  0.00  0.00    +0.020 A 
ATOM     12 BR   UNL     1      -2.642  -3.059   0.914  0.00  0.00    -0.048 Br
ATOM     13 BR   UNL     1       2.729  -2.977  -0.943  0.00  0.00    -0.048 Br
ENDBRANCH   1   9
BRANCH   2  14
ATOM     14  C   UNL     1       0.601  -6.347   1.025  0.00  0.00    +0.019 C 
ATOM     15  C   UNL     1      -0.782  -6.997   1.213  0.00  0.00    +0.023 C 
ATOM     16  C   UNL     1      -0.645  -7.878   2.476  0.00  0.00    +0.100 C 
ATOM     17  C   UNL     1       0.884  -8.115   2.570  0.00  0.00    -0.050 C 
ATOM     18  N   UNL     1       1.460  -6.813   2.135  0.00  0.00    +0.388 N 
ATOM     19  H   UNL     1       2.408  -6.939   1.813  0.00  0.00    -0.085 HD
ATOM     20  H   UNL     1       1.434  -6.151   2.896  0.00  0.00    -0.085 HD
BRANCH  16  21
ATOM     21  O   UNL     1      -1.342  -9.114   2.308  0.00  0.00    -0.382 OA
ATOM     22  C   UNL     1      -1.849  -9.665   3.525  0.00  0.00    +0.194 C 
ENDBRANCH  16  21
ENDBRANCH   2  14
TORSDOF 3
