REMARK  Name = ZINC39684636
REMARK  11 active torsions:
REMARK  status: ('A' for Active; 'I' for Inactive)
REMARK    1  A    between atoms: C_1  and  C_2
REMARK    2  A    between atoms: C_2  and  C_4
REMARK    3  A    between atoms: C_2  and  N_8
REMARK    4  A    between atoms: C_4  and  C_5
REMARK    5  A    between atoms: C_4  and  C_6
REMARK    6  A    between atoms: C_4  and  C_7
REMARK    7  A    between atoms: C_9  and  C_11
REMARK    8  A    between atoms: C_22  and  C_24
REMARK    9  A    between atoms: C_30  and  O_32
REMARK   10  A    between atoms: O_32  and  C_33
REMARK   11  A    between atoms: C_33  and  C_34
REMARK                            x       y       z     vdW  Elec       q    Type
REMARK                         _______ _______ _______ _____ _____    ______ ____
ROOT
ATOM      1  C   UNL     1       0.712  -1.094  -3.598  0.00  0.00    +0.100 C 
ATOM      2  C   UNL     1       1.732  -0.041  -4.085  0.00  0.00    +0.121 C 
ATOM      3  N   UNL     1       1.653  -0.098  -5.564  0.00  0.00    -0.300 N 
ATOM      4  C   UNL     1       0.208  -0.272  -5.849  0.00  0.00    +0.115 C 
ATOM      5  C   UNL     1      -0.287  -1.243  -4.759  0.00  0.00    -0.004 C 
ATOM      6  C   UNL     1      -0.277  -2.675  -5.284  0.00  0.00    -0.010 C 
ATOM      7  C   UNL     1      -1.318  -2.812  -6.399  0.00  0.00    -0.082 C 
ATOM      8  N   UNL     1      -2.646  -2.470  -5.875  0.00  0.00    +0.379 N 
ATOM      9  C   UNL     1      -2.673  -1.063  -5.458  0.00  0.00    -0.082 C 
ATOM     10  C   UNL     1      -1.689  -0.852  -4.303  0.00  0.00    -0.010 C 
ATOM     11  C   UNL     1       2.665  -0.011  -6.449  0.00  0.00    +0.219 C 
ATOM     12  O   UNL     1       2.438  -0.076  -7.638  0.00  0.00    -0.275 OA
ATOM     13  H   UNL     1      -3.338  -2.620  -6.594  0.00  0.00    -0.086 HD
ATOM     14  H   UNL     1      -2.856  -3.059  -5.083  0.00  0.00    -0.086 HD
ENDROOT
BRANCH  11  15
ATOM     15  C   UNL     1       4.080   0.166  -5.961  0.00  0.00    +0.078 C 
ATOM     16  C   UNL     1       4.182   1.461  -5.152  0.00  0.00    +0.032 C 
ATOM     17  C   UNL     1       5.613   1.620  -4.628  0.00  0.00    +0.112 C 
ATOM     18  N   UNL     1       6.543   1.542  -5.763  0.00  0.00    -0.267 N 
ATOM     19  C   UNL     1       6.469   0.380  -6.659  0.00  0.00    +0.112 C 
ATOM     20  C   UNL     1       5.028   0.235  -7.160  0.00  0.00    +0.032 C 
ATOM     21  C   UNL     1       7.447   2.518  -5.978  0.00  0.00    +0.403 C 
ATOM     22  O   UNL     1       7.498   3.474  -5.230  0.00  0.00    -0.226 OA
BRANCH  21  23
ATOM     23  O   UNL     1       8.294   2.433  -7.022  0.00  0.00    -0.445 OA
BRANCH  23  24
ATOM     24  C   UNL     1       9.226   3.504  -7.189  0.00  0.00    +0.269 C 
BRANCH  24  25
ATOM     25  C   UNL     1      10.084   3.238  -8.399  0.00  0.00    -0.010 A 
ATOM     26  C   UNL     1      11.264   2.531  -8.268  0.00  0.00    +0.007 A 
ATOM     27  C   UNL     1      12.051   2.287  -9.378  0.00  0.00    +0.000 A 
ATOM     28  C   UNL     1      11.657   2.749 -10.620  0.00  0.00    +0.000 A 
ATOM     29  C   UNL     1      10.476   3.456 -10.751  0.00  0.00    +0.000 A 
ATOM     30  C   UNL     1       9.687   3.696  -9.642  0.00  0.00    +0.007 A 
ENDBRANCH  24  25
ENDBRANCH  23  24
ENDBRANCH  21  23
ENDBRANCH  11  15
BRANCH   1  32
ATOM     31  N   UNL     1      -0.447  -1.494  -1.450  0.00  0.00    -0.312 N 
ATOM     32  C   UNL     1       0.006  -0.608  -2.358  0.00  0.00    +0.218 C 
ATOM     33  O   UNL     1      -0.154   0.581  -2.179  0.00  0.00    -0.275 OA
ATOM     34  H   UNL     1      -0.319  -2.445  -1.594  0.00  0.00    +0.149 HD
BRANCH  31  36
ATOM     35  C   UNL     1      -0.098  -0.674   0.828  0.00  0.00    +0.028 C 
ATOM     36  C   UNL     1      -1.133  -1.022  -0.244  0.00  0.00    +0.075 C 
BRANCH  36  37
ATOM     37  C   UNL     1      -2.059  -2.121   0.279  0.00  0.00    -0.020 C 
ATOM     38  C   UNL     1      -2.775  -1.628   1.538  0.00  0.00    +0.012 C 
ATOM     39  C   UNL     1      -3.094  -2.469  -0.793  0.00  0.00    +0.012 C 
ATOM     40  C   UNL     1      -1.235  -3.365   0.616  0.00  0.00    +0.012 C 
ENDBRANCH  36  37
ENDBRANCH  31  36
ENDBRANCH   1  32
TORSDOF 7
