REMARK  Name = ZINC39684674
REMARK  9 active torsions:
REMARK  status: ('A' for Active; 'I' for Inactive)
REMARK    1  A    between atoms: C_1  and  C_2
REMARK    2  A    between atoms: C_2  and  C_4
REMARK    3  A    between atoms: C_2  and  N_8
REMARK    4  A    between atoms: C_4  and  C_5
REMARK    5  A    between atoms: C_4  and  C_6
REMARK    6  A    between atoms: C_4  and  C_7
REMARK    7  A    between atoms: C_9  and  C_11
REMARK    8  A    between atoms: C_22  and  C_24
REMARK    9  A    between atoms: C_27  and  C_29
REMARK                            x       y       z     vdW  Elec       q    Type
REMARK                         _______ _______ _______ _____ _____    ______ ____
ROOT
ATOM      1  C   UNL     1       2.783  -1.099   2.395  0.00  0.00    +0.100 C 
ATOM      2  C   UNL     1       2.274  -2.504   2.788  0.00  0.00    +0.121 C 
ATOM      3  N   UNL     1       3.225  -3.440   2.144  0.00  0.00    -0.294 N 
ATOM      4  C   UNL     1       4.548  -2.793   2.309  0.00  0.00    +0.115 C 
ATOM      5  C   UNL     1       4.277  -1.292   2.085  0.00  0.00    -0.004 C 
ATOM      6  C   UNL     1       5.126  -0.454   3.034  0.00  0.00    -0.010 C 
ATOM      7  C   UNL     1       6.604  -0.617   2.669  0.00  0.00    -0.082 C 
ATOM      8  N   UNL     1       6.818  -0.189   1.282  0.00  0.00    +0.379 N 
ATOM      9  C   UNL     1       6.069  -1.060   0.368  0.00  0.00    -0.082 C 
ATOM     10  C   UNL     1       4.569  -0.915   0.635  0.00  0.00    -0.010 C 
ATOM     11  C   UNL     1       2.949  -4.615   1.544  0.00  0.00    +0.282 C 
ATOM     12  O   UNL     1       3.847  -5.276   1.058  0.00  0.00    -0.267 OA
ATOM     13  H   UNL     1       6.500   0.763   1.173  0.00  0.00    -0.086 HD
ATOM     14  H   UNL     1       7.801  -0.239   1.063  0.00  0.00    -0.086 HD
ENDROOT
BRANCH  11  15
ATOM     15  C   UNL     1       1.567  -5.097   1.477  0.00  0.00    +0.190 A 
ATOM     16  C   UNL     1       1.148  -6.276   0.901  0.00  0.00    +0.055 A 
ATOM     17  C   UNL     1      -0.240  -6.334   1.063  0.00  0.00    +0.050 A 
ATOM     18  C   UNL     1      -0.615  -5.200   1.725  0.00  0.00    +0.136 A 
ATOM     19  O   UNL     1       0.482  -4.465   1.975  0.00  0.00    -0.450 OA
BRANCH  18  20
ATOM     20  C   UNL     1      -1.995  -4.843   2.109  0.00  0.00    +0.017 A 
ATOM     21  C   UNL     1      -3.053  -5.702   1.800  0.00  0.00    +0.014 A 
ATOM     22  C   UNL     1      -4.340  -5.363   2.161  0.00  0.00    +0.039 A 
ATOM     23  C   UNL     1      -4.585  -4.174   2.829  0.00  0.00    +0.123 A 
ATOM     24  C   UNL     1      -3.540  -3.317   3.137  0.00  0.00    +0.039 A 
ATOM     25  C   UNL     1      -2.248  -3.648   2.786  0.00  0.00    +0.014 A 
ATOM     26  F   UNL     1      -5.848  -3.847   3.180  0.00  0.00    -0.205 F 
ENDBRANCH  18  20
ENDBRANCH  11  15
BRANCH   1  28
ATOM     27  N   UNL     1       1.885   0.724   0.984  0.00  0.00    -0.312 N 
ATOM     28  C   UNL     1       2.054  -0.600   1.174  0.00  0.00    +0.218 C 
ATOM     29  O   UNL     1       1.619  -1.389   0.362  0.00  0.00    -0.275 OA
ATOM     30  H   UNL     1       2.233   1.355   1.633  0.00  0.00    +0.149 HD
BRANCH  27  32
ATOM     31  C   UNL     1       2.156   1.315  -1.374  0.00  0.00    +0.028 C 
ATOM     32  C   UNL     1       1.177   1.209  -0.203  0.00  0.00    +0.075 C 
BRANCH  32  33
ATOM     33  C   UNL     1       0.579   2.587   0.088  0.00  0.00    -0.020 C 
ATOM     34  C   UNL     1      -0.161   3.094  -1.152  0.00  0.00    +0.012 C 
ATOM     35  C   UNL     1      -0.400   2.482   1.258  0.00  0.00    +0.012 C 
ATOM     36  C   UNL     1       1.701   3.564   0.447  0.00  0.00    +0.012 C 
ENDBRANCH  32  33
ENDBRANCH  27  32
ENDBRANCH   1  28
TORSDOF 5
