REMARK  Name = ZINC14993204
REMARK  8 active torsions:
REMARK  status: ('A' for Active; 'I' for Inactive)
REMARK    1  A    between atoms: C_1  and  C_2
REMARK    2  A    between atoms: C_2  and  C_3
REMARK    3  A    between atoms: C_9  and  O_14
REMARK    4  A    between atoms: O_14  and  C_15
REMARK    5  A    between atoms: C_16  and  C_17
REMARK    6  A    between atoms: C_16  and  N_52
REMARK    7  A    between atoms: C_21  and  O_23
REMARK    8  A    between atoms: O_23  and  C_24
REMARK                            x       y       z     vdW  Elec       q    Type
REMARK                         _______ _______ _______ _____ _____    ______ ____
ROOT
ATOM      1  C   UNL     1       0.696  -2.433   2.802  0.00  0.00    +0.157 C 
ATOM      2  C   UNL     1       0.328  -1.928   1.423  0.00  0.00    -0.033 C 
ATOM      3  C   UNL     1      -1.228  -0.173   2.079  0.00  0.00    -0.039 C 
ATOM      4  C   UNL     1      -0.936  -0.007   3.558  0.00  0.00    -0.019 A 
ATOM      5  C   UNL     1      -1.044   1.233   4.152  0.00  0.00    +0.051 A 
ATOM      6  C   UNL     1      -0.794   1.366   5.512  0.00  0.00    +0.121 A 
ATOM      7  C   UNL     1      -0.439   0.256   6.263  0.00  0.00    +0.049 A 
ATOM      8  C   UNL     1      -0.325  -0.983   5.661  0.00  0.00    +0.049 A 
ATOM      9  C   UNL     1      -0.565  -1.113   4.300  0.00  0.00    +0.122 A 
ATOM     10  O   UNL     1      -0.419  -2.323   3.695  0.00  0.00    -0.490 OA
ATOM     11  N   UNL     1       0.052  -0.477   1.395  0.00  0.00    +0.388 N 
ATOM     12  H   UNL     1       0.811   0.012   1.884  0.00  0.00    -0.081 HD
ENDROOT
BRANCH   1  14
ATOM     13  C   UNL     1       1.642  -4.370   4.065  0.00  0.00    +0.007 C 
ATOM     14  C   UNL     1       1.122  -3.899   2.705  0.00  0.00    +0.039 C 
ENDBRANCH   1  14
BRANCH   6  15
ATOM     15  O   UNL     1      -0.898   2.585   6.106  0.00  0.00    -0.495 OA
ATOM     16  C   UNL     1      -0.627   2.649   7.507  0.00  0.00    +0.277 C 
ENDBRANCH   6  15
BRANCH  11  17
ATOM     17  C   UNL     1       0.002  -0.004   0.002  0.00  0.00    -0.042 C 
BRANCH  17  18
ATOM     18  C   UNL     1      -0.018   1.503   0.010  0.00  0.00    -0.057 A 
ATOM     19  C   UNL     1      -1.226   2.176   0.020  0.00  0.00    +0.051 A 
ATOM     20  C   UNL     1      -1.250   3.562   0.032  0.00  0.00    +0.170 A 
ATOM     21  C   UNL     1      -0.056   4.275   0.024  0.00  0.00    +0.208 A 
ATOM     22  C   UNL     1       1.155   3.595   0.009  0.00  0.00    +0.166 A 
ATOM     23  C   UNL     1       1.170   2.208   0.003  0.00  0.00    +0.051 A 
ATOM     24  O   UNL     1      -0.344   5.611   0.033  0.00  0.00    -0.449 OA
ATOM     25  C   UNL     1      -1.717   5.704   0.459  0.00  0.00    +0.467 C 
ATOM     26  O   UNL     1      -2.288   4.448   0.046  0.00  0.00    -0.452 OA
BRANCH  22  27
ATOM     27  O   UNL     1       2.325   4.288   0.002  0.00  0.00    -0.491 OA
ATOM     28  C   UNL     1       3.533   3.523  -0.013  0.00  0.00    +0.277 C 
ENDBRANCH  22  27
ENDBRANCH  17  18
ENDBRANCH  11  17
TORSDOF 5
