REMARK  Name = ZINC33489734
REMARK  10 active torsions:
REMARK  status: ('A' for Active; 'I' for Inactive)
REMARK    1  A    between atoms: C_1  and  C_2
REMARK    2  A    between atoms: C_2  and  C_3
REMARK    3  A    between atoms: C_3  and  C_4
REMARK    4  A    between atoms: C_4  and  C_5
REMARK    5  A    between atoms: C_5  and  C_6
REMARK    6  A    between atoms: C_6  and  N_7
REMARK    7  A    between atoms: C_8  and  N_9
REMARK    8  A    between atoms: C_10  and  S_24
REMARK    9  A    between atoms: C_16  and  C_23
REMARK   10  A    between atoms: S_24  and  C_27
REMARK                            x       y       z     vdW  Elec       q    Type
REMARK                         _______ _______ _______ _____ _____    ______ ____
ROOT
ATOM      1  N   UNL     1       1.712   1.548   0.355  0.00  0.00    -0.312 N 
ATOM      2  C   UNL     1       1.974   0.204   0.189  0.00  0.00    +0.124 A 
ATOM      3  C   UNL     1       0.913  -0.728   0.085  0.00  0.00    +0.132 A 
ATOM      4  C   UNL     1      -0.373  -0.305   0.148  0.00  0.00    +0.047 A 
ATOM      5  C   UNL     1      -0.647   1.071   0.319  0.00  0.00    +0.084 A 
ATOM      6  C   UNL     1       0.414   1.994   0.422  0.00  0.00    +0.150 A 
ATOM      7  N   UNL     1       0.144   3.284   0.582  0.00  0.00    -0.211 NA
ATOM      8  C   UNL     1      -1.110   3.728   0.648  0.00  0.00    +0.145 A 
ATOM      9  C   UNL     1      -1.338   5.107   0.818  0.00  0.00    -0.007 A 
ATOM     10  C   UNL     1      -2.617   5.573   0.887  0.00  0.00    +0.008 A 
ATOM     11  C   UNL     1      -3.688   4.674   0.787  0.00  0.00    +0.019 A 
ATOM     12  C   UNL     1      -3.451   3.353   0.623  0.00  0.00    +0.096 A 
ATOM     13  N   UNL     1      -2.176   2.876   0.553  0.00  0.00    -0.267 N 
ATOM     14  C   UNL     1      -1.975   1.550   0.384  0.00  0.00    +0.268 A 
ATOM     15  O   UNL     1      -2.918   0.784   0.294  0.00  0.00    -0.267 OA
ATOM     16  C   UNL     1      -0.176   6.061   0.923  0.00  0.00    +0.047 C 
ENDROOT
BRANCH   2  17
ATOM     17  N   UNL     1       3.217  -0.214   0.127  0.00  0.00    -0.343 N 
ATOM     18  H   UNL     1       3.430  -1.285  -0.006  0.00  0.00    +0.144 HD
ATOM     19  H   UNL     1       4.044   0.506   0.207  0.00  0.00    +0.144 HD
ENDBRANCH   2  17
BRANCH   3  20
ATOM     20  S   UNL     1       1.266  -2.441  -0.128  0.00  0.00    +0.028 S 
ATOM     21  O   UNL     1       0.014  -3.112  -0.167  0.00  0.00    -0.164 OA
ATOM     22  O   UNL     1       2.212  -2.532  -1.184  0.00  0.00    -0.164 OA
BRANCH  20  23
ATOM     23  C   UNL     1       2.087  -2.989   1.332  0.00  0.00    +0.094 A 
ATOM     24  C   UNL     1       3.466  -3.063   1.363  0.00  0.00    +0.027 A 
ATOM     25  C   UNL     1       4.110  -3.488   2.510  0.00  0.00    +0.002 A 
ATOM     26  C   UNL     1       3.374  -3.849   3.623  0.00  0.00    +0.000 A 
ATOM     27  C   UNL     1       1.993  -3.780   3.590  0.00  0.00    +0.002 A 
ATOM     28  C   UNL     1       1.350  -3.350   2.445  0.00  0.00    +0.027 A 
ENDBRANCH  20  23
ENDBRANCH   3  20
BRANCH   1  29
ATOM     29  C   UNL     1       2.820   2.501   0.461  0.00  0.00    +0.125 C 
BRANCH  29  30
ATOM     30  C   UNL     1       3.192   3.007  -0.934  0.00  0.00    +0.022 C 
BRANCH  30  31
ATOM     31  C   UNL     1       4.349   4.003  -0.823  0.00  0.00    +0.002 C 
BRANCH  31  32
ATOM     32  C   UNL     1       4.721   4.509  -2.218  0.00  0.00    -0.000 C 
BRANCH  32  34
ATOM     33  C   UNL     1       6.250   6.011  -3.502  0.00  0.00    +0.004 C 
ATOM     34  C   UNL     1       5.878   5.505  -2.107  0.00  0.00    -0.003 C 
ENDBRANCH  32  34
ENDBRANCH  31  32
ENDBRANCH  30  31
ENDBRANCH  29  30
ENDBRANCH   1  29
TORSDOF 8
