REMARK  Name = ZINC49090574
REMARK  8 active torsions:
REMARK  status: ('A' for Active; 'I' for Inactive)
REMARK    1  A    between atoms: C_1  and  C_2
REMARK    2  A    between atoms: C_2  and  C_3
REMARK    3  A    between atoms: C_3  and  N_4
REMARK    4  A    between atoms: N_7  and  C_10
REMARK    5  A    between atoms: C_10  and  C_11
REMARK    6  A    between atoms: C_14  and  C_26
REMARK    7  A    between atoms: C_17  and  C_19
REMARK    8  A    between atoms: C_22  and  C_25
REMARK                            x       y       z     vdW  Elec       q    Type
REMARK                         _______ _______ _______ _____ _____    ______ ____
ROOT
ATOM      1  C   UNL     1      -3.571  -6.497   1.240  0.00  0.00    +0.249 C 
ATOM      2  O   UNL     1      -4.485  -5.701   1.280  0.00  0.00    -0.272 OA
ATOM      3  N   UNL     1      -3.826  -7.820   1.290  0.00  0.00    -0.181 N 
ATOM      4  C   UNL     1      -5.162  -8.430   1.387  0.00  0.00    +0.173 C 
ATOM      5  C   UNL     1      -4.867  -9.943   1.407  0.00  0.00    +0.090 C 
ATOM      6  C   UNL     1      -3.360 -10.022   1.318  0.00  0.00    +0.069 C 
ATOM      7  N   UNL     1      -2.870  -8.832   1.253  0.00  0.00    -0.181 NA
ENDROOT
BRANCH   6   8
ATOM      8  C   UNL     1      -2.572 -11.269   1.303  0.00  0.00    -0.002 A 
ATOM      9  C   UNL     1      -3.216 -12.506   1.369  0.00  0.00    +0.010 A 
ATOM     10  C   UNL     1      -2.474 -13.668   1.355  0.00  0.00    +0.004 A 
ATOM     11  C   UNL     1      -1.093 -13.610   1.275  0.00  0.00    -0.050 A 
ATOM     12  C   UNL     1      -0.449 -12.387   1.210  0.00  0.00    +0.004 A 
ATOM     13  C   UNL     1      -1.179 -11.217   1.218  0.00  0.00    +0.010 A 
ATOM     14  C   UNL     1      -0.288 -14.884   1.260  0.00  0.00    +0.044 C 
ENDBRANCH   6   8
BRANCH   4  15
ATOM     15  C   UNL     1      -5.850  -8.003   2.658  0.00  0.00    +0.128 A 
ATOM     16  C   UNL     1      -7.159  -7.720   2.787  0.00  0.00    +0.046 A 
ATOM     17  C   UNL     1      -7.370  -7.366   4.139  0.00  0.00    +0.041 A 
ATOM     18  C   UNL     1      -6.177  -7.454   4.756  0.00  0.00    +0.195 A 
ATOM     19  O   UNL     1      -5.261  -7.846   3.854  0.00  0.00    -0.466 OA
ENDBRANCH   4  15
BRANCH   1  20
ATOM     20  C   UNL     1      -2.149  -6.009   1.135  0.00  0.00    +0.182 C 
BRANCH  20  24
ATOM     21  N   UNL     1      -1.413  -2.002   0.005  0.00  0.00    +0.381 N 
ATOM     22  C   UNL     1      -0.808  -2.490   1.251  0.00  0.00    -0.063 C 
ATOM     23  C   UNL     1      -0.770  -4.020   1.235  0.00  0.00    +0.066 C 
ATOM     24  N   UNL     1      -2.138  -4.540   1.098  0.00  0.00    -0.298 NA
ATOM     25  C   UNL     1      -2.766  -4.040  -0.133  0.00  0.00    +0.066 C 
ATOM     26  C   UNL     1      -2.787  -2.510  -0.105  0.00  0.00    -0.063 C 
ATOM     27  H   UNL     1      -0.871  -2.327  -0.782  0.00  0.00    -0.082 HD
BRANCH  21  28
ATOM     28  C   UNL     1      -1.433  -0.534   0.013  0.00  0.00    -0.079 C 
BRANCH  28  30
ATOM     29  C   UNL     1      -0.019   1.526   0.010  0.00  0.00    +0.002 C 
ATOM     30  C   UNL     1       0.002  -0.004   0.002  0.00  0.00    -0.022 C 
ENDBRANCH  28  30
ENDBRANCH  21  28
ENDBRANCH  20  24
ENDBRANCH   1  20
TORSDOF 6
