REMARK  Name = ZINC41108237
REMARK  6 active torsions:
REMARK  status: ('A' for Active; 'I' for Inactive)
REMARK    1  A    between atoms: C_1  and  C_2
REMARK    2  A    between atoms: C_5  and  N_9
REMARK    3  A    between atoms: C_10  and  C_34
REMARK    4  A    between atoms: C_12  and  C_15
REMARK    5  A    between atoms: C_13  and  C_14
REMARK    6  A    between atoms: C_25  and  C_27
REMARK                            x       y       z     vdW  Elec       q    Type
REMARK                         _______ _______ _______ _____ _____    ______ ____
ROOT
ATOM      1  C   UNL     1       1.649  -7.392  -0.044  0.00  0.00    +0.026 C 
ATOM      2  C   UNL     1       1.282  -8.537   0.634  0.00  0.00    +0.081 C 
ATOM      3  C   UNL     1       2.196  -9.706   0.750  0.00  0.00    +0.153 C 
ATOM      4  N   UNL     1       3.497  -9.597   0.823  0.00  0.00    -0.283 NA
ATOM      5  N   UNL     1       1.521 -10.945   0.773  0.00  0.00    -0.152 N 
ATOM      6  C   UNL     1       0.203 -10.944   1.180  0.00  0.00    +0.181 C 
ATOM      7  N   UNL     1      -0.543  -9.906   1.463  0.00  0.00    -0.152 NA
ATOM      8  C   UNL     1      -0.040  -8.665   1.291  0.00  0.00    +0.273 C 
ATOM      9  O   UNL     1      -0.656  -7.678   1.661  0.00  0.00    -0.268 OA
ATOM     10  S   UNL     1      -0.188 -12.674   1.189  0.00  0.00    -0.033 S 
ATOM     11  C   UNL     1       1.375 -13.273   0.561  0.00  0.00    +0.130 C 
ATOM     12  N   UNL     1       2.065 -12.165   0.433  0.00  0.00    -0.164 NA
ATOM     13  H   UNL     1       4.048 -10.392   0.897  0.00  0.00    +0.188 HD
ENDROOT
BRANCH   1  17
ATOM     14  N   UNL     1      -0.243  -4.384  -0.558  0.00  0.00    -0.316 N 
ATOM     15  C   UNL     1      -1.249  -5.302  -0.683  0.00  0.00    +0.022 A 
ATOM     16  C   UNL     1      -0.744  -6.536  -0.520  0.00  0.00    +0.031 A 
ATOM     17  C   UNL     1       0.696  -6.367  -0.274  0.00  0.00    -0.003 A 
ATOM     18  C   UNL     1       0.930  -5.003  -0.319  0.00  0.00    +0.028 A 
ATOM     19  C   UNL     1       2.264  -4.328  -0.130  0.00  0.00    +0.064 C 
ATOM     20  C   UNL     1      -2.695  -4.980  -0.958  0.00  0.00    +0.064 C 
BRANCH  14  25
ATOM     21  C   UNL     1      -0.910   1.234  -1.013  0.00  0.00    +0.044 C 
ATOM     22  C   UNL     1      -0.733  -0.257  -0.891  0.00  0.00    -0.049 A 
ATOM     23  C   UNL     1      -0.449  -1.012  -2.015  0.00  0.00    +0.005 A 
ATOM     24  C   UNL     1      -0.285  -2.379  -1.908  0.00  0.00    +0.028 A 
ATOM     25  C   UNL     1      -0.407  -2.997  -0.670  0.00  0.00    +0.065 A 
ATOM     26  C   UNL     1      -0.694  -2.237   0.457  0.00  0.00    +0.065 A 
ATOM     27  C   UNL     1      -0.851  -0.868   0.344  0.00  0.00    +0.025 A 
ATOM     28 CL   UNL     1      -0.847  -3.004   2.007  0.00  0.00    -0.081 Cl
ENDBRANCH  14  25
ENDBRANCH   1  17
BRANCH  11  29
ATOM     29  C   UNL     1       1.784 -14.662   0.263  0.00  0.00    +0.009 A 
ATOM     30  C   UNL     1       3.067 -14.926  -0.221  0.00  0.00    +0.013 A 
ATOM     31  C   UNL     1       3.444 -16.223  -0.497  0.00  0.00    +0.039 A 
ATOM     32  C   UNL     1       2.551 -17.265  -0.296  0.00  0.00    +0.123 A 
ATOM     33  C   UNL     1       1.277 -17.008   0.184  0.00  0.00    +0.039 A 
ATOM     34  C   UNL     1       0.892 -15.715   0.469  0.00  0.00    +0.013 A 
ATOM     35  F   UNL     1       2.925 -18.534  -0.570  0.00  0.00    -0.205 F 
ENDBRANCH  11  29
TORSDOF 3
