REMARK  Name = ZINC10474332
REMARK  4 active torsions:
REMARK  status: ('A' for Active; 'I' for Inactive)
REMARK    1  A    between atoms: C_4  and  N_7
REMARK    2  A    between atoms: C_8  and  C_10
REMARK    3  A    between atoms: C_10  and  C_11
REMARK    4  A    between atoms: N_17  and  C_18
REMARK                            x       y       z     vdW  Elec       q    Type
REMARK                         _______ _______ _______ _____ _____    ______ ____
ROOT
ATOM      1  C   UNL     1       6.462  -1.106   3.343  0.00  0.00    +0.149 C 
ATOM      2  C   UNL     1       7.235  -1.633   4.541  0.00  0.00    +0.232 C 
ATOM      3  O   UNL     1       7.075  -2.757   4.967  0.00  0.00    -0.274 OA
ATOM      4  N   UNL     1       8.092  -0.789   5.090  0.00  0.00    -0.264 N 
ATOM      5  C   UNL     1       8.277   0.492   4.609  0.00  0.00    +0.157 C 
ATOM      6  N   UNL     1       9.084   1.411   5.058  0.00  0.00    -0.260 NA
ATOM      7  S   UNL     1       7.150   0.593   3.225  0.00  0.00    -0.077 S 
ATOM      8  H   UNL     1       8.609  -1.081   5.857  0.00  0.00    +0.157 HD
ENDROOT
BRANCH   6   9
ATOM      9  C   UNL     1       9.938   1.135   6.215  0.00  0.00    +0.108 C 
ATOM     10  C   UNL     1       9.610   2.121   7.338  0.00  0.00    +0.027 C 
ATOM     11  C   UNL     1      10.502   1.832   8.547  0.00  0.00    +0.002 C 
ATOM     12  C   UNL     1      11.971   1.986   8.146  0.00  0.00    +0.000 C 
ATOM     13  C   UNL     1      12.298   1.000   7.023  0.00  0.00    +0.002 C 
ATOM     14  C   UNL     1      11.406   1.289   5.814  0.00  0.00    +0.027 C 
ENDBRANCH   6   9
BRANCH   1  15
ATOM     15  C   UNL     1       4.958  -1.076   3.623  0.00  0.00    +0.119 C 
BRANCH  15  17
ATOM     16  N   UNL     1       2.886  -0.467   2.418  0.00  0.00    -0.312 N 
ATOM     17  C   UNL     1       4.229  -0.577   2.402  0.00  0.00    +0.215 C 
ATOM     18  O   UNL     1       4.851  -0.275   1.406  0.00  0.00    -0.276 OA
ATOM     19  H   UNL     1       2.389  -0.709   3.214  0.00  0.00    +0.149 HD
BRANCH  16  23
ATOM     20  C   UNL     1      -0.019   1.526   0.010  0.00  0.00    +0.000 C 
ATOM     21  C   UNL     1       1.417   2.055  -0.000  0.00  0.00    +0.002 C 
ATOM     22  C   UNL     1       2.157   1.548   1.239  0.00  0.00    +0.022 C 
ATOM     23  C   UNL     1       2.178   0.019   1.231  0.00  0.00    +0.073 C 
ATOM     24  C   UNL     1       0.742  -0.511   1.242  0.00  0.00    +0.022 C 
ATOM     25  C   UNL     1       0.002  -0.004   0.002  0.00  0.00    +0.002 C 
ENDBRANCH  16  23
ENDBRANCH  15  17
ENDBRANCH   1  15
TORSDOF 4
