REMARK  Name = ZINC63135165
REMARK  8 active torsions:
REMARK  status: ('A' for Active; 'I' for Inactive)
REMARK    1  A    between atoms: C_7  and  C_10
REMARK    2  A    between atoms: C_10  and  C_11
REMARK    3  A    between atoms: C_11  and  C_13
REMARK    4  A    between atoms: C_11  and  N_24
REMARK    5  A    between atoms: N_15  and  C_16
REMARK    6  A    between atoms: C_20  and  C_22
REMARK    7  A    between atoms: C_22  and  O_23
REMARK    8  A    between atoms: C_25  and  C_27
REMARK                            x       y       z     vdW  Elec       q    Type
REMARK                         _______ _______ _______ _____ _____    ______ ____
ROOT
ATOM      1  C   UNL     1       0.625  -3.526  -1.460  0.00  0.00    +0.163 C 
ENDROOT
BRANCH   1   2
ATOM      2  C   UNL     1      -0.460  -4.559  -1.625  0.00  0.00    +0.238 C 
ATOM      3  O   UNL     1      -0.194  -5.650  -2.081  0.00  0.00    -0.273 OA
ATOM      4  N   UNL     1      -1.726  -4.269  -1.265  0.00  0.00    -0.284 N 
ATOM      5  H   UNL     1      -1.927  -3.423  -0.836  0.00  0.00    +0.155 HD
BRANCH   4   6
ATOM      6  C   UNL     1      -2.751  -5.190  -1.509  0.00  0.00    +0.034 A 
ATOM      7  C   UNL     1      -4.020  -4.744  -1.855  0.00  0.00    +0.023 A 
ATOM      8  C   UNL     1      -5.029  -5.655  -2.096  0.00  0.00    +0.002 A 
ATOM      9  C   UNL     1      -4.778  -7.011  -1.992  0.00  0.00    +0.006 A 
ATOM     10  C   UNL     1      -3.516  -7.459  -1.647  0.00  0.00    -0.020 A 
ATOM     11  C   UNL     1      -2.500  -6.552  -1.412  0.00  0.00    +0.029 A 
BRANCH  10  12
ATOM     12  C   UNL     1      -3.246  -8.937  -1.535  0.00  0.00    +0.191 C 
BRANCH  12  13
ATOM     13  O   UNL     1      -2.818  -9.441  -2.802  0.00  0.00    -0.390 OA
ATOM     14  H   UNL     1      -2.627 -10.389  -2.804  0.00  0.00    +0.210 HD
ENDBRANCH  12  13
ENDBRANCH  10  12
ENDBRANCH   4   6
ENDBRANCH   1   2
BRANCH   1  15
ATOM     15  N   UNL     1       1.900  -4.080  -1.921  0.00  0.00    -0.300 N 
ATOM     16  C   UNL     1       2.902  -3.255  -2.284  0.00  0.00    +0.245 C 
ATOM     17  O   UNL     1       2.747  -2.050  -2.230  0.00  0.00    -0.270 OA
ATOM     18  H   UNL     1       2.024  -5.041  -1.963  0.00  0.00    +0.150 HD
BRANCH  16  19
ATOM     19  C   UNL     1       4.188  -3.813  -2.748  0.00  0.00    +0.037 A 
ATOM     20  C   UNL     1       4.367  -5.197  -2.816  0.00  0.00    +0.016 A 
ATOM     21  C   UNL     1       5.569  -5.713  -3.249  0.00  0.00    +0.039 A 
ATOM     22  C   UNL     1       6.600  -4.862  -3.617  0.00  0.00    +0.123 A 
ATOM     23  C   UNL     1       6.428  -3.487  -3.551  0.00  0.00    +0.039 A 
ATOM     24  C   UNL     1       5.228  -2.961  -3.125  0.00  0.00    +0.016 A 
ATOM     25  F   UNL     1       7.777  -5.373  -4.040  0.00  0.00    -0.205 F 
ENDBRANCH  16  19
ENDBRANCH   1  15
BRANCH   1  26
ATOM     26  C   UNL     1       0.740  -3.137   0.015  0.00  0.00    +0.065 C 
BRANCH  26  33
ATOM     27  C   UNL     1       4.802  -4.681   1.488  0.00  0.00    +0.001 A 
ATOM     28  C   UNL     1       4.718  -5.871   2.224  0.00  0.00    +0.002 A 
ATOM     29  C   UNL     1       3.546  -6.495   2.470  0.00  0.00    +0.026 A 
ATOM     30  C   UNL     1       2.327  -5.953   1.979  0.00  0.00    +0.043 A 
ATOM     31  N   UNL     1       1.086  -6.363   2.081  0.00  0.00    -0.380 N 
ATOM     32  C   UNL     1       0.219  -5.412   1.377  0.00  0.00    +0.144 C 
ATOM     33  C   UNL     1       1.138  -4.346   0.823  0.00  0.00    -0.039 C 
ATOM     34  C   UNL     1       2.389  -4.697   1.199  0.00  0.00    -0.001 A 
ATOM     35  C   UNL     1       3.703  -4.082   0.977  0.00  0.00    +0.010 A 
ATOM     36  H   UNL     1       0.790  -7.162   2.545  0.00  0.00    +0.160 HD
ENDBRANCH  26  33
ENDBRANCH   1  26
TORSDOF 8
