REMARK  Name = ZINC02233090
REMARK  9 active torsions:
REMARK  status: ('A' for Active; 'I' for Inactive)
REMARK    1  A    between atoms: C_1  and  C_2
REMARK    2  A    between atoms: C_2  and  C_4
REMARK    3  A    between atoms: C_2  and  O_29
REMARK    4  A    between atoms: C_4  and  N_5
REMARK    5  A    between atoms: C_13  and  S_15
REMARK    6  A    between atoms: S_15  and  C_16
REMARK    7  A    between atoms: C_16  and  C_17
REMARK    8  A    between atoms: C_25  and  C_27
REMARK    9  A    between atoms: C_25  and  C_28
REMARK                            x       y       z     vdW  Elec       q    Type
REMARK                         _______ _______ _______ _____ _____    ______ ____
ROOT
ATOM      1  N   UNL     1       8.321  -3.287  -3.497  0.00  0.00    -0.326 N 
ATOM      2  C   UNL     1       7.604  -2.885  -2.385  0.00  0.00    +0.132 A 
ATOM      3  C   UNL     1       8.189  -2.954  -1.089  0.00  0.00    +0.051 A 
ATOM      4  C   UNL     1       9.524  -3.413  -0.709  0.00  0.00    -0.020 A 
ATOM      5  C   UNL     1       9.836  -3.376   0.604  0.00  0.00    +0.021 A 
ATOM      6  S   UNL     1       8.392  -2.737   1.404  0.00  0.00    -0.071 S 
ATOM      7  C   UNL     1       7.368  -2.519  -0.029  0.00  0.00    +0.115 A 
ATOM      8  N   UNL     1       6.143  -2.076  -0.240  0.00  0.00    -0.215 NA
ATOM      9  C   UNL     1       5.649  -2.039  -1.470  0.00  0.00    +0.191 A 
ATOM     10  N   UNL     1       6.369  -2.434  -2.514  0.00  0.00    -0.206 NA
ATOM     11  C   UNL     1      11.136  -3.795   1.218  0.00  0.00    +0.203 C 
ATOM     12  O   UNL     1      11.873  -4.534   0.231  0.00  0.00    -0.368 OA
ATOM     13  C   UNL     1      11.931  -3.884  -1.042  0.00  0.00    +0.068 C 
ATOM     14  C   UNL     1      10.555  -3.919  -1.714  0.00  0.00    +0.071 C 
ATOM     15  C   UNL     1      12.364  -2.429  -0.849  0.00  0.00    +0.041 C 
ATOM     16  C   UNL     1      12.946  -4.602  -1.933  0.00  0.00    +0.041 C 
ATOM     17  H   UNL     1       9.196  -3.692  -3.390  0.00  0.00    +0.148 HD
ENDROOT
BRANCH   1  18
ATOM     18  C   UNL     1       7.760  -3.100  -4.837  0.00  0.00    +0.134 C 
BRANCH  18  20
ATOM     19  C   UNL     1       8.218  -3.316  -7.284  0.00  0.00    +0.039 C 
ATOM     20  C   UNL     1       8.747  -3.624  -5.882  0.00  0.00    +0.128 C 
BRANCH  20  21
ATOM     21  O   UNL     1       8.897  -5.037  -5.729  0.00  0.00    -0.391 OA
ATOM     22  H   UNL     1       8.075  -5.534  -5.838  0.00  0.00    +0.210 HD
ENDBRANCH  20  21
ENDBRANCH  18  20
ENDBRANCH   1  18
BRANCH   9  23
ATOM     23  S   UNL     1       4.008  -1.450  -1.724  0.00  0.00    -0.081 S 
BRANCH  23  24
ATOM     24  C   UNL     1       3.541  -1.073  -0.017  0.00  0.00    +0.112 C 
BRANCH  24  25
ATOM     25  C   UNL     1       2.132  -0.538   0.013  0.00  0.00    -0.037 A 
ATOM     26  C   UNL     1       1.066  -1.405   0.157  0.00  0.00    +0.004 A 
ATOM     27  C   UNL     1      -0.226  -0.914   0.183  0.00  0.00    +0.000 A 
ATOM     28  C   UNL     1      -0.452   0.444   0.066  0.00  0.00    +0.000 A 
ATOM     29  C   UNL     1       0.615   1.312  -0.077  0.00  0.00    +0.000 A 
ATOM     30  C   UNL     1       1.907   0.821  -0.104  0.00  0.00    +0.004 A 
ENDBRANCH  24  25
ENDBRANCH  23  24
ENDBRANCH   9  23
TORSDOF 6
