REMARK  Name = ZINC59914994
REMARK  14 active torsions:
REMARK  status: ('A' for Active; 'I' for Inactive)
REMARK    1  A    between atoms: C_1  and  C_2
REMARK    2  A    between atoms: C_2  and  C_3
REMARK    3  A    between atoms: C_3  and  C_4
REMARK    4  A    between atoms: C_4  and  C_30
REMARK    5  A    between atoms: N_5  and  N_6
REMARK    6  A    between atoms: C_7  and  C_9
REMARK    7  A    between atoms: C_9  and  C_11
REMARK    8  A    between atoms: C_9  and  S_12
REMARK    9  A    between atoms: S_12  and  C_13
REMARK   10  A    between atoms: C_16  and  C_21
REMARK   11  A    between atoms: N_17  and  C_18
REMARK   12  A    between atoms: C_18  and  C_19
REMARK   13  A    between atoms: C_21  and  N_22
REMARK   14  A    between atoms: N_22  and  C_23
REMARK                            x       y       z     vdW  Elec       q    Type
REMARK                         _______ _______ _______ _____ _____    ______ ____
ROOT
ATOM      1  C   UNL     1      -3.536  -8.661   2.931  0.00  0.00    +0.193 A 
ATOM      2  N   UNL     1      -2.727  -9.319   2.134  0.00  0.00    -0.122 NA
ATOM      3  N   UNL     1      -2.963 -10.579   2.215  0.00  0.00    -0.132 NA
ATOM      4  C   UNL     1      -3.930 -10.799   3.060  0.00  0.00    +0.152 A 
ATOM      5  N   UNL     1      -4.325  -9.586   3.551  0.00  0.00    -0.301 N 
ENDROOT
BRANCH   1   6
ATOM      6  S   UNL     1      -3.589  -6.915   3.161  0.00  0.00    -0.073 S 
BRANCH   6   7
ATOM      7  C   UNL     1      -2.298  -6.286   2.053  0.00  0.00    +0.139 C 
ATOM      8  C   UNL     1      -0.931  -6.780   2.531  0.00  0.00    +0.029 C 
BRANCH   7  10
ATOM      9  N   UNL     1      -1.844  -4.093   1.002  0.00  0.00    -0.206 N 
ATOM     10  C   UNL     1      -2.318  -4.779   2.061  0.00  0.00    +0.245 C 
ATOM     11  O   UNL     1      -2.761  -4.184   3.021  0.00  0.00    -0.273 OA
ATOM     12  H   UNL     1      -1.490  -4.569   0.235  0.00  0.00    +0.177 HD
BRANCH   9  14
ATOM     13  C   UNL     1      -1.413  -2.041   0.005  0.00  0.00    +0.034 C 
ATOM     14  N   UNL     1      -1.863  -2.692   1.010  0.00  0.00    -0.189 NA
ATOM     15  C   UNL     1      -0.863  -2.780  -1.188  0.00  0.00    +0.062 C 
BRANCH  13  16
ATOM     16  C   UNL     1      -1.433  -0.534   0.013  0.00  0.00    +0.052 C 
BRANCH  16  18
ATOM     17  C   UNL     1      -0.019   1.526   0.010  0.00  0.00    +0.004 C 
ATOM     18  C   UNL     1       0.002  -0.004   0.002  0.00  0.00    +0.002 C 
ENDBRANCH  16  18
ENDBRANCH  13  16
ENDBRANCH   9  14
ENDBRANCH   7  10
ENDBRANCH   6   7
ENDBRANCH   1   6
BRANCH   5  19
ATOM     19  C   UNL     1      -5.379  -9.331   4.537  0.00  0.00    +0.152 C 
BRANCH  19  20
ATOM     20  C   UNL     1      -6.694  -9.135   3.826  0.00  0.00    -0.013 C 
ATOM     21  C   UNL     1      -7.728  -9.872   4.147  0.00  0.00    +0.005 C 
ENDBRANCH  19  20
ENDBRANCH   5  19
BRANCH   4  22
ATOM     22  C   UNL     1      -4.501 -12.143   3.433  0.00  0.00    +0.178 C 
BRANCH  22  23
ATOM     23  N   UNL     1      -3.766 -12.685   4.579  0.00  0.00    -0.337 N 
ATOM     24  H   UNL     1      -3.035 -12.181   4.969  0.00  0.00    +0.147 HD
BRANCH  23  25
ATOM     25  C   UNL     1      -4.117 -13.930   5.108  0.00  0.00    +0.028 A 
ATOM     26  C   UNL     1      -5.159 -14.656   4.546  0.00  0.00    +0.024 A 
ATOM     27  C   UNL     1      -5.503 -15.886   5.072  0.00  0.00    +0.016 A 
ATOM     28  C   UNL     1      -4.812 -16.394   6.157  0.00  0.00    +0.013 A 
ATOM     29  C   UNL     1      -3.774 -15.673   6.719  0.00  0.00    +0.016 A 
ATOM     30  C   UNL     1      -3.421 -14.445   6.194  0.00  0.00    +0.024 A 
ATOM     31  I   UNL     1      -5.339 -18.260   6.951  0.00  0.00    -0.044 I 
ENDBRANCH  23  25
ENDBRANCH  22  23
ENDBRANCH   4  22
TORSDOF 11
