REMARK  Name = ZINC05680519
REMARK  5 active torsions:
REMARK  status: ('A' for Active; 'I' for Inactive)
REMARK    1  A    between atoms: C_1  and  C_2
REMARK    2  A    between atoms: C_6  and  N_9
REMARK    3  A    between atoms: C_7  and  C_8
REMARK    4  A    between atoms: C_10  and  C_12
REMARK    5  A    between atoms: C_12  and  N_13
REMARK                            x       y       z     vdW  Elec       q    Type
REMARK                         _______ _______ _______ _____ _____    ______ ____
ROOT
ATOM      1  N   UNL     1      -0.207  -6.335   3.410  0.00  0.00    -0.215 N 
ATOM      2  C   UNL     1      -1.361  -7.009   3.220  0.00  0.00    +0.251 C 
ATOM      3  O   UNL     1      -2.487  -6.559   3.243  0.00  0.00    -0.272 OA
ATOM      4  C   UNL     1      -0.953  -8.441   2.971  0.00  0.00    +0.139 C 
ATOM      5  C   UNL     1      -1.551  -9.368   4.018  0.00  0.00    +0.040 C 
ATOM      6  C   UNL     1      -1.273 -10.830   3.651  0.00  0.00    +0.008 C 
ATOM      7  C   UNL     1      -2.088 -11.190   2.400  0.00  0.00    +0.043 C 
ATOM      8  C   UNL     1      -1.893 -10.117   1.379  0.00  0.00    -0.005 A 
ATOM      9  C   UNL     1      -1.387  -8.868   1.579  0.00  0.00    -0.005 A 
ATOM     10  C   UNL     1      -1.301  -8.045   0.457  0.00  0.00    +0.014 A 
ATOM     11  C   UNL     1      -1.710  -8.499  -0.750  0.00  0.00    +0.046 A 
ATOM     12  S   UNL     1      -2.254 -10.154  -0.355  0.00  0.00    -0.101 S 
ATOM     13  N   UNL     1       0.510  -8.419   3.056  0.00  0.00    -0.281 N 
ATOM     14  C   UNL     1       0.857  -7.142   3.311  0.00  0.00    +0.310 C 
ATOM     15  O   UNL     1       2.005  -6.766   3.439  0.00  0.00    -0.252 OA
ATOM     16  H   UNL     1       1.110  -9.174   2.947  0.00  0.00    +0.152 HD
ENDROOT
BRANCH   1  17
ATOM     17  C   UNL     1      -0.129  -4.898   3.686  0.00  0.00    +0.214 C 
BRANCH  17  19
ATOM     18  N   UNL     1       0.052  -2.797   2.393  0.00  0.00    -0.284 N 
ATOM     19  C   UNL     1      -0.031  -4.143   2.385  0.00  0.00    +0.235 C 
ATOM     20  O   UNL     1      -0.028  -4.745   1.333  0.00  0.00    -0.274 OA
ATOM     21  H   UNL     1       0.130  -2.321   3.234  0.00  0.00    +0.155 HD
BRANCH  18  27
ATOM     22  C   UNL     1       1.206   1.236  -0.172  0.00  0.00    +0.044 C 
ATOM     23  C   UNL     1       0.577  -0.131  -0.084  0.00  0.00    -0.046 A 
ATOM     24  C   UNL     1      -0.027  -0.686  -1.198  0.00  0.00    +0.004 A 
ATOM     25  C   UNL     1      -0.605  -1.940  -1.122  0.00  0.00    +0.002 A 
ATOM     26  C   UNL     1      -0.580  -2.642   0.067  0.00  0.00    +0.023 A 
ATOM     27  C   UNL     1       0.026  -2.088   1.187  0.00  0.00    +0.037 A 
ATOM     28  C   UNL     1       0.610  -0.831   1.106  0.00  0.00    -0.026 A 
ATOM     29  C   UNL     1       1.274  -0.228   2.317  0.00  0.00    +0.046 C 
ENDBRANCH  18  27
ENDBRANCH  17  19
ENDBRANCH   1  17
TORSDOF 3
