REMARK  Name = ZINC57914521
REMARK  8 active torsions:
REMARK  status: ('A' for Active; 'I' for Inactive)
REMARK    1  A    between atoms: C_1  and  C_2
REMARK    2  A    between atoms: C_2  and  C_3
REMARK    3  A    between atoms: C_2  and  C_4
REMARK    4  A    between atoms: C_2  and  O_5
REMARK    5  A    between atoms: O_5  and  C_6
REMARK    6  A    between atoms: N_8  and  N_9
REMARK    7  A    between atoms: C_10  and  C_12
REMARK    8  A    between atoms: C_12  and  C_13
REMARK                            x       y       z     vdW  Elec       q    Type
REMARK                         _______ _______ _______ _____ _____    ______ ____
ROOT
ATOM      1  N   UNL     1       2.023  -1.296  -3.385  0.00  0.00    -0.232 N 
ATOM      2  C   UNL     1       2.712  -1.696  -4.472  0.00  0.00    +0.233 C 
ATOM      3  O   UNL     1       3.866  -1.354  -4.619  0.00  0.00    -0.274 OA
ATOM      4  H   UNL     1       1.100  -1.570  -3.267  0.00  0.00    +0.173 HD
ENDROOT
BRANCH   1   7
ATOM      5  C   UNL     1       1.952  -0.085  -1.337  0.00  0.00    +0.417 C 
ATOM      6  O   UNL     1       2.488   0.619  -0.503  0.00  0.00    -0.225 OA
ATOM      7  N   UNL     1       2.641  -0.485  -2.424  0.00  0.00    -0.200 N 
ATOM      8  H   UNL     1       3.564  -0.211  -2.541  0.00  0.00    +0.176 HD
BRANCH   5   9
ATOM      9  O   UNL     1       0.671  -0.465  -1.174  0.00  0.00    -0.444 OA
BRANCH   9  11
ATOM     10  C   UNL     1      -0.019   1.526   0.010  0.00  0.00    +0.055 C 
ATOM     11  C   UNL     1       0.002  -0.004   0.002  0.00  0.00    +0.107 C 
ATOM     12  C   UNL     1       0.742  -0.511   1.242  0.00  0.00    +0.055 C 
ATOM     13  C   UNL     1      -1.433  -0.534   0.013  0.00  0.00    +0.055 C 
ENDBRANCH   9  11
ENDBRANCH   5   9
ENDBRANCH   1   7
BRANCH   2  14
ATOM     14  C   UNL     1       2.047  -2.569  -5.505  0.00  0.00    +0.132 C 
BRANCH  14  15
ATOM     15  C   UNL     1       3.026  -2.872  -6.611  0.00  0.00    -0.034 A 
ATOM     16  C   UNL     1       3.112  -2.030  -7.705  0.00  0.00    +0.053 A 
ATOM     17  C   UNL     1       4.012  -2.311  -8.719  0.00  0.00    +0.164 A 
ATOM     18  C   UNL     1       4.824  -3.433  -8.637  0.00  0.00    +0.180 A 
ATOM     19  C   UNL     1       4.736  -4.274  -7.540  0.00  0.00    +0.086 A 
ATOM     20  C   UNL     1       3.837  -3.987  -6.526  0.00  0.00    +0.028 A 
ATOM     21 CL   UNL     1       5.750  -5.679  -7.435  0.00  0.00    -0.080 Cl
ATOM     22  O   UNL     1       5.709  -3.700  -9.641  0.00  0.00    -0.487 OA
ATOM     23  C   UNL     1       5.135  -4.077 -10.895  0.00  0.00    +0.232 C 
ATOM     24  C   UNL     1       4.757  -2.848 -11.706  0.00  0.00    +0.082 C 
ATOM     25  C   UNL     1       3.657  -2.034 -11.044  0.00  0.00    +0.232 C 
ATOM     26  O   UNL     1       4.108  -1.487  -9.803  0.00  0.00    -0.488 OA
ENDBRANCH  14  15
ENDBRANCH   2  14
TORSDOF 5
