REMARK  Name = ZINC26824067
REMARK  6 active torsions:
REMARK  status: ('A' for Active; 'I' for Inactive)
REMARK    1  A    between atoms: C_1  and  C_2
REMARK    2  A    between atoms: C_6  and  S_8
REMARK    3  A    between atoms: S_8  and  C_9
REMARK    4  A    between atoms: C_9  and  C_11
REMARK    5  A    between atoms: C_9  and  C_12
REMARK    6  A    between atoms: N_14  and  C_15
REMARK                            x       y       z     vdW  Elec       q    Type
REMARK                         _______ _______ _______ _____ _____    ______ ____
ROOT
ATOM      1  C   UNL     1      -1.152   1.684   0.018  0.00  0.00    +0.230 C 
ATOM      2  O   UNL     1      -1.108   2.893  -0.063  0.00  0.00    -0.274 OA
ATOM      3  N   UNL     1      -0.011   0.966   0.007  0.00  0.00    -0.282 N 
ATOM      4  H   UNL     1      -0.053  -0.133  -0.009  0.00  0.00    +0.155 HD
ENDROOT
BRANCH   3   5
ATOM      5  C   UNL     1       1.228   1.620   0.017  0.00  0.00    +0.072 A 
ATOM      6  C   UNL     1       1.334   2.901   0.540  0.00  0.00    +0.029 A 
ATOM      7  C   UNL     1       2.557   3.545   0.550  0.00  0.00    +0.043 A 
ATOM      8  C   UNL     1       3.678   2.914   0.039  0.00  0.00    +0.161 A 
ATOM      9  C   UNL     1       3.577   1.634  -0.484  0.00  0.00    +0.195 A 
ATOM     10  C   UNL     1       2.355   0.983  -0.491  0.00  0.00    +0.182 A 
ATOM     11  F   UNL     1       2.256  -0.266  -0.996  0.00  0.00    -0.200 F 
ATOM     12  F   UNL     1       4.672   1.020  -0.983  0.00  0.00    -0.199 F 
ATOM     13  F   UNL     1       4.872   3.546   0.051  0.00  0.00    -0.202 F 
ENDBRANCH   3   5
BRANCH   1  14
ATOM     14  C   UNL     1      -2.482   0.984   0.131  0.00  0.00    +0.137 C 
ATOM     15  C   UNL     1      -2.886   0.433  -1.238  0.00  0.00    +0.029 C 
BRANCH  14  16
ATOM     16  S   UNL     1      -3.735   2.158   0.703  0.00  0.00    -0.075 S 
BRANCH  16  22
ATOM     17  C   UNL     1      -8.639   1.346   1.919  0.00  0.00    +0.066 C 
ATOM     18  C   UNL     1      -7.324   0.775   1.455  0.00  0.00    +0.046 A 
ATOM     19  C   UNL     1      -7.206  -0.575   1.181  0.00  0.00    +0.093 A 
ATOM     20  C   UNL     1      -5.974  -1.060   0.743  0.00  0.00    +0.252 A 
ATOM     21  N   UNL     1      -4.960  -0.214   0.605  0.00  0.00    -0.302 N 
ATOM     22  C   UNL     1      -5.110   1.072   0.887  0.00  0.00    +0.170 A 
ATOM     23  N   UNL     1      -6.269   1.561   1.305  0.00  0.00    -0.228 NA
ATOM     24  O   UNL     1      -5.816  -2.375   0.459  0.00  0.00    -0.268 OA
ATOM     25  H   UNL     1      -3.989  -0.591   0.252  0.00  0.00    +0.171 HD
ENDBRANCH  16  22
ENDBRANCH  14  16
ENDBRANCH   1  14
TORSDOF 4
