REMARK  Name = ZINC40568839
REMARK  8 active torsions:
REMARK  status: ('A' for Active; 'I' for Inactive)
REMARK    1  A    between atoms: C_1  and  C_2
REMARK    2  A    between atoms: C_2  and  C_3
REMARK    3  A    between atoms: C_2  and  C_4
REMARK    4  A    between atoms: C_2  and  C_5
REMARK    5  A    between atoms: C_12  and  N_28
REMARK    6  A    between atoms: C_13  and  C_24
REMARK    7  A    between atoms: C_24  and  O_26
REMARK    8  A    between atoms: O_26  and  C_27
REMARK                            x       y       z     vdW  Elec       q    Type
REMARK                         _______ _______ _______ _____ _____    ______ ____
ROOT
ATOM      1  C   UNL     1      -0.163  -0.227  -1.648  0.00  0.00    +0.077 A 
ATOM      2  C   UNL     1      -0.619  -1.429  -2.173  0.00  0.00    +0.062 A 
ATOM      3  C   UNL     1      -0.204  -1.507  -3.475  0.00  0.00    +0.223 A 
ATOM      4  N   UNL     1       0.489  -0.390  -3.747  0.00  0.00    -0.246 N 
ATOM      5  H   UNL     1       0.905  -0.169  -4.595  0.00  0.00    +0.192 HD
ATOM      6  N   UNL     1       0.498   0.404  -2.589  0.00  0.00    -0.175 NA
ATOM      7  O   UNL     1      -0.491  -2.567  -4.271  0.00  0.00    -0.424 OA
ATOM      8  C   UNL     1      -1.425  -3.440  -3.848  0.00  0.00    +0.198 C 
ATOM      9  C   UNL     1      -1.908  -3.470  -2.580  0.00  0.00    +0.117 C 
ATOM     10  C   UNL     1      -1.427  -2.515  -1.522  0.00  0.00    +0.142 C 
ATOM     11  C   UNL     1      -0.637  -3.223  -0.468  0.00  0.00    -0.002 A 
ATOM     12  C   UNL     1       0.532  -3.950  -0.534  0.00  0.00    +0.007 A 
ATOM     13  C   UNL     1       1.010  -4.486   0.657  0.00  0.00    +0.000 A 
ATOM     14  C   UNL     1       0.343  -4.296   1.849  0.00  0.00    +0.002 A 
ATOM     15  C   UNL     1      -0.834  -3.567   1.924  0.00  0.00    +0.023 A 
ATOM     16  C   UNL     1      -1.325  -3.024   0.736  0.00  0.00    +0.038 A 
ATOM     17  N   UNL     1      -2.462  -2.265   0.520  0.00  0.00    -0.284 N 
ATOM     18  C   UNL     1      -2.603  -1.922  -0.778  0.00  0.00    +0.237 C 
ATOM     19  O   UNL     1      -3.502  -1.264  -1.257  0.00  0.00    -0.274 OA
ATOM     20  H   UNL     1      -3.084  -2.010   1.219  0.00  0.00    +0.155 HD
ENDROOT
BRANCH   1  22
ATOM     21  C   UNL     1       0.132   1.700  -0.116  0.00  0.00    +0.017 C 
ATOM     22  C   UNL     1      -0.392   0.268  -0.244  0.00  0.00    +0.007 C 
ATOM     23  C   UNL     1       0.349  -0.636   0.743  0.00  0.00    +0.017 C 
ATOM     24  C   UNL     1      -1.890   0.244   0.067  0.00  0.00    +0.017 C 
ENDBRANCH   1  22
BRANCH   8  25
ATOM     25  N   UNL     1      -1.917  -4.348  -4.748  0.00  0.00    -0.329 N 
ATOM     26  H   UNL     1      -1.658  -4.294  -5.681  0.00  0.00    +0.145 HD
ATOM     27  H   UNL     1      -2.523  -5.044  -4.452  0.00  0.00    +0.145 HD
ENDBRANCH   8  25
BRANCH   9  28
ATOM     28  C   UNL     1      -2.883  -4.420  -2.246  0.00  0.00    +0.341 C 
ATOM     29  O   UNL     1      -2.569  -5.426  -1.633  0.00  0.00    -0.245 OA
BRANCH  28  30
ATOM     30  O   UNL     1      -4.170  -4.222  -2.603  0.00  0.00    -0.465 OA
ATOM     31  C   UNL     1      -5.110  -5.231  -2.230  0.00  0.00    +0.280 C 
ENDBRANCH  28  30
ENDBRANCH   9  28
TORSDOF 4
