REMARK  Name = ZINC09153839
REMARK  7 active torsions:
REMARK  status: ('A' for Active; 'I' for Inactive)
REMARK    1  A    between atoms: C_1  and  C_2
REMARK    2  A    between atoms: C_6  and  N_9
REMARK    3  A    between atoms: C_7  and  C_8
REMARK    4  A    between atoms: C_15  and  C_17
REMARK    5  A    between atoms: C_18  and  C_34
REMARK    6  A    between atoms: N_20  and  C_27
REMARK    7  A    between atoms: C_21  and  N_22
REMARK                            x       y       z     vdW  Elec       q    Type
REMARK                         _______ _______ _______ _____ _____    ______ ____
ROOT
ATOM      1  C   UNL     1      -3.479   1.873   0.821  0.00  0.00    +0.102 A 
ATOM      2  C   UNL     1      -4.632   1.127   0.485  0.00  0.00    +0.075 A 
ATOM      3  N   UNL     1      -4.307   0.271  -0.443  0.00  0.00    -0.169 NA
ATOM      4  N   UNL     1      -2.951   0.421  -0.753  0.00  0.00    -0.215 N 
ATOM      5  C   UNL     1      -2.443   1.406   0.019  0.00  0.00    +0.154 A 
ATOM      6  C   UNL     1      -5.999   1.289   1.099  0.00  0.00    +0.068 C 
ENDROOT
BRANCH   1  13
ATOM      7  N   UNL     1      -1.504   2.188   5.356  0.00  0.00    -0.327 N 
ATOM      8  C   UNL     1      -1.641   3.559   4.847  0.00  0.00    +0.124 C 
ATOM      9  C   UNL     1      -2.984   3.700   4.122  0.00  0.00    +0.127 C 
ATOM     10  N   UNL     1      -3.076   2.645   3.101  0.00  0.00    -0.294 N 
ATOM     11  C   UNL     1      -2.821   1.256   3.511  0.00  0.00    +0.127 C 
ATOM     12  C   UNL     1      -1.479   1.212   4.259  0.00  0.00    +0.124 C 
ATOM     13  C   UNL     1      -3.392   2.943   1.825  0.00  0.00    +0.252 C 
ATOM     14  O   UNL     1      -3.605   4.097   1.505  0.00  0.00    -0.270 OA
BRANCH   7  20
ATOM     15  C   UNL     1       0.488   1.135   9.724  0.00  0.00    +0.044 C 
ATOM     16  C   UNL     1       0.626   1.556   8.284  0.00  0.00    -0.046 A 
ATOM     17  C   UNL     1       1.877   1.821   7.758  0.00  0.00    +0.004 A 
ATOM     18  C   UNL     1       2.009   2.207   6.437  0.00  0.00    +0.002 A 
ATOM     19  C   UNL     1       0.889   2.330   5.637  0.00  0.00    +0.023 A 
ATOM     20  C   UNL     1      -0.369   2.065   6.162  0.00  0.00    +0.033 A 
ATOM     21  C   UNL     1      -0.498   1.682   7.491  0.00  0.00    -0.027 A 
ATOM     22  C   UNL     1      -1.862   1.400   8.066  0.00  0.00    +0.046 C 
ENDBRANCH   7  20
ENDBRANCH   1  13
BRANCH   4  23
ATOM     23  C   UNL     1      -2.240  -0.324  -1.704  0.00  0.00    +0.068 A 
ATOM     24  C   UNL     1      -1.237   0.279  -2.451  0.00  0.00    +0.030 A 
ATOM     25  C   UNL     1      -0.533  -0.458  -3.383  0.00  0.00    +0.040 A 
ATOM     26  C   UNL     1      -0.836  -1.795  -3.581  0.00  0.00    +0.124 A 
ATOM     27  C   UNL     1      -1.839  -2.397  -2.841  0.00  0.00    +0.040 A 
ATOM     28  C   UNL     1      -2.541  -1.664  -1.904  0.00  0.00    +0.030 A 
ATOM     29  F   UNL     1      -0.150  -2.513  -4.498  0.00  0.00    -0.205 F 
ENDBRANCH   4  23
BRANCH   5  30
ATOM     30  N   UNL     1      -1.131   1.863   0.017  0.00  0.00    -0.307 N 
ATOM     31  C   UNL     1      -0.013   1.076   0.008  0.00  0.00    +0.092 A 
ATOM     32  C   UNL     1       1.068   1.881   0.002  0.00  0.00    +0.019 A 
ATOM     33  C   UNL     1       0.605   3.213   0.014  0.00  0.00    +0.019 A 
ATOM     34  C   UNL     1      -0.742   3.173   0.026  0.00  0.00    +0.092 A 
ENDBRANCH   5  30
TORSDOF 4
