REMARK  Name = ZINC19557814
REMARK  7 active torsions:
REMARK  status: ('A' for Active; 'I' for Inactive)
REMARK    1  A    between atoms: C_1  and  O_2
REMARK    2  A    between atoms: O_2  and  C_3
REMARK    3  A    between atoms: C_6  and  C_9
REMARK    4  A    between atoms: C_10  and  C_19
REMARK    5  A    between atoms: C_19  and  N_20
REMARK    6  A    between atoms: C_23  and  C_26
REMARK    7  A    between atoms: C_23  and  O_33
REMARK                            x       y       z     vdW  Elec       q    Type
REMARK                         _______ _______ _______ _____ _____    ______ ____
ROOT
ATOM      1  C   UNL     1       0.002  -0.004   0.002  0.00  0.00    +0.050 A 
ATOM      2  C   UNL     1      -0.782  -0.793  -0.774  0.00  0.00    -0.029 A 
ATOM      3  C   UNL     1      -0.430  -2.176  -0.463  0.00  0.00    +0.021 A 
ATOM      4  C   UNL     1      -0.873  -3.421  -0.922  0.00  0.00    +0.013 A 
ATOM      5  C   UNL     1      -0.299  -4.555  -0.380  0.00  0.00    +0.020 A 
ATOM      6  C   UNL     1       0.684  -4.424   0.589  0.00  0.00    +0.113 A 
ATOM      7  N   UNL     1       1.088  -3.243   1.007  0.00  0.00    -0.237 NA
ATOM      8  C   UNL     1       0.575  -2.120   0.524  0.00  0.00    +0.139 A 
ATOM      9  N   UNL     1       0.815  -0.791   0.785  0.00  0.00    -0.339 N 
ATOM     10  H   UNL     1       1.521  -0.325   1.488  0.00  0.00    +0.167 HD
ENDROOT
BRANCH   1  14
ATOM     11  C   UNL     1      -0.056   4.245   0.025  0.00  0.00    +0.120 A 
ATOM     12  C   UNL     1       1.157   3.569   0.010  0.00  0.00    +0.046 A 
ATOM     13  C   UNL     1       1.180   2.190   0.003  0.00  0.00    +0.013 A 
ATOM     14  C   UNL     1      -0.018   1.474   0.010  0.00  0.00    -0.001 A 
ATOM     15  C   UNL     1      -1.235   2.158   0.020  0.00  0.00    +0.013 A 
ATOM     16  C   UNL     1      -1.250   3.536   0.033  0.00  0.00    +0.046 A 
BRANCH  11  18
ATOM     17  C   UNL     1      -1.356   6.235   0.048  0.00  0.00    +0.277 C 
ATOM     18  O   UNL     1      -0.074   5.603   0.033  0.00  0.00    -0.495 OA
ENDBRANCH  11  18
ENDBRANCH   1  14
BRANCH   2  19
ATOM     19  C   UNL     1      -1.815  -0.331  -1.770  0.00  0.00    -0.040 C 
BRANCH  19  20
ATOM     20  N   UNL     1      -1.186  -0.163  -3.086  0.00  0.00    +0.383 N 
ATOM     21  C   UNL     1      -0.203   0.928  -3.064  0.00  0.00    -0.075 C 
ATOM     22  C   UNL     1       0.534   0.980  -4.404  0.00  0.00    +0.021 C 
ATOM     23  C   UNL     1      -0.479   1.204  -5.530  0.00  0.00    +0.088 C 
ATOM     24  C   UNL     1      -1.520   0.081  -5.501  0.00  0.00    +0.021 C 
ATOM     25  C   UNL     1      -2.197   0.055  -4.129  0.00  0.00    -0.075 C 
ATOM     26  H   UNL     1      -0.650  -1.092  -3.328  0.00  0.00    -0.081 HD
BRANCH  23  27
ATOM     27  C   UNL     1       0.232   1.197  -6.858  0.00  0.00    -0.016 A 
ATOM     28  C   UNL     1       0.400   0.009  -7.546  0.00  0.00    +0.009 A 
ATOM     29  C   UNL     1       1.048   0.003  -8.766  0.00  0.00    +0.039 A 
ATOM     30  C   UNL     1       1.538   1.184  -9.296  0.00  0.00    +0.123 A 
ATOM     31  C   UNL     1       1.374   2.372  -8.604  0.00  0.00    +0.039 A 
ATOM     32  C   UNL     1       0.721   2.377  -7.386  0.00  0.00    +0.009 A 
ATOM     33  F   UNL     1       2.176   1.178 -10.487  0.00  0.00    -0.205 F 
ENDBRANCH  23  27
BRANCH  23  34
ATOM     34  O   UNL     1      -1.130   2.462  -5.343  0.00  0.00    -0.384 OA
ATOM     35  H   UNL     1      -1.896   2.797  -6.059  0.00  0.00    +0.211 HD
ENDBRANCH  23  34
ENDBRANCH  19  20
ENDBRANCH   2  19
TORSDOF 6
