REMARK  Name = ZINC63490621
REMARK  8 active torsions:
REMARK  status: ('A' for Active; 'I' for Inactive)
REMARK    1  A    between atoms: C_1  and  C_2
REMARK    2  A    between atoms: C_8  and  N_10
REMARK    3  A    between atoms: C_11  and  C_13
REMARK    4  A    between atoms: C_13  and  C_14
REMARK    5  A    between atoms: C_14  and  C_15
REMARK    6  A    between atoms: C_15  and  N_16
REMARK    7  A    between atoms: C_24  and  O_31
REMARK    8  A    between atoms: O_31  and  C_32
REMARK                            x       y       z     vdW  Elec       q    Type
REMARK                         _______ _______ _______ _____ _____    ______ ____
ROOT
ATOM      1  N   UNL     1       1.261   1.187   8.376  0.00  0.00    -0.247 N 
ATOM      2  C   UNL     1       1.428   0.097   9.159  0.00  0.00    +0.272 C 
ATOM      3  O   UNL     1       0.804  -0.927   8.959  0.00  0.00    -0.268 OA
ATOM      4  C   UNL     1       2.397   0.202  10.267  0.00  0.00    +0.150 C 
ATOM      5  N   UNL     1       2.820  -0.600  11.204  0.00  0.00    -0.240 NA
ATOM      6  C   UNL     1       3.742  -0.034  12.007  0.00  0.00    +0.074 A 
ATOM      7  C   UNL     1       4.444  -0.533  13.114  0.00  0.00    +0.032 A 
ATOM      8  C   UNL     1       5.353   0.266  13.777  0.00  0.00    +0.048 A 
ATOM      9  C   UNL     1       5.585   1.569  13.359  0.00  0.00    +0.121 A 
ATOM     10  C   UNL     1       4.897   2.085  12.257  0.00  0.00    +0.057 A 
ATOM     11  C   UNL     1       3.985   1.296  11.586  0.00  0.00    +0.029 A 
ATOM     12  C   UNL     1       3.103   1.500  10.419  0.00  0.00    +0.095 C 
ATOM     13  N   UNL     1       2.840   2.467   9.585  0.00  0.00    -0.190 NA
ATOM     14  C   UNL     1       1.952   2.316   8.592  0.00  0.00    +0.164 C 
ATOM     15  S   UNL     1       1.680   3.642   7.544  0.00  0.00    -0.016 S 
ENDROOT
BRANCH   9  16
ATOM     16  O   UNL     1       6.481   2.343  14.021  0.00  0.00    -0.495 OA
ATOM     17  C   UNL     1       7.149   1.752  15.138  0.00  0.00    +0.277 C 
ENDBRANCH   9  16
BRANCH   1  18
ATOM     18  C   UNL     1       0.310   1.131   7.263  0.00  0.00    +0.116 C 
BRANCH  18  19
ATOM     19  C   UNL     1       1.026   0.638   6.004  0.00  0.00    +0.029 C 
BRANCH  19  20
ATOM     20  C   UNL     1       0.033   0.579   4.842  0.00  0.00    +0.097 C 
BRANCH  20  22
ATOM     21  N   UNL     1       0.056  -0.038   2.447  0.00  0.00    -0.312 N 
ATOM     22  C   UNL     1       0.738   0.093   3.602  0.00  0.00    +0.213 C 
ATOM     23  O   UNL     1       1.919  -0.179   3.644  0.00  0.00    -0.276 OA
ATOM     24  H   UNL     1      -0.888   0.180   2.413  0.00  0.00    +0.149 HD
BRANCH  21  31
ATOM     25  C   UNL     1      -0.019   1.526   0.010  0.00  0.00    +0.009 C 
ATOM     26  C   UNL     1       0.002  -0.004   0.002  0.00  0.00    +0.006 C 
ATOM     27  C   UNL     1       0.718  -0.497  -1.257  0.00  0.00    +0.005 C 
ATOM     28  C   UNL     1       0.739  -2.027  -1.265  0.00  0.00    +0.000 C 
ATOM     29  C   UNL     1       1.479  -2.534  -0.026  0.00  0.00    +0.002 C 
ATOM     30  C   UNL     1       0.763  -2.041   1.233  0.00  0.00    +0.022 C 
ATOM     31  C   UNL     1       0.742  -0.511   1.242  0.00  0.00    +0.076 C 
ENDBRANCH  21  31
ENDBRANCH  20  22
ENDBRANCH  19  20
ENDBRANCH  18  19
ENDBRANCH   1  18
TORSDOF 6
