REMARK  Name = ZINC22665764
REMARK  10 active torsions:
REMARK  status: ('A' for Active; 'I' for Inactive)
REMARK    1  A    between atoms: C_1  and  C_2
REMARK    2  A    between atoms: C_2  and  C_3
REMARK    3  A    between atoms: C_4  and  C_34
REMARK    4  A    between atoms: C_9  and  S_21
REMARK    5  A    between atoms: N_10  and  C_13
REMARK    6  A    between atoms: C_13  and  C_14
REMARK    7  A    between atoms: C_17  and  C_20
REMARK    8  A    between atoms: S_21  and  C_22
REMARK    9  A    between atoms: C_22  and  C_23
REMARK   10  A    between atoms: C_28  and  C_31
REMARK                            x       y       z     vdW  Elec       q    Type
REMARK                         _______ _______ _______ _____ _____    ______ ____
ROOT
ATOM      1  C   UNL     1      -0.749   3.086   1.275  0.00  0.00    -0.005 A 
ATOM      2  C   UNL     1      -1.675   3.907   0.757  0.00  0.00    -0.026 A 
ATOM      3  C   UNL     1      -1.498   5.344   0.882  0.00  0.00    +0.075 A 
ATOM      4  C   UNL     1      -0.324   5.742   1.550  0.00  0.00    +0.117 A 
ATOM      5  S   UNL     1       0.455   4.203   1.969  0.00  0.00    -0.073 S 
ATOM      6  N   UNL     1      -0.020   7.020   1.738  0.00  0.00    -0.216 NA
ATOM      7  C   UNL     1      -0.815   7.976   1.302  0.00  0.00    +0.173 A 
ATOM      8  N   UNL     1      -1.973   7.678   0.645  0.00  0.00    -0.283 N 
ATOM      9  C   UNL     1      -2.341   6.403   0.421  0.00  0.00    +0.264 A 
ATOM     10  O   UNL     1      -3.379   6.154  -0.168  0.00  0.00    -0.267 OA
ATOM     11  C   UNL     1      -2.886   3.346   0.058  0.00  0.00    +0.045 C 
ENDROOT
BRANCH   1  13
ATOM     12  C   UNL     1      -0.013   1.086   0.008  0.00  0.00    +0.009 C 
ATOM     13  C   UNL     1      -0.729   1.579   1.267  0.00  0.00    +0.039 C 
ENDBRANCH   1  13
BRANCH   8  14
ATOM     14  C   UNL     1      -2.833   8.767   0.174  0.00  0.00    +0.162 C 
BRANCH  14  15
ATOM     15  C   UNL     1      -3.826   9.125   1.250  0.00  0.00    -0.028 A 
ATOM     16  C   UNL     1      -5.054   8.492   1.294  0.00  0.00    +0.005 A 
ATOM     17  C   UNL     1      -5.963   8.817   2.283  0.00  0.00    +0.004 A 
ATOM     18  C   UNL     1      -5.648   9.781   3.223  0.00  0.00    -0.050 A 
ATOM     19  C   UNL     1      -4.422  10.417   3.175  0.00  0.00    +0.004 A 
ATOM     20  C   UNL     1      -3.511  10.089   2.188  0.00  0.00    +0.005 A 
ATOM     21  C   UNL     1      -6.641  10.138   4.299  0.00  0.00    +0.044 C 
ENDBRANCH  14  15
ENDBRANCH   8  14
BRANCH   7  22
ATOM     22  S   UNL     1      -0.377   9.661   1.572  0.00  0.00    -0.078 S 
BRANCH  22  23
ATOM     23  C   UNL     1       1.189   9.442   2.452  0.00  0.00    +0.173 C 
BRANCH  23  24
ATOM     24  C   UNL     1       1.766  10.791   2.795  0.00  0.00    +0.226 C 
ATOM     25  O   UNL     1       1.176  11.802   2.476  0.00  0.00    -0.275 OA
ATOM     26  N   UNL     1       2.937  10.875   3.457  0.00  0.00    -0.301 N 
ATOM     27  C   UNL     1       3.660   9.660   3.856  0.00  0.00    +0.108 C 
ATOM     28  C   UNL     1       3.950   9.723   5.355  0.00  0.00    +0.032 C 
ATOM     29  C   UNL     1       4.685  11.026   5.676  0.00  0.00    +0.078 C 
ATOM     30  C   UNL     1       3.800  12.218   5.303  0.00  0.00    +0.032 C 
ATOM     31  C   UNL     1       3.512  12.184   3.798  0.00  0.00    +0.108 C 
BRANCH  29  32
ATOM     32  C   UNL     1       4.999  11.076   7.149  0.00  0.00    +0.214 C 
ATOM     33  O   UNL     1       4.559  11.976   7.833  0.00  0.00    -0.276 OA
ATOM     34  N   UNL     1       5.769  10.120   7.706  0.00  0.00    -0.329 N 
ATOM     35  H   UNL     1       5.998  10.156   8.782  0.00  0.00    +0.145 HD
ATOM     36  H   UNL     1       6.168   9.304   7.086  0.00  0.00    +0.145 HD
ENDBRANCH  29  32
ENDBRANCH  23  24
ENDBRANCH  22  23
ENDBRANCH   7  22
TORSDOF 7
