REMARK  Name = ZINC10217735
REMARK  13 active torsions:
REMARK  status: ('A' for Active; 'I' for Inactive)
REMARK    1  A    between atoms: C_1  and  C_2
REMARK    2  A    between atoms: C_2  and  N_3
REMARK    3  A    between atoms: C_4  and  C_31
REMARK    4  A    between atoms: C_6  and  O_30
REMARK    5  A    between atoms: C_7  and  C_10
REMARK    6  A    between atoms: C_10  and  C_11
REMARK    7  A    between atoms: C_10  and  C_19
REMARK    8  A    between atoms: C_14  and  O_17
REMARK    9  A    between atoms: O_17  and  C_18
REMARK   10  A    between atoms: C_20  and  O_29
REMARK   11  A    between atoms: C_22  and  C_28
REMARK   12  A    between atoms: N_23  and  C_26
REMARK   13  A    between atoms: C_26  and  C_27
REMARK                            x       y       z     vdW  Elec       q    Type
REMARK                         _______ _______ _______ _____ _____    ______ ____
ROOT
ATOM      1  C   UNL     1       3.759   3.103  -2.565  0.00  0.00    +0.097 C 
ENDROOT
BRANCH   1   6
ATOM      2  N   UNL     1       2.257   3.319   0.873  0.00  0.00    -0.312 N 
ATOM      3  C   UNL     1       1.426   2.244   0.891  0.00  0.00    +0.022 A 
ATOM      4  C   UNL     1       1.316   1.435  -0.185  0.00  0.00    +0.067 A 
ATOM      5  C   UNL     1       2.080   1.698  -1.340  0.00  0.00    +0.128 A 
ATOM      6  C   UNL     1       2.927   2.791  -1.348  0.00  0.00    +0.070 A 
ATOM      7  C   UNL     1       3.002   3.603  -0.211  0.00  0.00    +0.259 A 
ATOM      8  O   UNL     1       3.746   4.572  -0.202  0.00  0.00    -0.267 OA
ATOM      9  C   UNL     1       0.611   1.954   2.125  0.00  0.00    +0.064 C 
BRANCH   2  11
ATOM     10  C   UNL     1       1.397   5.368   1.896  0.00  0.00    +0.027 C 
ATOM     11  C   UNL     1       2.347   4.179   2.056  0.00  0.00    +0.122 C 
ENDBRANCH   2  11
BRANCH   5  12
ATOM     12  O   UNL     1       1.986   0.893  -2.425  0.00  0.00    -0.506 OA
ATOM     13  H   UNL     1       1.366   0.158  -2.317  0.00  0.00    +0.292 HD
ENDBRANCH   5  12
ENDBRANCH   1   6
BRANCH   1  14
ATOM     14  C   UNL     1       3.123   4.234  -3.332  0.00  0.00    +0.070 A 
ATOM     15  C   UNL     1       3.874   5.331  -3.712  0.00  0.00    +0.128 A 
ATOM     16  C   UNL     1       3.249   6.370  -4.431  0.00  0.00    +0.067 A 
ATOM     17  C   UNL     1       1.935   6.284  -4.728  0.00  0.00    +0.022 A 
ATOM     18  N   UNL     1       1.203   5.205  -4.347  0.00  0.00    -0.312 N 
ATOM     19  C   UNL     1       1.764   4.191  -3.663  0.00  0.00    +0.259 A 
ATOM     20  O   UNL     1       1.086   3.231  -3.330  0.00  0.00    -0.267 OA
ATOM     21  C   UNL     1       1.271   7.401  -5.492  0.00  0.00    +0.064 C 
BRANCH  18  22
ATOM     22  C   UNL     1      -0.221   5.144  -4.686  0.00  0.00    +0.122 C 
ATOM     23  C   UNL     1      -0.402   4.370  -5.993  0.00  0.00    +0.027 C 
ENDBRANCH  18  22
BRANCH  15  24
ATOM     24  O   UNL     1       5.191   5.405  -3.401  0.00  0.00    -0.506 OA
ATOM     25  H   UNL     1       5.623   6.212  -3.712  0.00  0.00    +0.292 HD
ENDBRANCH  15  24
ENDBRANCH   1  14
BRANCH   1  26
ATOM     26  C   UNL     1       3.838   1.882  -3.446  0.00  0.00    -0.035 A 
ATOM     27  C   UNL     1       4.633   0.814  -3.074  0.00  0.00    +0.008 A 
ATOM     28  C   UNL     1       4.703  -0.309  -3.876  0.00  0.00    +0.046 A 
ATOM     29  C   UNL     1       3.984  -0.358  -5.062  0.00  0.00    +0.120 A 
ATOM     30  C   UNL     1       3.192   0.717  -5.435  0.00  0.00    +0.046 A 
ATOM     31  C   UNL     1       3.121   1.835  -4.627  0.00  0.00    +0.008 A 
BRANCH  29  32
ATOM     32  O   UNL     1       4.055  -1.459  -5.856  0.00  0.00    -0.495 OA
ATOM     33  C   UNL     1       4.891  -2.529  -5.408  0.00  0.00    +0.277 C 
ENDBRANCH  29  32
ENDBRANCH   1  26
TORSDOF 8
