REMARK  Name = ZINC01849810
REMARK  10 active torsions:
REMARK  status: ('A' for Active; 'I' for Inactive)
REMARK    1  A    between atoms: C_1  and  C_2
REMARK    2  A    between atoms: C_2  and  C_32
REMARK    3  A    between atoms: C_3  and  C_4
REMARK    4  A    between atoms: C_4  and  C_5
REMARK    5  A    between atoms: C_7  and  C_13
REMARK    6  A    between atoms: C_8  and  O_12
REMARK    7  A    between atoms: C_10  and  O_11
REMARK    8  A    between atoms: C_21  and  O_25
REMARK    9  A    between atoms: C_28  and  C_30
REMARK   10  A    between atoms: C_28  and  C_31
REMARK                            x       y       z     vdW  Elec       q    Type
REMARK                         _______ _______ _______ _____ _____    ______ ____
ROOT
ATOM      1  C   UNL     1      -2.304   3.434  -0.797  0.00  0.00    +0.131 C 
ATOM      2  C   UNL     1      -2.117   4.903  -1.130  0.00  0.00    +0.245 C 
ATOM      3  O   UNL     1      -0.845   5.400  -0.766  0.00  0.00    -0.490 OA
ATOM      4  C   UNL     1       0.279   4.689  -0.986  0.00  0.00    +0.138 A 
ATOM      5  C   UNL     1       1.509   5.330  -1.000  0.00  0.00    +0.092 A 
ATOM      6  C   UNL     1       2.671   4.607  -1.202  0.00  0.00    +0.136 A 
ATOM      7  C   UNL     1       2.617   3.215  -1.393  0.00  0.00    +0.059 A 
ATOM      8  C   UNL     1       1.392   2.555  -1.389  0.00  0.00    +0.141 A 
ATOM      9  C   UNL     1       0.216   3.297  -1.193  0.00  0.00    +0.102 A 
ATOM     10  C   UNL     1      -1.090   2.640  -1.203  0.00  0.00    +0.181 C 
ATOM     11  O   UNL     1      -1.195   1.478  -1.537  0.00  0.00    -0.291 OA
ATOM     12  C   UNL     1       3.885   2.482  -1.595  0.00  0.00    +0.015 C 
ATOM     13  C   UNL     1       5.021   3.094  -1.266  0.00  0.00    +0.020 C 
ATOM     14  C   UNL     1       4.989   4.486  -0.694  0.00  0.00    +0.124 C 
ATOM     15  O   UNL     1       3.882   5.219  -1.220  0.00  0.00    -0.481 OA
ATOM     16  C   UNL     1       4.862   4.404   0.828  0.00  0.00    +0.060 C 
ATOM     17  C   UNL     1       6.288   5.210  -1.054  0.00  0.00    +0.060 C 
ENDROOT
BRANCH   1  20
ATOM     18  C   UNL     1      -1.736   3.563   2.933  0.00  0.00    -0.002 A 
ATOM     19  C   UNL     1      -1.538   3.691   1.571  0.00  0.00    +0.015 A 
ATOM     20  C   UNL     1      -2.521   3.288   0.688  0.00  0.00    +0.008 A 
ATOM     21  C   UNL     1      -3.705   2.744   1.165  0.00  0.00    +0.124 A 
ATOM     22  C   UNL     1      -3.904   2.611   2.530  0.00  0.00    +0.091 A 
ATOM     23  C   UNL     1      -2.919   3.021   3.416  0.00  0.00    +0.124 A 
BRANCH  23  24
ATOM     24  O   UNL     1      -3.111   2.891   4.755  0.00  0.00    -0.506 OA
ATOM     25  H   UNL     1      -2.807   2.047   5.116  0.00  0.00    +0.292 HD
ENDBRANCH  23  24
BRANCH  21  26
ATOM     26  O   UNL     1      -4.669   2.344   0.295  0.00  0.00    -0.506 OA
ATOM     27  H   UNL     1      -4.589   1.421   0.016  0.00  0.00    +0.292 HD
ENDBRANCH  21  26
BRANCH  18  28
ATOM     28  C   UNL     1      -0.665   4.009   3.895  0.00  0.00    +0.066 C 
BRANCH  28  31
ATOM     29  C   UNL     1       1.233   6.095   3.849  0.00  0.00    +0.038 C 
ATOM     30  C   UNL     1      -0.159   6.351   4.366  0.00  0.00    -0.079 C 
ATOM     31  C   UNL     1      -1.019   5.366   4.447  0.00  0.00    -0.023 C 
ATOM     32  C   UNL     1      -0.562   7.740   4.790  0.00  0.00    +0.038 C 
ENDBRANCH  28  31
ENDBRANCH  18  28
ENDBRANCH   1  20
BRANCH   8  33
ATOM     33  O   UNL     1       1.335   1.214  -1.570  0.00  0.00    -0.505 OA
ATOM     34  H   UNL     1       1.249   0.945  -2.495  0.00  0.00    +0.292 HD
ENDBRANCH   8  33
TORSDOF 6
