REMARK  Name = ZINC12990203
REMARK  7 active torsions:
REMARK  status: ('A' for Active; 'I' for Inactive)
REMARK    1  A    between atoms: C_1  and  C_2
REMARK    2  A    between atoms: C_15  and  C_17
REMARK    3  A    between atoms: C_17  and  N_18
REMARK    4  A    between atoms: N_18  and  C_19
REMARK    5  A    between atoms: C_20  and  C_22
REMARK    6  A    between atoms: C_22  and  O_23
REMARK    7  A    between atoms: O_23  and  C_24
REMARK                            x       y       z     vdW  Elec       q    Type
REMARK                         _______ _______ _______ _____ _____    ______ ____
ROOT
ATOM      1  C   UNL     1       1.838   2.109  -1.414  0.00  0.00    +0.029 C 
ATOM      2  C   UNL     1       1.256   2.120   0.001  0.00  0.00    +0.087 C 
ATOM      3  C   UNL     1       2.240   1.448   0.960  0.00  0.00    +0.118 C 
ATOM      4  C   UNL     1       1.547   1.092   2.249  0.00  0.00    +0.219 C 
ATOM      5  O   UNL     1       1.740   1.762   3.242  0.00  0.00    -0.275 OA
ATOM      6  N   UNL     1       0.711   0.033   2.306  0.00  0.00    -0.284 N 
ATOM      7  C   UNL     1       0.403  -0.691   1.148  0.00  0.00    +0.055 A 
ATOM      8  C   UNL     1       0.458  -2.075   1.141  0.00  0.00    +0.025 A 
ATOM      9  C   UNL     1       0.096  -2.772   0.002  0.00  0.00    +0.002 A 
ATOM     10  C   UNL     1      -0.320  -2.091  -1.128  0.00  0.00    +0.002 A 
ATOM     11  C   UNL     1      -0.367  -0.709  -1.131  0.00  0.00    +0.025 A 
ATOM     12  C   UNL     1       0.002  -0.004   0.002  0.00  0.00    +0.058 A 
ATOM     13  N   UNL     1      -0.017   1.397   0.010  0.00  0.00    -0.265 N 
ATOM     14  C   UNL     1      -1.186   2.068   0.019  0.00  0.00    +0.237 C 
ATOM     15  O   UNL     1      -1.190   3.281   0.025  0.00  0.00    -0.274 OA
ATOM     16  H   UNL     1       0.321  -0.228   3.155  0.00  0.00    +0.155 HD
ENDROOT
BRANCH  14  17
ATOM     17  C   UNL     1      -2.489   1.310   0.021  0.00  0.00    +0.203 C 
BRANCH  17  18
ATOM     18  N   UNL     1      -3.605   2.259   0.032  0.00  0.00    -0.293 N 
ATOM     19  C   UNL     1      -4.157   2.726   1.305  0.00  0.00    +0.132 C 
ATOM     20  C   UNL     1      -4.124   2.702  -1.131  0.00  0.00    +0.253 C 
ATOM     21  O   UNL     1      -3.667   2.315  -2.186  0.00  0.00    -0.272 OA
BRANCH  20  22
ATOM     22  C   UNL     1      -5.273   3.678  -1.120  0.00  0.00    +0.324 C 
BRANCH  22  23
ATOM     23  O   UNL     1      -5.642   3.993  -2.464  0.00  0.00    -0.482 OA
BRANCH  23  24
ATOM     24  C   UNL     1      -6.670   4.867  -2.632  0.00  0.00    +0.135 A 
ATOM     25  C   UNL     1      -7.309   5.409  -1.527  0.00  0.00    +0.048 A 
ATOM     26  C   UNL     1      -8.353   6.297  -1.700  0.00  0.00    +0.023 A 
ATOM     27  C   UNL     1      -8.762   6.646  -2.975  0.00  0.00    +0.042 A 
ATOM     28  C   UNL     1      -8.126   6.107  -4.080  0.00  0.00    +0.039 A 
ATOM     29  C   UNL     1      -7.077   5.222  -3.911  0.00  0.00    +0.061 A 
ATOM     30 BR   UNL     1      -6.203   4.492  -5.420  0.00  0.00    -0.046 Br
ATOM     31 CL   UNL     1     -10.075   7.761  -3.190  0.00  0.00    -0.084 Cl
ENDBRANCH  23  24
ENDBRANCH  22  23
ENDBRANCH  20  22
ENDBRANCH  17  18
ENDBRANCH  14  17
TORSDOF 5
