REMARK  Name = ZINC11199274
REMARK  9 active torsions:
REMARK  status: ('A' for Active; 'I' for Inactive)
REMARK    1  A    between atoms: C_1  and  C_2
REMARK    2  A    between atoms: C_2  and  C_3
REMARK    3  A    between atoms: C_6  and  N_9
REMARK    4  A    between atoms: C_19  and  S_20
REMARK    5  A    between atoms: S_20  and  C_21
REMARK    6  A    between atoms: C_21  and  C_22
REMARK    7  A    between atoms: N_24  and  C_25
REMARK    8  A    between atoms: C_29  and  N_32
REMARK    9  A    between atoms: C_30  and  C_31
REMARK                            x       y       z     vdW  Elec       q    Type
REMARK                         _______ _______ _______ _____ _____    ______ ____
ROOT
ATOM      1  N   UNL     1       1.618  -4.224   1.141  0.00  0.00    -0.255 N 
ATOM      2  C   UNL     1       2.668  -3.666   1.788  0.00  0.00    +0.267 A 
ATOM      3  O   UNL     1       3.391  -4.330   2.507  0.00  0.00    -0.267 OA
ATOM      4  C   UNL     1       2.903  -2.230   1.588  0.00  0.00    +0.065 A 
ATOM      5  C   UNL     1       3.958  -1.564   2.210  0.00  0.00    +0.015 A 
ATOM      6  C   UNL     1       4.132  -0.225   1.991  0.00  0.00    +0.001 A 
ATOM      7  C   UNL     1       3.271   0.475   1.155  0.00  0.00    +0.002 A 
ATOM      8  C   UNL     1       2.228  -0.153   0.534  0.00  0.00    +0.028 A 
ATOM      9  C   UNL     1       2.024  -1.521   0.739  0.00  0.00    +0.079 A 
ATOM     10  N   UNL     1       1.004  -2.182   0.143  0.00  0.00    -0.223 NA
ATOM     11  C   UNL     1       0.815  -3.465   0.336  0.00  0.00    +0.177 A 
ENDROOT
BRANCH   1  15
ATOM     12  C   UNL     1       0.826  -8.289   1.609  0.00  0.00    -0.047 A 
ATOM     13  C   UNL     1       1.717  -7.867   0.640  0.00  0.00    +0.005 A 
ATOM     14  C   UNL     1       1.982  -6.521   0.482  0.00  0.00    +0.026 A 
ATOM     15  C   UNL     1       1.351  -5.590   1.298  0.00  0.00    +0.052 A 
ATOM     16  C   UNL     1       0.461  -6.018   2.274  0.00  0.00    +0.026 A 
ATOM     17  C   UNL     1       0.196  -7.365   2.422  0.00  0.00    +0.005 A 
BRANCH  12  19
ATOM     18  C   UNL     1       1.523 -10.357   2.785  0.00  0.00    +0.009 C 
ATOM     19  C   UNL     1       0.539  -9.759   1.778  0.00  0.00    +0.032 C 
ENDBRANCH  12  19
ENDBRANCH   1  15
BRANCH  11  20
ATOM     20  S   UNL     1      -0.537  -4.246  -0.480  0.00  0.00    -0.078 S 
BRANCH  20  21
ATOM     21  C   UNL     1      -1.227  -2.830  -1.372  0.00  0.00    +0.173 C 
BRANCH  21  22
ATOM     22  C   UNL     1      -2.430  -3.273  -2.164  0.00  0.00    +0.227 C 
ATOM     23  O   UNL     1      -2.786  -4.431  -2.129  0.00  0.00    -0.275 OA
ATOM     24  N   UNL     1      -3.110  -2.381  -2.911  0.00  0.00    -0.285 N 
ATOM     25  H   UNL     1      -2.871  -1.441  -2.883  0.00  0.00    +0.155 HD
BRANCH  24  26
ATOM     26  C   UNL     1      -4.162  -2.810  -3.728  0.00  0.00    +0.038 A 
ATOM     27  C   UNL     1      -4.252  -4.145  -4.103  0.00  0.00    +0.024 A 
ATOM     28  C   UNL     1      -5.291  -4.566  -4.910  0.00  0.00    +0.004 A 
ATOM     29  C   UNL     1      -6.241  -3.660  -5.344  0.00  0.00    +0.033 A 
ATOM     30  C   UNL     1      -6.155  -2.331  -4.973  0.00  0.00    +0.131 A 
ATOM     31  C   UNL     1      -5.121  -1.905  -4.162  0.00  0.00    +0.001 A 
ATOM     32  C   UNL     1      -5.031  -0.457  -3.753  0.00  0.00    +0.048 C 
BRANCH  30  33
ATOM     33  N   UNL     1      -7.174  -1.365  -5.440  0.00  0.00    +0.057 N 
ATOM     34  O   UNL     1      -8.147  -1.758  -6.059  0.00  0.00    -0.126 OA
ATOM     35  O   UNL     1      -7.040  -0.177  -5.206  0.00  0.00    -0.126 OA
ENDBRANCH  30  33
ENDBRANCH  24  26
ENDBRANCH  21  22
ENDBRANCH  20  21
ENDBRANCH  11  20
TORSDOF 7
