REMARK  Name = ZINC39393965
REMARK  9 active torsions:
REMARK  status: ('A' for Active; 'I' for Inactive)
REMARK    1  A    between atoms: C_1  and  O_2
REMARK    2  A    between atoms: O_2  and  C_3
REMARK    3  A    between atoms: C_3  and  C_5
REMARK    4  A    between atoms: N_8  and  C_11
REMARK    5  A    between atoms: C_14  and  C_28
REMARK    6  A    between atoms: N_16  and  C_18
REMARK    7  A    between atoms: N_30  and  C_31
REMARK    8  A    between atoms: C_31  and  C_32
REMARK    9  A    between atoms: C_32  and  C_33
REMARK                            x       y       z     vdW  Elec       q    Type
REMARK                         _______ _______ _______ _____ _____    ______ ____
ROOT
ATOM      1  C   UNL     1      -3.314  -3.685  -3.135  0.00  0.00    +0.077 C 
ATOM      2  C   UNL     1      -3.623  -5.053  -2.470  0.00  0.00    +0.016 C 
ATOM      3  C   UNL     1      -4.083  -5.895  -3.686  0.00  0.00    +0.021 C 
ATOM      4  N   UNL     1      -4.847  -4.952  -4.530  0.00  0.00    +0.391 N 
ATOM      5  C   UNL     1      -4.390  -3.579  -4.236  0.00  0.00    -0.053 C 
ATOM      6  H   UNL     1      -5.832  -5.035  -4.327  0.00  0.00    -0.080 HD
ENDROOT
BRANCH   4   7
ATOM      7  C   UNL     1      -4.610  -5.255  -5.948  0.00  0.00    -0.061 C 
ATOM      8  C   UNL     1      -5.290  -4.195  -6.817  0.00  0.00    -0.024 C 
ATOM      9  C   UNL     1      -6.795  -4.198  -6.540  0.00  0.00    +0.005 C 
ATOM     10  C   UNL     1      -7.372  -5.576  -6.871  0.00  0.00    -0.010 C 
ATOM     11  C   UNL     1      -7.125  -5.891  -8.347  0.00  0.00    +0.007 C 
ATOM     12  C   UNL     1      -5.620  -5.889  -8.624  0.00  0.00    -0.010 C 
ATOM     13  C   UNL     1      -5.043  -4.511  -8.294  0.00  0.00    +0.005 C 
ATOM     14  C   UNL     1      -4.939  -6.949  -7.755  0.00  0.00    +0.005 C 
ATOM     15  C   UNL     1      -5.187  -6.633  -6.279  0.00  0.00    -0.024 C 
ATOM     16  C   UNL     1      -6.691  -6.636  -6.002  0.00  0.00    +0.005 C 
ENDBRANCH   4   7
BRANCH   1  19
ATOM     17  C   UNL     1      -3.144  -0.734  -0.762  0.00  0.00    +0.256 C 
ATOM     18  C   UNL     1      -2.420  -1.604  -1.812  0.00  0.00    +0.168 C 
ATOM     19  N   UNL     1      -3.454  -2.595  -2.166  0.00  0.00    -0.234 N 
ATOM     20  N   UNL     1      -4.590  -2.303  -1.410  0.00  0.00    -0.083 NA
ATOM     21  N   UNL     1      -4.479  -1.337  -0.656  0.00  0.00    -0.155 NA
BRANCH  17  22
ATOM     22  C   UNL     1      -3.245   0.693  -1.238  0.00  0.00    +0.335 C 
ATOM     23  O   UNL     1      -4.264   1.087  -1.754  0.00  0.00    -0.248 OA
BRANCH  22  25
ATOM     24  C   UNL     1      -2.368   2.864  -1.562  0.00  0.00    +0.280 C 
ATOM     25  O   UNL     1      -2.203   1.526  -1.088  0.00  0.00    -0.466 OA
ENDBRANCH  22  25
ENDBRANCH  17  22
ENDBRANCH   1  19
BRANCH   3  26
ATOM     26  C   UNL     1      -4.965  -7.030  -3.234  0.00  0.00    +0.200 C 
ATOM     27  O   UNL     1      -6.153  -6.848  -3.072  0.00  0.00    -0.278 OA
ATOM     28  N   UNL     1      -4.433  -8.248  -3.008  0.00  0.00    -0.316 N 
ATOM     29  H   UNL     1      -3.483  -8.394  -3.137  0.00  0.00    +0.149 HD
BRANCH  28  30
ATOM     30  C   UNL     1      -5.290  -9.352  -2.569  0.00  0.00    +0.109 C 
BRANCH  30  31
ATOM     31  C   UNL     1      -4.444 -10.614  -2.387  0.00  0.00    +0.056 C 
BRANCH  31  32
ATOM     32  C   UNL     1      -5.326 -11.749  -1.935  0.00  0.00    -0.021 A 
ATOM     33  C   UNL     1      -6.114 -12.636  -2.795  0.00  0.00    +0.003 A 
ATOM     34  C   UNL     1      -6.304 -12.733  -4.174  0.00  0.00    +0.010 A 
ATOM     35  C   UNL     1      -7.127 -13.700  -4.680  0.00  0.00    +0.001 A 
ATOM     36  C   UNL     1      -7.776 -14.586  -3.832  0.00  0.00    +0.002 A 
ATOM     37  C   UNL     1      -7.602 -14.509  -2.467  0.00  0.00    +0.026 A 
ATOM     38  C   UNL     1      -6.769 -13.533  -1.931  0.00  0.00    +0.047 A 
ATOM     39  N   UNL     1      -6.398 -13.204  -0.647  0.00  0.00    -0.360 N 
ATOM     40  C   UNL     1      -5.534 -12.143  -0.669  0.00  0.00    +0.087 A 
ATOM     41  H   UNL     1      -6.701 -13.659   0.154  0.00  0.00    +0.165 HD
ENDBRANCH  31  32
ENDBRANCH  30  31
ENDBRANCH  28  30
ENDBRANCH   3  26
TORSDOF 8
