REMARK  Name = ZINC14852163
REMARK  6 active torsions:
REMARK  status: ('A' for Active; 'I' for Inactive)
REMARK    1  A    between atoms: C_1  and  C_2
REMARK    2  A    between atoms: C_9  and  O_29
REMARK    3  A    between atoms: C_11  and  O_28
REMARK    4  A    between atoms: C_18  and  O_26
REMARK    5  A    between atoms: C_20  and  O_25
REMARK    6  A    between atoms: O_26  and  C_27
REMARK                            x       y       z     vdW  Elec       q    Type
REMARK                         _______ _______ _______ _____ _____    ______ ____
ROOT
ATOM      1  C   UNL     1       2.034   0.099   1.639  0.00  0.00    +0.052 C 
ATOM      2  C   UNL     1       2.452   0.953   0.436  0.00  0.00    +0.177 C 
ATOM      3  C   UNL     1       1.285   1.838  -0.000  0.00  0.00    +0.071 C 
ATOM      4  C   UNL     1      -0.013   1.086   0.008  0.00  0.00    -0.020 C 
ATOM      5  C   UNL     1      -1.197   1.682   0.037  0.00  0.00    +0.045 C 
ATOM      6  C   UNL     1      -1.463   3.105  -0.021  0.00  0.00    +0.187 C 
ATOM      7  O   UNL     1      -2.582   3.485   0.299  0.00  0.00    -0.290 OA
ATOM      8  C   UNL     1      -0.479   4.153  -0.446  0.00  0.00    +0.213 C 
ATOM      9  C   UNL     1      -0.328   5.205   0.656  0.00  0.00    +0.151 C 
ATOM     10  C   UNL     1       0.848   6.126   0.331  0.00  0.00    +0.035 C 
ATOM     11  C   UNL     1       2.127   5.609   0.989  0.00  0.00    +0.007 C 
ATOM     12  C   UNL     1       3.320   5.861   0.061  0.00  0.00    +0.036 C 
ATOM     13  C   UNL     1       4.569   5.304   0.695  0.00  0.00    -0.026 A 
ATOM     14  C   UNL     1       5.529   6.172   1.164  0.00  0.00    +0.050 A 
ATOM     15  C   UNL     1       6.677   5.682   1.778  0.00  0.00    +0.124 A 
ATOM     16  C   UNL     1       6.863   4.315   1.921  0.00  0.00    +0.091 A 
ATOM     17  C   UNL     1       5.911   3.432   1.442  0.00  0.00    +0.135 A 
ATOM     18  C   UNL     1       4.754   3.924   0.815  0.00  0.00    +0.104 A 
ATOM     19  C   UNL     1       3.753   2.984   0.284  0.00  0.00    +0.343 C 
ATOM     20  O   UNL     1       3.113   3.316  -0.698  0.00  0.00    -0.245 OA
ATOM     21  O   UNL     1       3.583   1.773   0.825  0.00  0.00    -0.458 OA
ENDROOT
BRANCH  17  22
ATOM     22  O   UNL     1       6.101   2.096   1.581  0.00  0.00    -0.506 OA
ATOM     23  H   UNL     1       6.570   1.686   0.841  0.00  0.00    +0.292 HD
ENDBRANCH  17  22
BRANCH  15  24
ATOM     24  O   UNL     1       7.619   6.544   2.238  0.00  0.00    -0.495 OA
ATOM     25  C   UNL     1       8.773   5.974   2.858  0.00  0.00    +0.277 C 
ENDBRANCH  15  24
BRANCH   9  26
ATOM     26  O   UNL     1      -0.117   4.564   1.913  0.00  0.00    -0.389 OA
ATOM     27  H   UNL     1      -0.831   3.966   2.174  0.00  0.00    +0.210 HD
ENDBRANCH   9  26
BRANCH   8  28
ATOM     28  O   UNL     1      -0.966   4.794  -1.633  0.00  0.00    -0.381 OA
ATOM     29  H   UNL     1      -1.090   4.195  -2.382  0.00  0.00    +0.210 HD
ENDBRANCH   8  28
TORSDOF 4
