REMARK  Name = ZINC63795507
REMARK  7 active torsions:
REMARK  status: ('A' for Active; 'I' for Inactive)
REMARK    1  A    between atoms: C_1  and  C_2
REMARK    2  A    between atoms: C_4  and  C_20
REMARK    3  A    between atoms: C_7  and  N_10
REMARK    4  A    between atoms: N_10  and  C_11
REMARK    5  A    between atoms: C_11  and  C_12
REMARK    6  A    between atoms: C_17  and  C_19
REMARK    7  A    between atoms: N_22  and  C_23
REMARK                            x       y       z     vdW  Elec       q    Type
REMARK                         _______ _______ _______ _____ _____    ______ ____
ROOT
ATOM      1  C   UNL     1       0.367   1.272   0.496  0.00  0.00    +0.025 C 
ATOM      2  C   UNL     1       0.250  -0.233   0.250  0.00  0.00    +0.075 C 
ATOM      3  C   UNL     1       0.702  -0.553  -1.200  0.00  0.00    +0.152 C 
ATOM      4  S   UNL     1       1.418  -2.237  -0.988  0.00  0.00    -0.108 S 
ATOM      5  C   UNL     1       1.202  -2.394   0.837  0.00  0.00    +0.205 C 
ATOM      6  N   UNL     1       1.096  -0.954   1.219  0.00  0.00    -0.286 NA
ATOM      7  H   UNL     1       2.009  -0.529   1.288  0.00  0.00    +0.125 HD
ENDROOT
BRANCH   5   8
ATOM      8  N   UNL     1      -0.025  -3.124   1.165  0.00  0.00    -0.270 N 
ATOM      9  C   UNL     1      -0.237  -3.552   2.425  0.00  0.00    +0.215 C 
ATOM     10  O   UNL     1      -1.291  -4.078   2.717  0.00  0.00    -0.276 OA
ATOM     11  C   UNL     1       0.833  -3.377   3.471  0.00  0.00    +0.109 C 
BRANCH   8  12
ATOM     12  C   UNL     1      -1.020  -3.390   0.123  0.00  0.00    +0.184 C 
BRANCH  12  13
ATOM     13  C   UNL     1      -0.713  -4.707  -0.541  0.00  0.00    +0.122 A 
ATOM     14  C   UNL     1      -1.185  -5.908  -0.160  0.00  0.00    +0.046 A 
ATOM     15  C   UNL     1      -0.647  -6.862  -1.055  0.00  0.00    +0.041 A 
ATOM     16  C   UNL     1       0.121  -6.186  -1.929  0.00  0.00    +0.195 A 
ATOM     17  O   UNL     1       0.072  -4.881  -1.616  0.00  0.00    -0.466 OA
ENDBRANCH  12  13
ENDBRANCH   8  12
ENDBRANCH   5   8
BRANCH   3  18
ATOM     18  C   UNL     1       1.746   0.426  -1.669  0.00  0.00    +0.230 C 
ATOM     19  O   UNL     1       1.415   1.424  -2.274  0.00  0.00    -0.274 OA
ATOM     20  N   UNL     1       3.050   0.193  -1.418  0.00  0.00    -0.277 N 
ATOM     21  H   UNL     1       3.316  -0.604  -0.934  0.00  0.00    +0.152 HD
BRANCH  20  22
ATOM     22  C   UNL     1       4.066   1.145  -1.875  0.00  0.00    +0.269 C 
ATOM     23  N   UNL     1       4.316   0.965  -3.310  0.00  0.00    -0.348 N 
ATOM     24  C   UNL     1       5.569   0.643  -3.451  0.00  0.00    +0.061 A 
ATOM     25  C   UNL     1       6.397   0.341  -4.627  0.00  0.00    +0.027 A 
ATOM     26  C   UNL     1       7.698   0.032  -4.462  0.00  0.00    +0.002 A 
ATOM     27  C   UNL     1       8.312  -0.017  -3.198  0.00  0.00    +0.002 A 
ATOM     28  C   UNL     1       7.644   0.242  -2.056  0.00  0.00    +0.027 A 
ATOM     29  C   UNL     1       6.218   0.592  -2.113  0.00  0.00    +0.061 A 
ATOM     30  N   UNL     1       5.342   0.885  -1.196  0.00  0.00    -0.348 N 
ATOM     31  H   UNL     1       3.666   1.067  -4.023  0.00  0.00    +0.163 HD
ATOM     32  H   UNL     1       5.502   0.924  -0.241  0.00  0.00    +0.163 HD
ENDBRANCH  20  22
ENDBRANCH   3  18
TORSDOF 5
