REMARK  Name = ZINC01251578
REMARK  16 active torsions:
REMARK  status: ('A' for Active; 'I' for Inactive)
REMARK    1  A    between atoms: C_1  and  C_2
REMARK    2  A    between atoms: C_2  and  O_3
REMARK    3  A    between atoms: O_3  and  C_4
REMARK    4  A    between atoms: C_7  and  C_13
REMARK    5  A    between atoms: C_9  and  O_10
REMARK    6  A    between atoms: O_10  and  C_11
REMARK    7  A    between atoms: C_11  and  C_12
REMARK    8  A    between atoms: C_22  and  C_30
REMARK    9  A    between atoms: C_23  and  N_29
REMARK   10  A    between atoms: C_24  and  C_25
REMARK   11  A    between atoms: C_24  and  C_27
REMARK   12  A    between atoms: C_32  and  O_34
REMARK   13  A    between atoms: O_34  and  C_35
REMARK   14  A    between atoms: C_35  and  C_36
REMARK   15  A    between atoms: C_35  and  C_37
REMARK   16  A    between atoms: C_35  and  C_38
REMARK                            x       y       z     vdW  Elec       q    Type
REMARK                         _______ _______ _______ _____ _____    ______ ____
ROOT
ATOM      1  C   UNL     1       3.715  -0.701  -0.037  0.00  0.00    +0.068 C 
ATOM      2  C   UNL     1       4.583  -0.223   1.128  0.00  0.00    +0.048 C 
ATOM      3  C   UNL     1       4.063  -0.708   2.461  0.00  0.00    +0.120 C 
ATOM      4  N   UNL     1       3.424   0.379   3.211  0.00  0.00    -0.263 N 
ATOM      5  C   UNL     1       4.203   1.617   3.397  0.00  0.00    +0.138 C 
ATOM      6  C   UNL     1       4.593   2.104   2.024  0.00  0.00    -0.003 C 
ATOM      7  C   UNL     1       4.742   1.264   1.019  0.00  0.00    -0.026 C 
ATOM      8  C   UNL     1       5.080   1.801  -0.327  0.00  0.00    +0.074 C 
ATOM      9  C   UNL     1       4.924   1.007  -1.416  0.00  0.00    +0.054 C 
ATOM     10  C   UNL     1       4.447  -0.412  -1.349  0.00  0.00    +0.188 C 
ATOM     11  C   UNL     1       2.178   0.251   3.709  0.00  0.00    +0.404 C 
ATOM     12  O   UNL     1       1.560  -0.781   3.542  0.00  0.00    -0.226 OA
ENDROOT
BRANCH   1  16
ATOM     13  C   UNL     1      -0.022   1.377   0.013  0.00  0.00    +0.162 A 
ATOM     14  C   UNL     1       0.073   0.104   0.551  0.00  0.00    +0.050 A 
ATOM     15  C   UNL     1       1.282  -0.565   0.533  0.00  0.00    +0.008 A 
ATOM     16  C   UNL     1       2.399   0.033  -0.021  0.00  0.00    -0.037 A 
ATOM     17  C   UNL     1       2.311   1.303  -0.560  0.00  0.00    +0.053 A 
ATOM     18  C   UNL     1       1.101   1.979  -0.545  0.00  0.00    +0.162 A 
BRANCH  13  19
ATOM     19  O   UNL     1      -1.210   2.039   0.034  0.00  0.00    -0.489 OA
BRANCH  19  21
ATOM     20  C   UNL     1      -3.560   2.254   0.555  0.00  0.00    +0.048 C 
ATOM     21  C   UNL     1      -2.321   1.359   0.622  0.00  0.00    +0.226 C 
ENDBRANCH  19  21
ENDBRANCH  13  19
BRANCH  18  22
ATOM     22  O   UNL     1       1.013   3.229  -1.075  0.00  0.00    -0.489 OA
BRANCH  22  23
ATOM     23  C   UNL     1       2.207   3.784  -1.630  0.00  0.00    +0.226 C 
ATOM     24  C   UNL     1       1.913   5.184  -2.173  0.00  0.00    +0.048 C 
ENDBRANCH  22  23
ENDBRANCH  18  22
ENDBRANCH   1  16
BRANCH   9  25
ATOM     25  N   UNL     1       5.218   1.531  -2.643  0.00  0.00    -0.358 N 
ATOM     26  H   UNL     1       5.102   0.915  -3.547  0.00  0.00    +0.142 HD
ATOM     27  H   UNL     1       5.571   2.570  -2.728  0.00  0.00    +0.142 HD
ENDBRANCH   9  25
BRANCH  10  28
ATOM     28  C   UNL     1       5.604  -1.313  -1.461  0.00  0.00    +0.091 C 
ATOM     29  N   UNL     1       6.498  -2.010  -1.548  0.00  0.00    -0.194 NA
ENDBRANCH  10  28
BRANCH  10  30
ATOM     30  C   UNL     1       3.532  -0.664  -2.474  0.00  0.00    +0.091 C 
ATOM     31  N   UNL     1       2.827  -0.859  -3.343  0.00  0.00    -0.194 NA
ENDBRANCH  10  30
BRANCH   8  32
ATOM     32  C   UNL     1       5.565   3.141  -0.471  0.00  0.00    +0.101 C 
ATOM     33  N   UNL     1       5.949   4.204  -0.585  0.00  0.00    -0.191 NA
ENDBRANCH   8  32
BRANCH  11  34
ATOM     34  O   UNL     1       1.620   1.267   4.394  0.00  0.00    -0.445 OA
BRANCH  34  35
ATOM     35  C   UNL     1       0.275   1.059   4.902  0.00  0.00    +0.107 C 
ATOM     36  C   UNL     1       0.271  -0.133   5.860  0.00  0.00    +0.055 C 
ATOM     37  C   UNL     1      -0.188   2.313   5.646  0.00  0.00    +0.055 C 
ATOM     38  C   UNL     1      -0.673   0.779   3.734  0.00  0.00    +0.055 C 
ENDBRANCH  34  35
ENDBRANCH  11  34
TORSDOF 11
