REMARK  Name = ZINC36384962
REMARK  8 active torsions:
REMARK  status: ('A' for Active; 'I' for Inactive)
REMARK    1  A    between atoms: C_1  and  C_2
REMARK    2  A    between atoms: C_11  and  C_28
REMARK    3  A    between atoms: C_11  and  O_32
REMARK    4  A    between atoms: C_12  and  C_27
REMARK    5  A    between atoms: C_14  and  O_26
REMARK    6  A    between atoms: C_18  and  C_25
REMARK    7  A    between atoms: C_28  and  C_30
REMARK    8  A    between atoms: C_30  and  O_31
REMARK                            x       y       z     vdW  Elec       q    Type
REMARK                         _______ _______ _______ _____ _____    ______ ____
ROOT
ATOM      1  C   UNL     1      -0.035   1.373  -0.065  0.00  0.00    +0.012 C 
ATOM      2  C   UNL     1      -0.080  -0.160  -0.065  0.00  0.00    +0.013 C 
ATOM      3  C   UNL     1      -1.527  -0.605  -0.109  0.00  0.00    +0.012 C 
ATOM      4  C   UNL     1      -1.980  -1.427   1.081  0.00  0.00    -0.000 C 
ATOM      5  C   UNL     1      -2.441  -0.610   2.255  0.00  0.00    +0.002 C 
ATOM      6  C   UNL     1      -1.352   0.240   2.923  0.00  0.00    +0.008 C 
ATOM      7  C   UNL     1      -1.918   0.548   4.331  0.00  0.00    +0.043 C 
ATOM      8  C   UNL     1      -3.045  -0.470   4.583  0.00  0.00    +0.131 C 
ATOM      9  C   UNL     1      -2.977  -1.483   3.413  0.00  0.00    +0.009 C 
ATOM     10  C   UNL     1      -1.960  -2.570   3.755  0.00  0.00    +0.041 C 
ATOM     11  C   UNL     1      -1.597  -3.398   2.526  0.00  0.00    +0.120 C 
ATOM     12  C   UNL     1      -0.994  -2.524   1.436  0.00  0.00    +0.035 C 
ATOM     13  C   UNL     1       0.396  -2.033   1.701  0.00  0.00    +0.013 C 
ATOM     14  C   UNL     1       0.718  -0.713   1.079  0.00  0.00    -0.053 C 
ATOM     15  C   UNL     1       1.799  -0.030   1.489  0.00  0.00    +0.051 C 
ATOM     16  C   UNL     1       2.571  -0.502   2.660  0.00  0.00    +0.179 C 
ATOM     17  O   UNL     1       3.685  -0.046   2.906  0.00  0.00    -0.288 OA
ATOM     18  C   UNL     1       1.951  -1.514   3.541  0.00  0.00    +0.047 C 
ATOM     19  C   UNL     1       0.904  -2.218   3.087  0.00  0.00    -0.012 C 
ATOM     20  C   UNL     1       1.265  -3.005   0.875  0.00  0.00    +0.020 C 
ATOM     21  C   UNL     1      -4.359  -2.062   3.094  0.00  0.00    +0.015 C 
ENDROOT
BRANCH  11  22
ATOM     22  O   UNL     1      -0.727  -4.471   2.878  0.00  0.00    -0.391 OA
ATOM     23  H   UNL     1      -1.102  -5.087   3.522  0.00  0.00    +0.210 HD
ENDBRANCH  11  22
BRANCH   8  24
ATOM     24  C   UNL     1      -2.863  -1.137   5.918  0.00  0.00    +0.190 C 
ATOM     25  O   UNL     1      -1.758  -1.245   6.393  0.00  0.00    -0.292 OA
BRANCH  24  26
ATOM     26  C   UNL     1      -4.059  -1.671   6.663  0.00  0.00    +0.233 C 
BRANCH  26  27
ATOM     27  O   UNL     1      -3.631  -2.254   7.895  0.00  0.00    -0.387 OA
ATOM     28  H   UNL     1      -4.350  -2.619   8.428  0.00  0.00    +0.210 HD
ENDBRANCH  26  27
ENDBRANCH  24  26
ENDBRANCH   8  24
BRANCH   8  29
ATOM     29  O   UNL     1      -4.310   0.206   4.557  0.00  0.00    -0.380 OA
ATOM     30  H   UNL     1      -4.406   0.887   5.237  0.00  0.00    +0.211 HD
ENDBRANCH   8  29
TORSDOF 5
