REMARK  Name = ZINC09229603
REMARK  8 active torsions:
REMARK  status: ('A' for Active; 'I' for Inactive)
REMARK    1  A    between atoms: C_3  and  N_31
REMARK    2  A    between atoms: C_6  and  C_7
REMARK    3  A    between atoms: C_8  and  C_9
REMARK    4  A    between atoms: N_11  and  C_12
REMARK    5  A    between atoms: C_12  and  N_14
REMARK    6  A    between atoms: N_14  and  C_15
REMARK    7  A    between atoms: C_18  and  S_21
REMARK    8  A    between atoms: S_21  and  N_24
REMARK                            x       y       z     vdW  Elec       q    Type
REMARK                         _______ _______ _______ _____ _____    ______ ____
ROOT
ATOM      1  N   UNL     1       1.641  -4.376  -1.581  0.00  0.00    -0.297 N 
ATOM      2  H   UNL     1       2.516  -3.966  -1.668  0.00  0.00    +0.154 HD
ENDROOT
BRANCH   1   3
ATOM      3  C   UNL     1       0.499  -3.574  -1.485  0.00  0.00    +0.033 A 
ATOM      4  C   UNL     1      -0.504  -3.897  -0.581  0.00  0.00    +0.025 A 
ATOM      5  C   UNL     1      -1.630  -3.102  -0.489  0.00  0.00    +0.030 A 
ATOM      6  C   UNL     1      -1.758  -1.986  -1.295  0.00  0.00    +0.106 A 
ATOM      7  C   UNL     1      -0.763  -1.665  -2.200  0.00  0.00    +0.030 A 
ATOM      8  C   UNL     1       0.367  -2.452  -2.293  0.00  0.00    +0.025 A 
BRANCH   6   9
ATOM      9  S   UNL     1      -3.196  -0.974  -1.174  0.00  0.00    +0.061 S 
ATOM     10  O   UNL     1      -4.227  -1.796  -0.644  0.00  0.00    -0.153 OA
ATOM     11  O   UNL     1      -3.324  -0.299  -2.418  0.00  0.00    -0.153 OA
BRANCH   9  12
ATOM     12  N   UNL     1      -2.884   0.187  -0.035  0.00  0.00    -0.177 NA
ATOM     13  C   UNL     1      -2.298   1.440  -0.414  0.00  0.00    +0.109 C 
ATOM     14  C   UNL     1      -0.750   1.490  -0.434  0.00  0.00    +0.017 C 
ATOM     15  C   UNL     1      -0.176   0.739   0.792  0.00  0.00    +0.001 C 
ATOM     16  C   UNL     1      -1.011   0.995   2.013  0.00  0.00    +0.001 C 
ATOM     17  C   UNL     1      -1.943  -0.207   2.127  0.00  0.00    +0.017 C 
ATOM     18  C   UNL     1      -3.208  -0.056   1.411  0.00  0.00    +0.109 C 
ENDBRANCH   9  12
ENDBRANCH   6   9
ENDBRANCH   1   3
BRANCH   1  19
ATOM     19  C   UNL     1       1.526  -5.718  -1.552  0.00  0.00    +0.141 C 
ATOM     20  S   UNL     1      -0.025  -6.444  -1.541  0.00  0.00    -0.018 S 
BRANCH  19  23
ATOM     21  C   UNL     1       2.516  -7.832  -1.502  0.00  0.00    +0.242 C 
ATOM     22  O   UNL     1       1.414  -8.348  -1.495  0.00  0.00    -0.270 OA
ATOM     23  N   UNL     1       2.631  -6.489  -1.531  0.00  0.00    -0.264 N 
ATOM     24  H   UNL     1       3.510  -6.078  -1.537  0.00  0.00    +0.157 HD
BRANCH  21  26
ATOM     25  C   UNL     1       3.600 -10.013  -1.451  0.00  0.00    +0.013 C 
ATOM     26  C   UNL     1       3.715  -8.669  -1.480  0.00  0.00    +0.068 C 
BRANCH  25  32
ATOM     27  C   UNL     1       6.075 -10.266  -1.443  0.00  0.00    +0.010 A 
ATOM     28  C   UNL     1       7.201 -11.061  -1.417  0.00  0.00    +0.033 A 
ATOM     29  C   UNL     1       7.078 -12.440  -1.387  0.00  0.00    +0.126 A 
ATOM     30  C   UNL     1       5.827 -13.030  -1.379  0.00  0.00    +0.033 A 
ATOM     31  C   UNL     1       4.691 -12.248  -1.399  0.00  0.00    +0.010 A 
ATOM     32  C   UNL     1       4.807 -10.855  -1.429  0.00  0.00    -0.025 A 
BRANCH  29  33
ATOM     33  N   UNL     1       8.292 -13.286  -1.365  0.00  0.00    +0.056 N 
ATOM     34  O   UNL     1       8.188 -14.500  -1.339  0.00  0.00    -0.126 OA
ATOM     35  O   UNL     1       9.395 -12.770  -1.372  0.00  0.00    -0.126 OA
ENDBRANCH  29  33
ENDBRANCH  25  32
ENDBRANCH  21  26
ENDBRANCH  19  23
ENDBRANCH   1  19
TORSDOF 8
