REMARK  Name = ZINC50726416
REMARK  5 active torsions:
REMARK  status: ('A' for Active; 'I' for Inactive)
REMARK    1  A    between atoms: C_1  and  C_2
REMARK    2  A    between atoms: C_9  and  C_11
REMARK    3  A    between atoms: C_13  and  N_21
REMARK    4  A    between atoms: C_16  and  N_17
REMARK    5  A    between atoms: N_21  and  C_22
REMARK                            x       y       z     vdW  Elec       q    Type
REMARK                         _______ _______ _______ _____ _____    ______ ____
ROOT
ATOM      1  C   UNL     1       1.832  -4.229   1.691  0.00  0.00    +0.069 A 
ATOM      2  C   UNL     1       1.060  -4.760   2.727  0.00  0.00    +0.041 A 
ATOM      3  C   UNL     1       0.740  -6.107   2.726  0.00  0.00    +0.063 A 
ATOM      4  C   UNL     1       1.187  -6.928   1.694  0.00  0.00    +0.146 A 
ATOM      5  C   UNL     1       1.952  -6.401   0.668  0.00  0.00    +0.073 A 
ATOM      6  C   UNL     1       2.271  -5.059   0.658  0.00  0.00    +0.141 A 
ATOM      7  F   UNL     1       0.874  -8.242   1.695  0.00  0.00    -0.203 F 
ENDROOT
BRANCH   1  15
ATOM      8  C   UNL     1       1.067   1.817   0.830  0.00  0.00    +0.009 C 
ATOM      9  C   UNL     1       0.850   0.313   0.658  0.00  0.00    +0.003 C 
ATOM     10  C   UNL     1      -0.649   0.008   0.667  0.00  0.00    +0.006 C 
ATOM     11  C   UNL     1      -0.868  -1.493   0.462  0.00  0.00    +0.019 C 
ATOM     12  C   UNL     1      -0.211  -2.262   1.612  0.00  0.00    +0.108 C 
ATOM     13  N   UNL     1       1.200  -1.865   1.702  0.00  0.00    -0.297 N 
ATOM     14  C   UNL     1       1.527  -0.436   1.810  0.00  0.00    +0.111 C 
ATOM     15  C   UNL     1       2.177  -2.793   1.686  0.00  0.00    +0.249 C 
ATOM     16  O   UNL     1       3.343  -2.449   1.666  0.00  0.00    -0.270 OA
ENDBRANCH   1  15
BRANCH   6  17
ATOM     17  N   UNL     1       3.083  -4.500  -0.446  0.00  0.00    +0.057 N 
ATOM     18  O   UNL     1       3.571  -5.236  -1.271  0.00  0.00    -0.126 OA
ATOM     19  O   UNL     1       3.260  -3.306  -0.521  0.00  0.00    -0.126 OA
ENDBRANCH   6  17
BRANCH   3  20
ATOM     20  N   UNL     1      -0.033  -6.643   3.762  0.00  0.00    -0.345 N 
ATOM     21  C   UNL     1      -0.503  -5.779   4.848  0.00  0.00    +0.125 C 
ATOM     22  H   UNL     1      -0.257  -7.587   3.761  0.00  0.00    +0.146 HD
ENDBRANCH   3  20
TORSDOF 3
