REMARK  Name = ZINC43620133
REMARK  5 active torsions:
REMARK  status: ('A' for Active; 'I' for Inactive)
REMARK    1  A    between atoms: C_1  and  O_2
REMARK    2  A    between atoms: O_2  and  C_3
REMARK    3  A    between atoms: C_7  and  C_9
REMARK    4  A    between atoms: C_9  and  N_10
REMARK    5  A    between atoms: C_15  and  C_24
REMARK                            x       y       z     vdW  Elec       q    Type
REMARK                         _______ _______ _______ _____ _____    ______ ____
ROOT
ATOM      1  N   UNL     1       2.431  -4.692  -1.424  0.00  0.00    -0.298 N 
ATOM      2  C   UNL     1       3.675  -4.839  -2.187  0.00  0.00    +0.110 C 
ATOM      3  C   UNL     1       4.808  -4.932  -1.148  0.00  0.00    +0.003 C 
ATOM      4  C   UNL     1       5.325  -3.511  -0.816  0.00  0.00    -0.007 C 
ATOM      5  C   UNL     1       5.660  -3.644   0.692  0.00  0.00    -0.035 C 
ATOM      6  N   UNL     1       4.600  -4.517   1.242  0.00  0.00    +0.394 N 
ATOM      7  C   UNL     1       4.047  -5.347   0.135  0.00  0.00    +0.018 C 
ATOM      8  C   UNL     1       2.609  -5.006  -0.129  0.00  0.00    +0.206 C 
ATOM      9  O   UNL     1       1.732  -5.016   0.708  0.00  0.00    -0.277 OA
ATOM     10  C   UNL     1       4.264  -6.827   0.455  0.00  0.00    -0.004 C 
ATOM     11  C   UNL     1       4.460  -6.825   1.996  0.00  0.00    -0.019 C 
ATOM     12  C   UNL     1       5.200  -5.448   2.224  0.00  0.00    -0.077 C 
ATOM     13  H   UNL     1       3.880  -3.962   1.679  0.00  0.00    -0.079 HD
ENDROOT
BRANCH   5  14
ATOM     14  C   UNL     1       5.626  -2.292   1.357  0.00  0.00    -0.043 A 
ATOM     15  C   UNL     1       4.452  -1.829   1.922  0.00  0.00    +0.003 A 
ATOM     16  C   UNL     1       4.421  -0.589   2.533  0.00  0.00    +0.000 A 
ATOM     17  C   UNL     1       5.563   0.188   2.579  0.00  0.00    +0.001 A 
ATOM     18  C   UNL     1       6.737  -0.274   2.014  0.00  0.00    +0.020 A 
ATOM     19  C   UNL     1       6.770  -1.517   1.408  0.00  0.00    +0.043 A 
ATOM     20 CL   UNL     1       8.246  -2.101   0.704  0.00  0.00    -0.083 Cl
ENDBRANCH   5  14
BRANCH   1  21
ATOM     21  C   UNL     1       1.157  -4.253  -1.999  0.00  0.00    +0.143 C 
BRANCH  21  26
ATOM     22  C   UNL     1       0.407  -0.775  -0.724  0.00  0.00    +0.120 A 
ATOM     23  C   UNL     1       0.883   0.007  -1.766  0.00  0.00    +0.045 A 
ATOM     24  C   UNL     1       1.444  -0.591  -2.877  0.00  0.00    +0.004 A 
ATOM     25  C   UNL     1       1.533  -1.969  -2.951  0.00  0.00    +0.005 A 
ATOM     26  C   UNL     1       1.060  -2.751  -1.915  0.00  0.00    -0.027 A 
ATOM     27  C   UNL     1       0.502  -2.157  -0.798  0.00  0.00    +0.050 A 
BRANCH  22  29
ATOM     28  C   UNL     1      -0.210   1.238   0.379  0.00  0.00    +0.277 C 
ATOM     29  O   UNL     1      -0.145  -0.189   0.371  0.00  0.00    -0.495 OA
ENDBRANCH  22  29
ENDBRANCH  21  26
ENDBRANCH   1  21
TORSDOF 4
