REMARK  Name = ZINC65375482
REMARK  6 active torsions:
REMARK  status: ('A' for Active; 'I' for Inactive)
REMARK    1  A    between atoms: C_1  and  C_2
REMARK    2  A    between atoms: C_2  and  N_3
REMARK    3  A    between atoms: N_3  and  C_4
REMARK    4  A    between atoms: N_3  and  C_6
REMARK    5  A    between atoms: C_4  and  C_5
REMARK    6  A    between atoms: C_9  and  C_12
REMARK                            x       y       z     vdW  Elec       q    Type
REMARK                         _______ _______ _______ _____ _____    ______ ____
ROOT
ATOM      1  C   UNL     1      -0.116  -6.138  -1.717  0.00  0.00    +0.077 C 
ATOM      2  C   UNL     1       0.625  -6.625  -2.949  0.00  0.00    +0.110 C 
ATOM      3  C   UNL     1       0.544  -8.112  -3.084  0.00  0.00    +0.214 C 
ATOM      4  O   UNL     1       1.544  -8.768  -2.883  0.00  0.00    -0.276 OA
ATOM      5  N   UNL     1      -0.576  -8.746  -3.415  0.00  0.00    -0.310 N 
ATOM      6  C   UNL     1      -1.766  -7.997  -3.810  0.00  0.00    +0.161 C 
ATOM      7  C   UNL     1      -2.281  -7.162  -2.670  0.00  0.00    +0.081 A 
ATOM      8  C   UNL     1      -1.595  -6.410  -1.809  0.00  0.00    +0.056 A 
ATOM      9  N   UNL     1      -2.510  -5.846  -0.914  0.00  0.00    -0.297 N 
ATOM     10  C   UNL     1      -2.487  -5.016   0.185  0.00  0.00    +0.100 A 
ATOM     11  C   UNL     1      -3.617  -4.678   0.806  0.00  0.00    +0.067 A 
ATOM     12  S   UNL     1      -4.843  -5.546  -0.160  0.00  0.00    -0.058 S 
ATOM     13  C   UNL     1      -3.733  -6.300  -1.325  0.00  0.00    +0.178 A 
ATOM     14  N   UNL     1      -3.593  -7.070  -2.358  0.00  0.00    -0.224 NA
ATOM     15  H   UNL     1      -0.603  -9.715  -3.395  0.00  0.00    +0.149 HD
ENDROOT
BRANCH   1  19
ATOM     16  C   UNL     1       0.501  -1.932  -1.297  0.00  0.00    +0.013 A 
ATOM     17  C   UNL     1       0.924  -2.795  -0.304  0.00  0.00    +0.022 A 
ATOM     18  C   UNL     1       0.724  -4.156  -0.440  0.00  0.00    +0.006 A 
ATOM     19  C   UNL     1       0.101  -4.654  -1.568  0.00  0.00    -0.038 A 
ATOM     20  C   UNL     1      -0.324  -3.791  -2.561  0.00  0.00    +0.006 A 
ATOM     21  C   UNL     1      -0.128  -2.429  -2.423  0.00  0.00    +0.022 A 
BRANCH  16  22
ATOM     22  N   UNL     1       0.703  -0.555  -1.160  0.00  0.00    -0.394 NA
ATOM     23  H   UNL     1       0.332  -0.079  -1.968  0.00  0.00    +0.126 HD
BRANCH  22  25
ATOM     24  C   UNL     1      -1.495  -0.229  -0.130  0.00  0.00    +0.022 C 
ATOM     25  C   UNL     1       0.017  -0.078   0.049  0.00  0.00    +0.081 C 
ENDBRANCH  22  25
BRANCH  22  26
ATOM     26  C   UNL     1       2.142  -0.280  -1.047  0.00  0.00    +0.081 C 
ATOM     27  C   UNL     1       2.837  -0.660  -2.356  0.00  0.00    +0.022 C 
ENDBRANCH  22  26
ENDBRANCH  16  22
ENDBRANCH   1  19
TORSDOF 4
