REMARK  Name = ZINC11012611
REMARK  9 active torsions:
REMARK  status: ('A' for Active; 'I' for Inactive)
REMARK    1  A    between atoms: C_1  and  N_45
REMARK    2  A    between atoms: C_2  and  C_3
REMARK    3  A    between atoms: C_2  and  N_45
REMARK    4  A    between atoms: C_5  and  N_10
REMARK    5  A    between atoms: C_13  and  C_14
REMARK    6  A    between atoms: C_13  and  N_45
REMARK    7  A    between atoms: N_16  and  C_17
REMARK    8  A    between atoms: C_19  and  S_24
REMARK    9  A    between atoms: S_24  and  C_27
REMARK                            x       y       z     vdW  Elec       q    Type
REMARK                         _______ _______ _______ _____ _____    ______ ____
ROOT
ATOM      1  C   UNL     1      -0.837   3.022   1.224  0.00  0.00    +0.019 C 
ENDROOT
BRANCH   1   2
ATOM      2  C   UNL     1      -1.740   3.448   0.095  0.00  0.00    +0.201 C 
ATOM      3  O   UNL     1      -2.237   2.615  -0.632  0.00  0.00    -0.278 OA
ATOM      4  N   UNL     1      -1.996   4.756  -0.105  0.00  0.00    -0.286 N 
ATOM      5  H   UNL     1      -1.652   5.418   0.514  0.00  0.00    +0.155 HD
BRANCH   4   6
ATOM      6  C   UNL     1      -2.757   5.159  -1.209  0.00  0.00    +0.054 A 
ATOM      7  C   UNL     1      -3.800   4.363  -1.663  0.00  0.00    +0.051 A 
ATOM      8  C   UNL     1      -4.552   4.765  -2.749  0.00  0.00    +0.090 A 
ATOM      9  C   UNL     1      -4.263   5.956  -3.390  0.00  0.00    +0.028 A 
ATOM     10  C   UNL     1      -3.222   6.749  -2.945  0.00  0.00    +0.024 A 
ATOM     11  C   UNL     1      -2.468   6.355  -1.855  0.00  0.00    +0.062 A 
ATOM     12 CL   UNL     1      -1.162   7.352  -1.295  0.00  0.00    -0.082 Cl
BRANCH   8  13
ATOM     13  S   UNL     1      -5.880   3.758  -3.321  0.00  0.00    -0.006 S 
ATOM     14  O   UNL     1      -6.294   3.021  -2.179  0.00  0.00    -0.170 OA
ATOM     15  O   UNL     1      -6.769   4.661  -3.963  0.00  0.00    -0.170 OA
ATOM     16  C   UNL     1      -5.128   2.647  -4.543  0.00  0.00    +0.200 C 
ENDBRANCH   8  13
ENDBRANCH   4   6
ENDBRANCH   1   2
BRANCH   1  18
ATOM     17  C   UNL     1      -0.025   1.080   0.027  0.00  0.00    -0.095 C 
ATOM     18  N   UNL     1      -0.746   1.546   1.230  0.00  0.00    +0.386 N 
ATOM     19  H   UNL     1      -1.695   1.154   1.223  0.00  0.00    -0.081 HD
BRANCH  18  20
ATOM     20  C   UNL     1      -0.046   1.088   2.448  0.00  0.00    -0.041 C 
BRANCH  20  21
ATOM     21  C   UNL     1      -0.160  -0.411   2.540  0.00  0.00    -0.043 A 
ATOM     22  C   UNL     1       0.934  -1.207   2.252  0.00  0.00    +0.036 A 
ATOM     23  C   UNL     1       0.831  -2.582   2.341  0.00  0.00    +0.126 A 
ATOM     24  C   UNL     1      -0.369  -3.164   2.708  0.00  0.00    +0.034 A 
ATOM     25  C   UNL     1      -1.465  -2.370   2.990  0.00  0.00    +0.022 A 
ATOM     26  C   UNL     1      -1.361  -0.993   2.906  0.00  0.00    +0.042 A 
ATOM     27 CL   UNL     1      -2.736   0.005   3.260  0.00  0.00    -0.083 Cl
BRANCH  23  28
ATOM     28  N   UNL     1       2.003  -3.433   2.039  0.00  0.00    +0.056 N 
ATOM     29  O   UNL     1       1.911  -4.645   2.112  0.00  0.00    -0.126 OA
ATOM     30  O   UNL     1       3.060  -2.921   1.716  0.00  0.00    -0.126 OA
ENDBRANCH  23  28
ENDBRANCH  20  21
ENDBRANCH  18  20
ENDBRANCH   1  18
TORSDOF 7
