REMARK  Name = ZINC33931141
REMARK  7 active torsions:
REMARK  status: ('A' for Active; 'I' for Inactive)
REMARK    1  A    between atoms: C_1  and  C_2
REMARK    2  A    between atoms: C_2  and  C_3
REMARK    3  A    between atoms: C_6  and  N_9
REMARK    4  A    between atoms: C_14  and  C_27
REMARK    5  A    between atoms: C_17  and  C_22
REMARK    6  A    between atoms: C_17  and  C_24
REMARK    7  A    between atoms: C_22  and  O_23
REMARK                            x       y       z     vdW  Elec       q    Type
REMARK                         _______ _______ _______ _____ _____    ______ ____
ROOT
ATOM      1  N   UNL     1       2.659  -1.835  -4.668  0.00  0.00    -0.210 N 
ATOM      2  C   UNL     1       2.021  -2.080  -5.859  0.00  0.00    +0.229 C 
ATOM      3  O   UNL     1       0.897  -1.755  -6.177  0.00  0.00    -0.275 OA
ATOM      4  C   UNL     1       2.982  -2.811  -6.646  0.00  0.00    +0.080 C 
ATOM      5  C   UNL     1       3.282  -3.148  -8.049  0.00  0.00    +0.010 C 
ATOM      6  N   UNL     1       4.652  -3.760  -7.940  0.00  0.00    +0.399 N 
ATOM      7  C   UNL     1       5.280  -3.252  -6.684  0.00  0.00    +0.071 C 
ATOM      8  C   UNL     1       4.340  -2.141  -6.193  0.00  0.00    +0.088 C 
ATOM      9  C   UNL     1       4.002  -2.073  -4.729  0.00  0.00    +0.229 C 
ATOM     10  O   UNL     1       4.766  -2.205  -3.797  0.00  0.00    -0.275 OA
ATOM     11  H   UNL     1       4.574  -4.765  -7.901  0.00  0.00    -0.083 HD
ATOM     12  H   UNL     1       5.211  -3.490  -8.735  0.00  0.00    -0.083 HD
ENDROOT
BRANCH   5  13
ATOM     13  C   UNL     1       2.288  -4.144  -8.588  0.00  0.00    +0.093 A 
ATOM     14  C   UNL     1       1.241  -3.839  -9.365  0.00  0.00    +0.051 A 
ATOM     15  C   UNL     1       0.557  -5.107  -9.646  0.00  0.00    +0.020 A 
ATOM     16  C   UNL     1      -0.575  -5.463 -10.379  0.00  0.00    +0.011 A 
ATOM     17  C   UNL     1      -0.956  -6.774 -10.443  0.00  0.00    +0.001 A 
ATOM     18  C   UNL     1      -0.226  -7.751  -9.782  0.00  0.00    +0.004 A 
ATOM     19  C   UNL     1       0.895  -7.418  -9.052  0.00  0.00    +0.047 A 
ATOM     20  C   UNL     1       1.301  -6.092  -8.975  0.00  0.00    +0.135 A 
ATOM     21  O   UNL     1       2.328  -5.469  -8.362  0.00  0.00    -0.461 OA
ENDBRANCH   5  13
BRANCH   1  25
ATOM     22  C   UNL     1       0.707  -0.490  -1.238  0.00  0.00    -0.048 A 
ATOM     23  C   UNL     1      -0.012  -0.718  -2.397  0.00  0.00    +0.005 A 
ATOM     24  C   UNL     1       0.632  -1.163  -3.534  0.00  0.00    +0.024 A 
ATOM     25  C   UNL     1       2.002  -1.382  -3.514  0.00  0.00    +0.044 A 
ATOM     26  C   UNL     1       2.722  -1.152  -2.350  0.00  0.00    +0.024 A 
ATOM     27  C   UNL     1       2.074  -0.702  -1.216  0.00  0.00    +0.005 A 
BRANCH  22  29
ATOM     28  C   UNL     1      -0.019   1.526   0.010  0.00  0.00    +0.009 C 
ATOM     29  C   UNL     1       0.002  -0.004   0.002  0.00  0.00    +0.032 C 
ENDBRANCH  22  29
ENDBRANCH   1  25
BRANCH   7  30
ATOM     30  C   UNL     1       6.641  -2.675  -6.978  0.00  0.00    +0.348 C 
ATOM     31  O   UNL     1       7.081  -2.700  -8.115  0.00  0.00    -0.248 OA
ATOM     32  O   UNL     1       7.302  -2.184  -6.079  0.00  0.00    -0.248 OA
ENDBRANCH   7  30
BRANCH   7  33
ATOM     33  C   UNL     1       5.392  -4.378  -5.654  0.00  0.00    +0.155 C 
BRANCH  33  34
ATOM     34  O   UNL     1       6.225  -5.417  -6.173  0.00  0.00    -0.396 OA
ATOM     35  H   UNL     1       6.341  -6.165  -5.572  0.00  0.00    +0.209 HD
ENDBRANCH  33  34
ENDBRANCH   7  33
TORSDOF 6
