REMARK  Name = ZINC65308131
REMARK  7 active torsions:
REMARK  status: ('A' for Active; 'I' for Inactive)
REMARK    1  A    between atoms: C_1  and  C_2
REMARK    2  A    between atoms: C_2  and  C_3
REMARK    3  A    between atoms: C_3  and  C_5
REMARK    4  A    between atoms: C_3  and  N_6
REMARK    5  A    between atoms: C_7  and  C_9
REMARK    6  A    between atoms: C_9  and  N_10
REMARK    7  A    between atoms: N_20  and  C_21
REMARK                            x       y       z     vdW  Elec       q    Type
REMARK                         _______ _______ _______ _____ _____    ______ ____
ROOT
ATOM      1  N   UNL     1       0.261   0.611  -6.351  0.00  0.00    -0.202 N 
ATOM      2  C   UNL     1       0.766  -0.443  -7.024  0.00  0.00    +0.353 A 
ATOM      3  O   UNL     1       0.437  -1.608  -6.884  0.00  0.00    -0.244 OA
ATOM      4  N   UNL     1       1.699   0.022  -7.878  0.00  0.00    -0.235 N 
ATOM      5  C   UNL     1       2.509  -0.618  -8.787  0.00  0.00    +0.102 A 
ATOM      6  C   UNL     1       3.370   0.107  -9.527  0.00  0.00    +0.062 A 
ATOM      7  C   UNL     1       3.426   1.511  -9.358  0.00  0.00    +0.128 A 
ATOM      8  N   UNL     1       2.643   2.107  -8.481  0.00  0.00    -0.195 NA
ATOM      9  C   UNL     1       1.777   1.394  -7.734  0.00  0.00    +0.258 A 
ATOM     10  N   UNL     1       0.909   1.762  -6.820  0.00  0.00    -0.127 NA
ATOM     11  N   UNL     1       4.306   2.260 -10.114  0.00  0.00    -0.299 N 
ATOM     12  H   UNL     1       4.825   1.837 -10.815  0.00  0.00    +0.154 HD
ENDROOT
BRANCH  11  13
ATOM     13  C   UNL     1       4.450   3.630  -9.867  0.00  0.00    +0.033 A 
ATOM     14  C   UNL     1       4.412   4.110  -8.565  0.00  0.00    +0.026 A 
ATOM     15  C   UNL     1       4.554   5.463  -8.324  0.00  0.00    +0.040 A 
ATOM     16  C   UNL     1       4.732   6.340  -9.380  0.00  0.00    +0.124 A 
ATOM     17  C   UNL     1       4.769   5.864 -10.680  0.00  0.00    +0.040 A 
ATOM     18  C   UNL     1       4.635   4.511 -10.925  0.00  0.00    +0.026 A 
ATOM     19  F   UNL     1       4.870   7.663  -9.142  0.00  0.00    -0.205 F 
ENDBRANCH  11  13
BRANCH   1  20
ATOM     20  C   UNL     1      -0.780   0.563  -5.322  0.00  0.00    +0.244 C 
BRANCH  20  22
ATOM     21  N   UNL     1      -0.911   0.322  -2.864  0.00  0.00    -0.311 N 
ATOM     22  C   UNL     1      -0.141   0.392  -3.968  0.00  0.00    +0.235 C 
ATOM     23  O   UNL     1       1.065   0.319  -3.872  0.00  0.00    -0.274 OA
ATOM     24  H   UNL     1      -1.876   0.381  -2.941  0.00  0.00    +0.149 HD
BRANCH  21  25
ATOM     25  C   UNL     1      -0.289   0.156  -1.548  0.00  0.00    +0.070 C 
ATOM     26  C   UNL     1      -0.035  -1.330  -1.287  0.00  0.00    +0.028 C 
BRANCH  25  28
ATOM     27  C   UNL     1      -1.378   2.221  -0.657  0.00  0.00    +0.005 C 
ATOM     28  C   UNL     1      -1.223   0.711  -0.470  0.00  0.00    +0.018 C 
ENDBRANCH  25  28
ENDBRANCH  21  25
ENDBRANCH  20  22
ENDBRANCH   1  20
TORSDOF 5
