REMARK  Name = ZINC64755556
REMARK  6 active torsions:
REMARK  status: ('A' for Active; 'I' for Inactive)
REMARK    1  A    between atoms: C_4  and  N_7
REMARK    2  A    between atoms: C_8  and  C_16
REMARK    3  A    between atoms: C_16  and  C_17
REMARK    4  A    between atoms: C_17  and  N_18
REMARK    5  A    between atoms: N_18  and  S_19
REMARK    6  A    between atoms: S_19  and  C_22
REMARK                            x       y       z     vdW  Elec       q    Type
REMARK                         _______ _______ _______ _____ _____    ______ ____
ROOT
ATOM      1  C   UNL     1       3.368  -1.720  -2.334  0.00  0.00    +0.091 C 
ENDROOT
BRANCH   1   3
ATOM      2  N   UNL     1       3.623  -0.652  -0.037  0.00  0.00    -0.281 N 
ATOM      3  C   UNL     1       4.095  -1.441  -1.044  0.00  0.00    +0.118 A 
ATOM      4  N   UNL     1       5.263  -1.919  -0.727  0.00  0.00    -0.230 NA
ATOM      5  C   UNL     1       5.620  -1.469   0.502  0.00  0.00    +0.109 A 
ATOM      6  C   UNL     1       4.576  -0.645   0.962  0.00  0.00    +0.165 A 
ATOM      7  N   UNL     1       4.658  -0.059   2.145  0.00  0.00    -0.235 NA
ATOM      8  C   UNL     1       5.708  -0.222   2.924  0.00  0.00    +0.113 A 
ATOM      9  C   UNL     1       6.776  -1.016   2.538  0.00  0.00    +0.022 A 
ATOM     10  C   UNL     1       6.740  -1.659   1.316  0.00  0.00    +0.033 A 
BRANCH   2  14
ATOM     11  C   UNL     1      -0.017   1.379   0.010  0.00  0.00    +0.000 A 
ATOM     12  C   UNL     1       1.170   2.089   0.002  0.00  0.00    +0.002 A 
ATOM     13  C   UNL     1       2.377   1.419  -0.013  0.00  0.00    +0.026 A 
ATOM     14  C   UNL     1       2.399   0.031  -0.021  0.00  0.00    +0.050 A 
ATOM     15  C   UNL     1       1.207  -0.680  -0.013  0.00  0.00    +0.026 A 
ATOM     16  C   UNL     1       0.002  -0.004   0.002  0.00  0.00    +0.002 A 
ENDBRANCH   2  14
ENDBRANCH   1   3
BRANCH   1  17
ATOM     17  C   UNL     1       3.754  -0.667  -3.375  0.00  0.00    +0.113 C 
BRANCH  17  18
ATOM     18  N   UNL     1       3.048  -0.938  -4.629  0.00  0.00    -0.189 NA
ATOM     19  H   UNL     1       2.624  -1.799  -4.771  0.00  0.00    +0.148 HD
BRANCH  18  20
ATOM     20  S   UNL     1       2.974   0.225  -5.806  0.00  0.00    +0.060 S 
ATOM     21  O   UNL     1       2.256  -0.343  -6.893  0.00  0.00    -0.153 OA
ATOM     22  O   UNL     1       2.563   1.425  -5.165  0.00  0.00    -0.153 OA
BRANCH  20  23
ATOM     23  C   UNL     1       4.619   0.495  -6.375  0.00  0.00    +0.131 A 
ATOM     24  C   UNL     1       4.957   0.191  -7.658  0.00  0.00    +0.031 A 
ATOM     25  C   UNL     1       6.252   0.397  -8.129  0.00  0.00    +0.003 A 
ATOM     26  C   UNL     1       7.217   0.910  -7.317  0.00  0.00    +0.010 A 
ATOM     27  C   UNL     1       6.904   1.236  -5.988  0.00  0.00    +0.002 A 
ATOM     28  C   UNL     1       5.586   1.033  -5.508  0.00  0.00    +0.097 A 
ATOM     29  N   UNL     1       5.282   1.346  -4.245  0.00  0.00    -0.253 NA
ATOM     30  C   UNL     1       6.181   1.847  -3.432  0.00  0.00    +0.111 A 
ATOM     31  C   UNL     1       7.492   2.077  -3.841  0.00  0.00    +0.020 A 
ATOM     32  C   UNL     1       7.873   1.769  -5.116  0.00  0.00    +0.011 A 
ENDBRANCH  20  23
ENDBRANCH  18  20
ENDBRANCH  17  18
ENDBRANCH   1  17
TORSDOF 6
