REMARK  Name = ZINC35916121
REMARK  8 active torsions:
REMARK  status: ('A' for Active; 'I' for Inactive)
REMARK    1  A    between atoms: C_1  and  C_2
REMARK    2  A    between atoms: C_5  and  C_8
REMARK    3  A    between atoms: C_8  and  N_9
REMARK    4  A    between atoms: N_13  and  C_16
REMARK    5  A    between atoms: C_19  and  N_22
REMARK    6  A    between atoms: N_22  and  S_23
REMARK    7  A    between atoms: S_23  and  C_26
REMARK    8  A    between atoms: C_29  and  C_32
REMARK                            x       y       z     vdW  Elec       q    Type
REMARK                         _______ _______ _______ _____ _____    ______ ____
ROOT
ATOM      1  C   UNL     1       3.757  -5.566   2.578  0.00  0.00    +0.038 A 
ATOM      2  C   UNL     1       4.795  -6.485   2.655  0.00  0.00    +0.025 A 
ATOM      3  C   UNL     1       5.443  -6.696   3.856  0.00  0.00    +0.026 A 
ATOM      4  C   UNL     1       5.056  -5.990   4.987  0.00  0.00    +0.048 A 
ATOM      5  C   UNL     1       4.017  -5.071   4.910  0.00  0.00    +0.026 A 
ATOM      6  C   UNL     1       3.373  -4.856   3.708  0.00  0.00    +0.025 A 
ENDROOT
BRANCH   1  11
ATOM      7  N   UNL     1       1.123  -5.547   0.095  0.00  0.00    -0.281 N 
ATOM      8  C   UNL     1       1.734  -4.926  -1.081  0.00  0.00    +0.111 C 
ATOM      9  C   UNL     1       2.830  -3.956  -0.626  0.00  0.00    +0.038 C 
ATOM     10  C   UNL     1       3.823  -4.721   0.255  0.00  0.00    +0.117 C 
ATOM     11  N   UNL     1       3.099  -5.352   1.359  0.00  0.00    -0.255 N 
ATOM     12  C   UNL     1       1.817  -5.725   1.229  0.00  0.00    +0.309 C 
ATOM     13  O   UNL     1       1.263  -6.251   2.176  0.00  0.00    -0.252 OA
BRANCH   7  14
ATOM     14  C   UNL     1      -0.276  -5.976   0.035  0.00  0.00    +0.144 C 
BRANCH  14  19
ATOM     15  C   UNL     1      -3.701  -1.628   1.696  0.00  0.00    +0.044 C 
ATOM     16  C   UNL     1      -2.808  -2.762   1.263  0.00  0.00    -0.050 A 
ATOM     17  C   UNL     1      -2.465  -2.902  -0.069  0.00  0.00    +0.003 A 
ATOM     18  C   UNL     1      -1.646  -3.942  -0.466  0.00  0.00    +0.005 A 
ATOM     19  C   UNL     1      -1.169  -4.842   0.468  0.00  0.00    -0.030 A 
ATOM     20  C   UNL     1      -1.511  -4.702   1.800  0.00  0.00    +0.005 A 
ATOM     21  C   UNL     1      -2.327  -3.659   2.199  0.00  0.00    +0.003 A 
ENDBRANCH  14  19
ENDBRANCH   7  14
ENDBRANCH   1  11
BRANCH   4  22
ATOM     22  N   UNL     1       5.712  -6.204   6.204  0.00  0.00    -0.216 N 
ATOM     23  H   UNL     1       5.534  -7.009   6.716  0.00  0.00    +0.174 HD
BRANCH  22  24
ATOM     24  S   UNL     1       6.791  -5.083   6.771  0.00  0.00    +0.072 S 
ATOM     25  O   UNL     1       6.141  -3.822   6.702  0.00  0.00    -0.150 OA
ATOM     26  O   UNL     1       7.317  -5.604   7.985  0.00  0.00    -0.150 OA
BRANCH  24  27
ATOM     27  C   UNL     1       8.130  -5.024   5.627  0.00  0.00    +0.109 A 
ATOM     28  C   UNL     1       9.252  -5.803   5.835  0.00  0.00    +0.029 A 
ATOM     29  C   UNL     1      10.303  -5.757   4.938  0.00  0.00    +0.005 A 
ATOM     30  C   UNL     1      10.230  -4.931   3.832  0.00  0.00    -0.050 A 
ATOM     31  C   UNL     1       9.107  -4.152   3.623  0.00  0.00    +0.005 A 
ATOM     32  C   UNL     1       8.055  -4.202   4.518  0.00  0.00    +0.029 A 
ATOM     33  C   UNL     1      11.376  -4.880   2.854  0.00  0.00    +0.044 C 
ENDBRANCH  24  27
ENDBRANCH  22  24
ENDBRANCH   4  22
TORSDOF 6
