REMARK  Name = ZINC15683888
REMARK  14 active torsions:
REMARK  status: ('A' for Active; 'I' for Inactive)
REMARK    1  A    between atoms: C_1  and  C_2
REMARK    2  A    between atoms: C_5  and  S_8
REMARK    3  A    between atoms: S_8  and  N_11
REMARK    4  A    between atoms: N_11  and  C_12
REMARK    5  A    between atoms: C_12  and  C_14
REMARK    6  A    between atoms: C_12  and  C_18
REMARK    7  A    between atoms: C_14  and  C_15
REMARK    8  A    between atoms: C_15  and  C_16
REMARK    9  A    between atoms: C_15  and  C_17
REMARK   10  A    between atoms: N_20  and  N_21
REMARK   11  A    between atoms: C_22  and  C_24
REMARK   12  A    between atoms: C_27  and  C_29
REMARK   13  A    between atoms: C_29  and  O_30
REMARK   14  A    between atoms: O_30  and  C_31
REMARK                            x       y       z     vdW  Elec       q    Type
REMARK                         _______ _______ _______ _____ _____    ______ ____
ROOT
ATOM      1  C   UNL     1      -6.009   2.627   0.433  0.00  0.00    +0.248 C 
ATOM      2  O   UNL     1      -5.579   3.740   0.214  0.00  0.00    -0.273 OA
ATOM      3  N   UNL     1      -5.230   1.713   1.045  0.00  0.00    -0.233 N 
ATOM      4  H   UNL     1      -5.588   0.837   1.260  0.00  0.00    +0.173 HD
ENDROOT
BRANCH   3   5
ATOM      5  N   UNL     1      -3.904   2.027   1.371  0.00  0.00    -0.228 N 
ATOM      6  C   UNL     1      -3.126   1.113   1.983  0.00  0.00    +0.295 C 
ATOM      7  O   UNL     1      -3.574   0.014   2.252  0.00  0.00    -0.265 OA
ATOM      8  H   UNL     1      -3.547   2.903   1.156  0.00  0.00    +0.173 HD
BRANCH   6   9
ATOM      9  C   UNL     1      -1.738   1.442   2.324  0.00  0.00    +0.191 A 
ATOM     10  C   UNL     1      -0.845   0.614   2.941  0.00  0.00    +0.055 A 
ATOM     11  C   UNL     1       0.354   1.332   3.063  0.00  0.00    +0.049 A 
ATOM     12  C   UNL     1       0.143   2.554   2.527  0.00  0.00    +0.143 A 
ATOM     13  O   UNL     1      -1.120   2.618   2.086  0.00  0.00    -0.452 OA
BRANCH  12  14
ATOM     14  C   UNL     1       1.159   3.663   2.440  0.00  0.00    +0.303 C 
BRANCH  14  15
ATOM     15  O   UNL     1       1.879   3.555   1.210  0.00  0.00    -0.484 OA
BRANCH  15  16
ATOM     16  C   UNL     1       2.840   4.485   0.974  0.00  0.00    +0.121 A 
ATOM     17  C   UNL     1       3.083   5.486   1.904  0.00  0.00    +0.045 A 
ATOM     18  C   UNL     1       4.065   6.427   1.664  0.00  0.00    +0.004 A 
ATOM     19  C   UNL     1       4.798   6.380   0.492  0.00  0.00    +0.000 A 
ATOM     20  C   UNL     1       4.554   5.387  -0.439  0.00  0.00    +0.004 A 
ATOM     21  C   UNL     1       3.577   4.440  -0.201  0.00  0.00    +0.045 A 
ENDBRANCH  15  16
ENDBRANCH  14  15
ENDBRANCH  12  14
ENDBRANCH   6   9
ENDBRANCH   3   5
BRANCH   1  22
ATOM     22  C   UNL     1      -7.413   2.267   0.022  0.00  0.00    +0.164 C 
BRANCH  22  23
ATOM     23  N   UNL     1      -8.145   3.484  -0.336  0.00  0.00    -0.178 NA
ATOM     24  H   UNL     1      -7.688   4.208  -0.792  0.00  0.00    +0.149 HD
BRANCH  23  25
ATOM     25  S   UNL     1      -9.752   3.625   0.039  0.00  0.00    +0.059 S 
ATOM     26  O   UNL     1     -10.153   4.924  -0.373  0.00  0.00    -0.153 OA
ATOM     27  O   UNL     1     -10.384   2.445  -0.438  0.00  0.00    -0.153 OA
BRANCH  25  32
ATOM     28  C   UNL     1     -10.197   3.509   6.055  0.00  0.00    +0.044 C 
ATOM     29  C   UNL     1     -10.086   3.538   4.553  0.00  0.00    -0.050 A 
ATOM     30  C   UNL     1      -9.922   4.743   3.895  0.00  0.00    +0.005 A 
ATOM     31  C   UNL     1      -9.821   4.769   2.516  0.00  0.00    +0.029 A 
ATOM     32  C   UNL     1      -9.881   3.591   1.796  0.00  0.00    +0.105 A 
ATOM     33  C   UNL     1     -10.049   2.387   2.454  0.00  0.00    +0.029 A 
ATOM     34  C   UNL     1     -10.147   2.360   3.832  0.00  0.00    +0.005 A 
ENDBRANCH  25  32
ENDBRANCH  23  25
ENDBRANCH  22  23
BRANCH  22  35
ATOM     35  C   UNL     1      -7.365   1.327  -1.185  0.00  0.00    +0.033 C 
BRANCH  35  36
ATOM     36  C   UNL     1      -6.636   0.039  -0.800  0.00  0.00    -0.015 C 
ATOM     37  C   UNL     1      -7.460  -0.722   0.240  0.00  0.00    +0.007 C 
ATOM     38  C   UNL     1      -6.452  -0.834  -2.043  0.00  0.00    +0.007 C 
ENDBRANCH  35  36
ENDBRANCH  22  35
ENDBRANCH   1  22
TORSDOF 11
