REMARK  Name = ZINC39623413
REMARK  9 active torsions:
REMARK  status: ('A' for Active; 'I' for Inactive)
REMARK    1  A    between atoms: C_1  and  C_2
REMARK    2  A    between atoms: C_2  and  C_3
REMARK    3  A    between atoms: C_3  and  C_4
REMARK    4  A    between atoms: C_4  and  C_5
REMARK    5  A    between atoms: C_5  and  N_6
REMARK    6  A    between atoms: C_7  and  C_9
REMARK    7  A    between atoms: C_20  and  C_22
REMARK    8  A    between atoms: C_23  and  C_35
REMARK    9  A    between atoms: C_26  and  C_27
REMARK                            x       y       z     vdW  Elec       q    Type
REMARK                         _______ _______ _______ _____ _____    ______ ____
ROOT
ATOM      1  C   UNL     1      -2.266  -6.078  -0.437  0.00  0.00    +0.100 C 
ATOM      2  C   UNL     1      -1.962  -6.668   0.959  0.00  0.00    +0.121 C 
ATOM      3  N   UNL     1      -3.294  -6.912   1.561  0.00  0.00    -0.296 N 
ATOM      4  C   UNL     1      -4.119  -7.419   0.438  0.00  0.00    +0.115 C 
ATOM      5  C   UNL     1      -3.681  -6.576  -0.776  0.00  0.00    -0.004 C 
ATOM      6  C   UNL     1      -4.627  -5.394  -0.964  0.00  0.00    -0.010 C 
ATOM      7  C   UNL     1      -6.013  -5.912  -1.356  0.00  0.00    -0.082 C 
ATOM      8  N   UNL     1      -5.914  -6.688  -2.599  0.00  0.00    +0.379 N 
ATOM      9  C   UNL     1      -5.077  -7.874  -2.383  0.00  0.00    -0.082 C 
ATOM     10  C   UNL     1      -3.651  -7.439  -2.034  0.00  0.00    -0.010 C 
ATOM     11  C   UNL     1      -3.671  -6.716   2.840  0.00  0.00    +0.252 C 
ATOM     12  O   UNL     1      -4.810  -6.966   3.183  0.00  0.00    -0.270 OA
ATOM     13  H   UNL     1      -6.837  -6.977  -2.888  0.00  0.00    -0.086 HD
ATOM     14  H   UNL     1      -5.503  -6.114  -3.320  0.00  0.00    -0.086 HD
ENDROOT
BRANCH  11  15
ATOM     15  C   UNL     1      -2.702  -6.200   3.822  0.00  0.00    +0.106 A 
ATOM     16  C   UNL     1      -2.559  -4.903   4.219  0.00  0.00    +0.147 A 
ATOM     17  O   UNL     1      -1.575  -4.846   5.120  0.00  0.00    -0.359 OA
ATOM     18  N   UNL     1      -1.050  -6.143   5.326  0.00  0.00    -0.077 NA
ATOM     19  C   UNL     1      -1.706  -6.984   4.568  0.00  0.00    +0.128 A 
ATOM     20  C   UNL     1      -3.372  -3.733   3.725  0.00  0.00    +0.090 C 
BRANCH  19  21
ATOM     21  C   UNL     1      -1.486  -8.447   4.476  0.00  0.00    +0.041 A 
ATOM     22  C   UNL     1      -0.241  -8.945   4.090  0.00  0.00    +0.052 A 
ATOM     23  C   UNL     1      -0.042 -10.309   4.006  0.00  0.00    +0.021 A 
ATOM     24  C   UNL     1      -1.073 -11.181   4.304  0.00  0.00    +0.003 A 
ATOM     25  C   UNL     1      -2.310 -10.694   4.687  0.00  0.00    +0.021 A 
ATOM     26  C   UNL     1      -2.520  -9.332   4.781  0.00  0.00    +0.052 A 
ATOM     27 CL   UNL     1      -4.070  -8.723   5.269  0.00  0.00    -0.083 Cl
ATOM     28 CL   UNL     1       1.055  -7.852   3.716  0.00  0.00    -0.083 Cl
ENDBRANCH  19  21
ENDBRANCH  11  15
BRANCH   1  30
ATOM     29  N   UNL     1      -1.920  -3.868  -1.492  0.00  0.00    -0.315 N 
ATOM     30  C   UNL     1      -2.238  -4.572  -0.387  0.00  0.00    +0.218 C 
ATOM     31  O   UNL     1      -2.501  -3.994   0.646  0.00  0.00    -0.275 OA
ATOM     32  H   UNL     1      -1.710  -4.330  -2.318  0.00  0.00    +0.149 HD
BRANCH  29  33
ATOM     33  C   UNL     1      -1.893  -2.404  -1.444  0.00  0.00    +0.104 C 
BRANCH  33  34
ATOM     34  C   UNL     1      -1.506  -1.856  -2.819  0.00  0.00    +0.019 C 
BRANCH  34  35
ATOM     35  C   UNL     1      -1.477  -0.327  -2.769  0.00  0.00    +0.001 C 
BRANCH  35  37
ATOM     36  C   UNL     1      -1.062   1.750  -4.094  0.00  0.00    +0.004 C 
ATOM     37  C   UNL     1      -1.091   0.221  -4.144  0.00  0.00    -0.003 C 
ENDBRANCH  35  37
ENDBRANCH  34  35
ENDBRANCH  33  34
ENDBRANCH  29  33
ENDBRANCH   1  30
TORSDOF 7
