REMARK  Name = ZINC04935380
REMARK  7 active torsions:
REMARK  status: ('A' for Active; 'I' for Inactive)
REMARK    1  A    between atoms: C_1  and  C_2
REMARK    2  A    between atoms: C_2  and  N_3
REMARK    3  A    between atoms: C_12  and  S_13
REMARK    4  A    between atoms: S_13  and  C_14
REMARK    5  A    between atoms: C_14  and  C_16
REMARK    6  A    between atoms: C_14  and  C_17
REMARK    7  A    between atoms: C_21  and  C_25
REMARK                            x       y       z     vdW  Elec       q    Type
REMARK                         _______ _______ _______ _____ _____    ______ ____
ROOT
ATOM      1  N   UNL     1      -1.176  -0.693   0.015  0.00  0.00    -0.288 N 
ATOM      2  C   UNL     1      -1.198  -2.039   0.004  0.00  0.00    +0.263 A 
ATOM      3  O   UNL     1      -2.258  -2.640   0.011  0.00  0.00    -0.267 OA
ATOM      4  C   UNL     1       0.042  -2.754  -0.013  0.00  0.00    +0.076 A 
ATOM      5  C   UNL     1       0.252  -4.203  -0.023  0.00  0.00    -0.023 A 
ATOM      6  C   UNL     1       1.529  -4.636  -0.039  0.00  0.00    -0.004 A 
ATOM      7  S   UNL     1       2.515  -3.162  -0.040  0.00  0.00    -0.073 S 
ATOM      8  C   UNL     1       1.204  -1.965  -0.020  0.00  0.00    +0.117 A 
ATOM      9  N   UNL     1       1.157  -0.638  -0.012  0.00  0.00    -0.216 NA
ATOM     10  C   UNL     1       0.002  -0.004   0.002  0.00  0.00    +0.173 A 
ATOM     11  C   UNL     1       2.006  -6.056  -0.052  0.00  0.00    +0.046 C 
ATOM     12  C   UNL     1       0.829  -6.966   0.328  0.00  0.00    -0.009 C 
ATOM     13  C   UNL     1      -0.396  -6.555  -0.494  0.00  0.00    +0.008 C 
ATOM     14  C   UNL     1      -0.908  -5.195  -0.018  0.00  0.00    +0.037 C 
ATOM     15  C   UNL     1       1.189  -8.422   0.026  0.00  0.00    +0.008 C 
ENDROOT
BRANCH   1  17
ATOM     16  C   UNL     1      -2.902   0.311  -1.397  0.00  0.00    +0.027 C 
ATOM     17  C   UNL     1      -2.441   0.046   0.037  0.00  0.00    +0.124 C 
ENDBRANCH   1  17
BRANCH  10  18
ATOM     18  S   UNL     1      -0.022   1.758   0.012  0.00  0.00    -0.075 S 
BRANCH  18  19
ATOM     19  C   UNL     1       1.756   2.096  -0.004  0.00  0.00    +0.137 C 
ATOM     20  C   UNL     1       2.359   1.600  -1.319  0.00  0.00    +0.029 C 
BRANCH  19  21
ATOM     21  C   UNL     1       1.986   3.580   0.126  0.00  0.00    +0.224 C 
ATOM     22  O   UNL     1       1.094   4.357  -0.141  0.00  0.00    -0.275 OA
ATOM     23  N   UNL     1       3.183   4.043   0.538  0.00  0.00    -0.328 N 
ATOM     24  H   UNL     1       3.896   3.421   0.752  0.00  0.00    +0.145 HD
ATOM     25  H   UNL     1       3.331   4.998   0.622  0.00  0.00    +0.145 HD
ENDBRANCH  19  21
ENDBRANCH  18  19
ENDBRANCH  10  18
TORSDOF 4
