REMARK  Name = ZINC47962786
REMARK  5 active torsions:
REMARK  status: ('A' for Active; 'I' for Inactive)
REMARK    1  A    between atoms: C_1  and  C_2
REMARK    2  A    between atoms: C_7  and  N_25
REMARK    3  A    between atoms: C_12  and  C_14
REMARK    4  A    between atoms: N_16  and  C_17
REMARK    5  A    between atoms: C_17  and  C_18
REMARK                            x       y       z     vdW  Elec       q    Type
REMARK                         _______ _______ _______ _____ _____    ______ ____
ROOT
ATOM      1  C   UNL     1       0.068   1.591   0.038  0.00  0.00    +0.029 C 
ATOM      2  C   UNL     1       0.043   0.062  -0.000  0.00  0.00    +0.083 C 
ATOM      3  C   UNL     1       0.680  -0.450  -1.303  0.00  0.00    +0.059 C 
ATOM      4  C   UNL     1       1.862  -1.276  -0.849  0.00  0.00    -0.022 A 
ATOM      5  C   UNL     1       2.805  -1.982  -1.571  0.00  0.00    +0.038 A 
ATOM      6  C   UNL     1       3.807  -2.672  -0.915  0.00  0.00    +0.127 A 
ATOM      7  C   UNL     1       3.865  -2.655   0.466  0.00  0.00    +0.034 A 
ATOM      8  C   UNL     1       2.926  -1.952   1.191  0.00  0.00    +0.026 A 
ATOM      9  C   UNL     1       1.910  -1.252   0.536  0.00  0.00    +0.040 A 
ATOM     10  N   UNL     1       0.872  -0.487   1.076  0.00  0.00    -0.260 N 
ATOM     11  C   UNL     1       0.663  -0.283   2.392  0.00  0.00    +0.306 C 
ATOM     12  O   UNL     1       1.472  -0.684   3.204  0.00  0.00    -0.265 OA
ENDROOT
BRANCH  11  13
ATOM     13  C   UNL     1      -0.563   0.436   2.851  0.00  0.00    +0.300 C 
ATOM     14  O   UNL     1      -1.424   0.738   2.051  0.00  0.00    -0.265 OA
ATOM     15  N   UNL     1      -0.713   0.748   4.154  0.00  0.00    -0.303 N 
ATOM     16  H   UNL     1      -0.024   0.506   4.793  0.00  0.00    +0.149 HD
BRANCH  15  17
ATOM     17  C   UNL     1      -1.915   1.453   4.604  0.00  0.00    +0.141 C 
BRANCH  17  18
ATOM     18  C   UNL     1      -1.837   1.681   6.092  0.00  0.00    -0.012 A 
ATOM     19  C   UNL     1      -2.517   0.843   6.956  0.00  0.00    +0.006 A 
ATOM     20  C   UNL     1      -2.445   1.052   8.320  0.00  0.00    +0.000 A 
ATOM     21  C   UNL     1      -1.693   2.098   8.822  0.00  0.00    +0.001 A 
ATOM     22  C   UNL     1      -1.012   2.935   7.959  0.00  0.00    +0.020 A 
ATOM     23  C   UNL     1      -1.079   2.724   6.593  0.00  0.00    +0.046 A 
ATOM     24 CL   UNL     1      -0.219   3.772   5.509  0.00  0.00    -0.083 Cl
ENDBRANCH  17  18
ENDBRANCH  15  17
ENDBRANCH  11  13
BRANCH   6  25
ATOM     25  N   UNL     1       4.817  -3.428  -1.690  0.00  0.00    +0.056 N 
ATOM     26  O   UNL     1       4.765  -3.442  -2.898  0.00  0.00    -0.126 OA
ATOM     27  O   UNL     1       5.693  -4.031  -1.116  0.00  0.00    -0.126 OA
ENDBRANCH   6  25
TORSDOF 4
