REMARK  Name = ZINC02499773
REMARK  8 active torsions:
REMARK  status: ('A' for Active; 'I' for Inactive)
REMARK    1  A    between atoms: C_1  and  C_2
REMARK    2  A    between atoms: C_2  and  C_3
REMARK    3  A    between atoms: C_2  and  C_4
REMARK    4  A    between atoms: C_4  and  C_5
REMARK    5  A    between atoms: C_5  and  N_6
REMARK    6  A    between atoms: C_7  and  C_9
REMARK    7  A    between atoms: N_14  and  S_16
REMARK    8  A    between atoms: S_16  and  N_19
REMARK                            x       y       z     vdW  Elec       q    Type
REMARK                         _______ _______ _______ _____ _____    ______ ____
ROOT
ATOM      1  C   UNL     1      -4.761   1.483   4.061  0.00  0.00    +0.091 C 
ATOM      2  C   UNL     1      -4.896   3.007   4.008  0.00  0.00    +0.015 C 
ATOM      3  C   UNL     1      -5.583   3.504   5.282  0.00  0.00    +0.018 C 
ATOM      4  C   UNL     1      -6.987   2.897   5.371  0.00  0.00    +0.110 C 
ATOM      5  N   UNL     1      -6.877   1.435   5.277  0.00  0.00    -0.166 NA
ATOM      6  C   UNL     1      -6.156   0.853   4.136  0.00  0.00    +0.123 C 
ENDROOT
BRANCH   1   8
ATOM      7  N   UNL     1      -2.807   1.422   2.546  0.00  0.00    -0.315 N 
ATOM      8  C   UNL     1      -4.056   0.997   2.822  0.00  0.00    +0.217 C 
ATOM      9  O   UNL     1      -4.612   0.224   2.071  0.00  0.00    -0.275 OA
ATOM     10  H   UNL     1      -2.362   2.041   3.147  0.00  0.00    +0.149 HD
BRANCH   7  11
ATOM     11  C   UNL     1      -2.121   0.950   1.341  0.00  0.00    +0.104 C 
BRANCH  11  12
ATOM     12  C   UNL     1      -0.729   1.579   1.267  0.00  0.00    +0.022 C 
BRANCH  12  14
ATOM     13  C   UNL     1       1.423   1.615  -0.003  0.00  0.00    +0.007 C 
ATOM     14  C   UNL     1      -0.013   1.086   0.008  0.00  0.00    -0.016 C 
ATOM     15  C   UNL     1      -0.753   1.593  -1.232  0.00  0.00    +0.007 C 
ENDBRANCH  12  14
ENDBRANCH  11  12
ENDBRANCH   7  11
ENDBRANCH   1   8
BRANCH   5  16
ATOM     16  S   UNL     1      -7.553   0.462   6.433  0.00  0.00    +0.100 S 
ATOM     17  O   UNL     1      -8.597   1.213   7.037  0.00  0.00    -0.141 OA
ATOM     18  O   UNL     1      -7.779  -0.800   5.821  0.00  0.00    -0.141 OA
BRANCH  16  19
ATOM     19  N   UNL     1      -6.406   0.222   7.603  0.00  0.00    -0.166 NA
ATOM     20  C   UNL     1      -5.513  -0.908   7.476  0.00  0.00    +0.110 C 
ATOM     21  C   UNL     1      -6.131  -2.146   8.158  0.00  0.00    +0.017 C 
ATOM     22  C   UNL     1      -6.114  -1.986   9.620  0.00  0.00    +0.001 C 
ATOM     23  C   UNL     1      -6.946  -0.814  10.133  0.00  0.00    +0.001 C 
ATOM     24  C   UNL     1      -6.120   0.448  10.079  0.00  0.00    +0.017 C 
ATOM     25  C   UNL     1      -6.341   1.166   8.735  0.00  0.00    +0.110 C 
ENDBRANCH  16  19
ENDBRANCH   5  16
TORSDOF 6
