REMARK  Name = ZINC08438946
REMARK  4 active torsions:
REMARK  status: ('A' for Active; 'I' for Inactive)
REMARK    1  A    between atoms: C_1  and  C_2
REMARK    2  A    between atoms: C_10  and  N_15
REMARK    3  A    between atoms: N_15  and  S_16
REMARK    4  A    between atoms: S_16  and  C_19
REMARK                            x       y       z     vdW  Elec       q    Type
REMARK                         _______ _______ _______ _____ _____    ______ ____
ROOT
ATOM      1  C   UNL     1      -1.517   3.660  -2.421  0.00  0.00    +0.008 C 
ATOM      2  C   UNL     1      -0.996   3.104  -1.094  0.00  0.00    -0.009 C 
ATOM      3  C   UNL     1      -0.761   1.597  -1.228  0.00  0.00    +0.011 C 
ATOM      4  C   UNL     1      -0.013   1.086   0.008  0.00  0.00    +0.075 C 
ATOM      5  C   UNL     1      -0.727   1.577   1.246  0.00  0.00    +0.109 A 
ATOM      6  C   UNL     1      -1.625   2.584   1.235  0.00  0.00    +0.002 A 
ATOM      7  C   UNL     1      -2.081   2.740   2.603  0.00  0.00    +0.025 A 
ATOM      8  C   UNL     1      -2.994   3.605   3.211  0.00  0.00    +0.036 A 
ATOM      9  C   UNL     1      -3.179   3.456   4.580  0.00  0.00    +0.049 A 
ATOM     10  C   UNL     1      -2.490   2.493   5.309  0.00  0.00    +0.028 A 
ATOM     11  C   UNL     1      -1.583   1.631   4.719  0.00  0.00    +0.049 A 
ATOM     12  C   UNL     1      -1.380   1.760   3.348  0.00  0.00    +0.136 A 
ATOM     13  O   UNL     1      -0.590   1.098   2.495  0.00  0.00    -0.459 OA
ATOM     14  C   UNL     1      -2.031   3.359   0.009  0.00  0.00    +0.042 C 
ENDROOT
BRANCH   9  15
ATOM     15  N   UNL     1      -4.082   4.295   5.242  0.00  0.00    -0.216 N 
ATOM     16  H   UNL     1      -4.955   4.469   4.856  0.00  0.00    +0.174 HD
BRANCH  15  17
ATOM     17  S   UNL     1      -3.661   4.993   6.683  0.00  0.00    +0.072 S 
ATOM     18  O   UNL     1      -4.762   5.798   7.082  0.00  0.00    -0.150 OA
ATOM     19  O   UNL     1      -3.141   3.954   7.501  0.00  0.00    -0.150 OA
BRANCH  17  20
ATOM     20  C   UNL     1      -2.324   6.094   6.358  0.00  0.00    +0.109 A 
ATOM     21  C   UNL     1      -1.020   5.641   6.437  0.00  0.00    +0.030 A 
ATOM     22  C   UNL     1       0.028   6.503   6.177  0.00  0.00    +0.017 A 
ATOM     23  C   UNL     1      -0.227   7.822   5.848  0.00  0.00    +0.018 A 
ATOM     24  C   UNL     1      -1.531   8.277   5.774  0.00  0.00    +0.017 A 
ATOM     25  C   UNL     1      -2.579   7.412   6.029  0.00  0.00    +0.030 A 
ATOM     26 BR   UNL     1       1.208   9.004   5.499  0.00  0.00    -0.050 Br
ENDBRANCH  17  20
ENDBRANCH  15  17
ENDBRANCH   9  15
TORSDOF 3
