REMARK  Name = ZINC35790672
REMARK  4 active torsions:
REMARK  status: ('A' for Active; 'I' for Inactive)
REMARK    1  A    between atoms: C_5  and  C_7
REMARK    2  A    between atoms: C_7  and  N_8
REMARK    3  A    between atoms: C_17  and  C_19
REMARK    4  A    between atoms: C_24  and  N_25
REMARK                            x       y       z     vdW  Elec       q    Type
REMARK                         _______ _______ _______ _____ _____    ______ ____
ROOT
ATOM      1  N   UNL     1       1.658  -2.110  -0.561  0.00  0.00    +0.391 N 
ATOM      2  C   UNL     1       3.050  -1.699  -0.761  0.00  0.00    -0.075 C 
ATOM      3  C   UNL     1       3.736  -1.420   0.570  0.00  0.00    +0.003 C 
ATOM      4  C   UNL     1       2.725  -0.836   1.561  0.00  0.00    +0.119 C 
ATOM      5  N   UNL     1       2.063  -1.937   2.271  0.00  0.00    -0.352 N 
ATOM      6  C   UNL     1       1.847  -2.020   3.613  0.00  0.00    +0.086 A 
ATOM      7  C   UNL     1       1.195  -3.174   3.864  0.00  0.00    +0.019 A 
ATOM      8  C   UNL     1       1.007  -3.830   2.631  0.00  0.00    +0.021 A 
ATOM      9  C   UNL     1       1.554  -3.055   1.674  0.00  0.00    +0.010 A 
ATOM     10  C   UNL     1       1.609  -3.367   0.199  0.00  0.00    +0.013 C 
ATOM     11  H   UNL     1       1.168  -1.391  -0.051  0.00  0.00    -0.080 HD
ENDROOT
BRANCH  10  12
ATOM     12  C   UNL     1       0.382  -4.147  -0.197  0.00  0.00    -0.025 A 
ATOM     13  C   UNL     1      -0.861  -3.542  -0.167  0.00  0.00    +0.004 A 
ATOM     14  C   UNL     1      -1.987  -4.257  -0.530  0.00  0.00    +0.000 A 
ATOM     15  C   UNL     1      -1.870  -5.577  -0.924  0.00  0.00    +0.002 A 
ATOM     16  C   UNL     1      -0.627  -6.181  -0.956  0.00  0.00    +0.033 A 
ATOM     17  C   UNL     1       0.499  -5.465  -0.597  0.00  0.00    +0.128 A 
BRANCH  17  18
ATOM     18  N   UNL     1       1.831  -6.111  -0.635  0.00  0.00    +0.057 N 
ATOM     19  O   UNL     1       2.106  -6.875  -1.530  0.00  0.00    -0.126 OA
ATOM     20  O   UNL     1       2.643  -5.873   0.228  0.00  0.00    -0.126 OA
ENDBRANCH  17  18
ENDBRANCH  10  12
BRANCH   1  21
ATOM     21  C   UNL     1       1.015  -2.305  -1.867  0.00  0.00    -0.039 C 
BRANCH  21  26
ATOM     22  C   UNL     1      -0.190   0.963  -3.325  0.00  0.00    +0.000 A 
ATOM     23  C   UNL     1       0.941   1.405  -3.987  0.00  0.00    +0.003 A 
ATOM     24  C   UNL     1       2.096   0.647  -3.964  0.00  0.00    +0.038 A 
ATOM     25  C   UNL     1       2.121  -0.555  -3.277  0.00  0.00    +0.125 A 
ATOM     26  C   UNL     1       0.989  -0.997  -2.615  0.00  0.00    -0.029 A 
ATOM     27  C   UNL     1      -0.166  -0.237  -2.639  0.00  0.00    +0.004 A 
ATOM     28  F   UNL     1       3.250  -1.297  -3.254  0.00  0.00    -0.205 F 
ENDBRANCH  21  26
ENDBRANCH   1  21
TORSDOF 4
