REMARK  Name = ZINC43138322
REMARK  9 active torsions:
REMARK  status: ('A' for Active; 'I' for Inactive)
REMARK    1  A    between atoms: C_1  and  N_2
REMARK    2  A    between atoms: N_2  and  C_3
REMARK    3  A    between atoms: N_2  and  C_4
REMARK    4  A    between atoms: C_4  and  C_6
REMARK    5  A    between atoms: C_4  and  C_25
REMARK    6  A    between atoms: C_6  and  N_7
REMARK    7  A    between atoms: N_10  and  N_11
REMARK    8  A    between atoms: C_12  and  C_14
REMARK    9  A    between atoms: C_14  and  C_15
REMARK                            x       y       z     vdW  Elec       q    Type
REMARK                         _______ _______ _______ _____ _____    ______ ____
ROOT
ATOM      1  N   UNL     1      -1.702   1.302  -1.405  0.00  0.00    -0.299 N 
ATOM      2  C   UNL     1      -2.076   1.923  -2.541  0.00  0.00    +0.316 C 
ATOM      3  O   UNL     1      -2.647   1.300  -3.415  0.00  0.00    -0.251 OA
ATOM      4  N   UNL     1      -1.817   3.235  -2.708  0.00  0.00    -0.218 N 
ATOM      5  H   UNL     1      -1.246   1.799  -0.708  0.00  0.00    +0.150 HD
ATOM      6  H   UNL     1      -2.087   3.683  -3.525  0.00  0.00    +0.174 HD
ENDROOT
BRANCH   4   7
ATOM      7  N   UNL     1      -1.160   3.953  -1.700  0.00  0.00    -0.233 N 
ATOM      8  C   UNL     1      -0.901   5.266  -1.867  0.00  0.00    +0.230 C 
ATOM      9  O   UNL     1      -1.238   5.825  -2.889  0.00  0.00    -0.274 OA
ATOM     10  H   UNL     1      -0.890   3.506  -0.883  0.00  0.00    +0.173 HD
BRANCH   8  11
ATOM     11  C   UNL     1      -0.194   6.038  -0.783  0.00  0.00    +0.104 C 
BRANCH  11  12
ATOM     12  C   UNL     1      -0.026   7.494  -1.222  0.00  0.00    -0.020 C 
ATOM     13  C   UNL     1       0.800   7.547  -2.508  0.00  0.00    +0.011 C 
ATOM     14  C   UNL     1       0.968   9.004  -2.946  0.00  0.00    -0.010 C 
ATOM     15  C   UNL     1       1.687   9.788  -1.846  0.00  0.00    +0.007 C 
ATOM     16  C   UNL     1       0.860   9.734  -0.559  0.00  0.00    -0.010 C 
ATOM     17  C   UNL     1       0.693   8.278  -0.121  0.00  0.00    +0.011 C 
ATOM     18  C   UNL     1      -0.516  10.353  -0.811  0.00  0.00    +0.007 C 
ATOM     19  C   UNL     1      -1.234   9.569  -1.911  0.00  0.00    -0.010 C 
ATOM     20  C   UNL     1      -0.408   9.623  -3.198  0.00  0.00    +0.007 C 
ATOM     21  C   UNL     1      -1.402   8.113  -1.473  0.00  0.00    +0.011 C 
ENDBRANCH  11  12
ENDBRANCH   8  11
ENDBRANCH   4   7
BRANCH   1  22
ATOM     22  C   UNL     1      -1.983  -0.125  -1.224  0.00  0.00    +0.098 C 
BRANCH  22  23
ATOM     23  C   UNL     1      -1.371  -0.601   0.095  0.00  0.00    +0.016 C 
BRANCH  23  24
ATOM     24  C   UNL     1       0.130  -0.488   0.023  0.00  0.00    +0.093 A 
ATOM     25  C   UNL     1       0.983  -1.497  -0.231  0.00  0.00    +0.043 A 
ATOM     26  C   UNL     1       2.285  -0.948  -0.204  0.00  0.00    +0.041 A 
ATOM     27  C   UNL     1       2.150   0.363   0.065  0.00  0.00    +0.195 A 
ATOM     28  O   UNL     1       0.842   0.637   0.196  0.00  0.00    -0.469 OA
ENDBRANCH  23  24
BRANCH  23  30
ATOM     29  C   UNL     1      -3.338   0.143   1.249  0.00  0.00    -0.096 C 
ATOM     30  N   UNL     1      -1.873   0.232   1.196  0.00  0.00    +0.384 N 
ATOM     31  C   UNL     1      -1.308  -0.244   2.466  0.00  0.00    -0.096 C 
ATOM     32  H   UNL     1      -1.599   1.191   1.044  0.00  0.00    -0.082 HD
ENDBRANCH  23  30
ENDBRANCH  22  23
ENDBRANCH   1  22
TORSDOF 7
