REMARK  Name = ZINC14250265
REMARK  6 active torsions:
REMARK  status: ('A' for Active; 'I' for Inactive)
REMARK    1  A    between atoms: C_1  and  C_2
REMARK    2  A    between atoms: C_2  and  N_3
REMARK    3  A    between atoms: C_4  and  C_24
REMARK    4  A    between atoms: N_6  and  C_9
REMARK    5  A    between atoms: C_9  and  N_60
REMARK    6  A    between atoms: C_12  and  C_15
REMARK                            x       y       z     vdW  Elec       q    Type
REMARK                         _______ _______ _______ _____ _____    ______ ____
ROOT
ATOM      1  C   UNL     1       2.219  -1.590  -2.091  0.00  0.00    -0.075 C 
ATOM      2  C   UNL     1       2.204  -2.015  -3.561  0.00  0.00    -0.006 C 
ATOM      3  C   UNL     1       3.340  -3.011  -3.811  0.00  0.00    +0.072 C 
ATOM      4  C   UNL     1       3.172  -4.210  -2.874  0.00  0.00    -0.006 C 
ATOM      5  C   UNL     1       3.159  -3.721  -1.424  0.00  0.00    -0.075 C 
ATOM      6  N   UNL     1       2.029  -2.786  -1.243  0.00  0.00    +0.393 N 
ATOM      7  H   UNL     1       1.159  -3.256  -1.521  0.00  0.00    -0.079 HD
ENDROOT
BRANCH   3   8
ATOM      8  C   UNL     1       3.293  -3.480  -5.242  0.00  0.00    +0.219 C 
ATOM      9  O   UNL     1       2.835  -4.571  -5.508  0.00  0.00    -0.275 OA
ATOM     10  N   UNL     1       3.760  -2.687  -6.226  0.00  0.00    -0.301 N 
ATOM     11  C   UNL     1       3.612  -3.122  -7.597  0.00  0.00    +0.108 C 
ATOM     12  C   UNL     1       4.834  -3.966  -8.015  0.00  0.00    +0.019 C 
ATOM     13  C   UNL     1       6.020  -3.108  -8.160  0.00  0.00    +0.002 C 
ATOM     14  C   UNL     1       6.458  -2.419  -6.871  0.00  0.00    +0.002 C 
ATOM     15  C   UNL     1       5.673  -1.143  -6.695  0.00  0.00    +0.019 C 
ATOM     16  C   UNL     1       4.407  -1.412  -5.861  0.00  0.00    +0.108 C 
ENDBRANCH   3   8
BRANCH   6  17
ATOM     17  C   UNL     1       1.926  -2.387   0.176  0.00  0.00    +0.072 C 
BRANCH  17  21
ATOM     18  N   UNL     1      -0.848  -0.119   0.533  0.00  0.00    -0.303 N 
ATOM     19  C   UNL     1       0.198   0.772   0.383  0.00  0.00    +0.169 A 
ATOM     20  N   UNL     1       1.303   0.092   0.239  0.00  0.00    -0.152 NA
ATOM     21  N   UNL     1       0.983  -1.271   0.294  0.00  0.00    -0.257 N 
ATOM     22  C   UNL     1      -0.349  -1.369   0.475  0.00  0.00    +0.177 A 
ATOM     23  S   UNL     1      -1.246  -2.822   0.609  0.00  0.00    -0.011 S 
BRANCH  19  24
ATOM     24  C   UNL     1       0.084   2.241   0.385  0.00  0.00    +0.056 A 
ATOM     25  C   UNL     1       1.071   3.184   0.521  0.00  0.00    +0.019 A 
ATOM     26  C   UNL     1       0.722   4.515   0.492  0.00  0.00    +0.008 A 
ATOM     27  C   UNL     1      -0.583   4.854   0.330  0.00  0.00    +0.046 A 
ATOM     28  S   UNL     1      -1.372   3.257   0.203  0.00  0.00    -0.094 S 
ENDBRANCH  19  24
BRANCH  18  30
ATOM     29  C   UNL     1      -2.561   0.369   2.209  0.00  0.00    +0.027 C 
ATOM     30  C   UNL     1      -2.258   0.235   0.715  0.00  0.00    +0.122 C 
ENDBRANCH  18  30
ENDBRANCH  17  21
ENDBRANCH   6  17
TORSDOF 5
