REMARK  Name = ZINC35191862
REMARK  9 active torsions:
REMARK  status: ('A' for Active; 'I' for Inactive)
REMARK    1  A    between atoms: C_1  and  C_2
REMARK    2  A    between atoms: C_5  and  C_8
REMARK    3  A    between atoms: C_11  and  C_25
REMARK    4  A    between atoms: C_15  and  C_17
REMARK    5  A    between atoms: N_27  and  C_28
REMARK    6  A    between atoms: C_28  and  C_29
REMARK    7  A    between atoms: C_29  and  C_30
REMARK    8  A    between atoms: C_30  and  C_31
REMARK    9  A    between atoms: C_30  and  C_32
REMARK                            x       y       z     vdW  Elec       q    Type
REMARK                         _______ _______ _______ _____ _____    ______ ____
ROOT
ATOM      1  C   UNL     1       1.635  -5.107  -0.370  0.00  0.00    +0.248 C 
ATOM      2  O   UNL     1       1.386  -5.898  -1.259  0.00  0.00    -0.270 OA
ATOM      3  N   UNL     1       1.095  -5.276   0.853  0.00  0.00    -0.269 N 
ATOM      4  C   UNL     1       0.408  -6.507   1.232  0.00  0.00    +0.173 C 
ATOM      5  C   UNL     1      -0.731  -6.214   2.252  0.00  0.00    +0.103 C 
ATOM      6  S   UNL     1       0.126  -4.913   3.248  0.00  0.00    -0.131 S 
ATOM      7  C   UNL     1       1.169  -4.229   1.890  0.00  0.00    +0.166 C 
ENDROOT
BRANCH   7   8
ATOM      8  C   UNL     1       2.590  -4.036   2.352  0.00  0.00    -0.016 A 
ATOM      9  C   UNL     1       3.454  -5.115   2.398  0.00  0.00    +0.008 A 
ATOM     10  C   UNL     1       4.757  -4.939   2.822  0.00  0.00    +0.022 A 
ATOM     11  C   UNL     1       5.199  -3.684   3.200  0.00  0.00    +0.059 A 
ATOM     12  C   UNL     1       4.334  -2.604   3.154  0.00  0.00    +0.060 A 
ATOM     13  C   UNL     1       3.031  -2.780   2.724  0.00  0.00    +0.027 A 
ATOM     14 CL   UNL     1       4.886  -1.028   3.629  0.00  0.00    -0.082 Cl
ATOM     15 CL   UNL     1       6.836  -3.463   3.734  0.00  0.00    -0.082 Cl
ENDBRANCH   7   8
BRANCH   1  20
ATOM     16  C   UNL     1       5.124  -0.645  -1.387  0.00  0.00    +0.044 C 
ATOM     17  C   UNL     1       4.210  -1.813  -1.120  0.00  0.00    -0.050 A 
ATOM     18  C   UNL     1       4.215  -2.901  -1.976  0.00  0.00    +0.004 A 
ATOM     19  C   UNL     1       3.382  -3.974  -1.738  0.00  0.00    +0.013 A 
ATOM     20  C   UNL     1       2.532  -3.961  -0.631  0.00  0.00    +0.037 A 
ATOM     21  C   UNL     1       2.532  -2.861   0.228  0.00  0.00    +0.013 A 
ATOM     22  C   UNL     1       3.374  -1.797  -0.018  0.00  0.00    +0.004 A 
ENDBRANCH   1  20
BRANCH   4  23
ATOM     23  C   UNL     1      -0.183  -7.144   0.001  0.00  0.00    +0.234 C 
ATOM     24  O   UNL     1      -0.616  -6.449  -0.894  0.00  0.00    -0.274 OA
ATOM     25  N   UNL     1      -0.230  -8.487  -0.106  0.00  0.00    -0.314 N 
ATOM     26  H   UNL     1       0.116  -9.043   0.609  0.00  0.00    +0.149 HD
BRANCH  25  27
ATOM     27  C   UNL     1      -0.805  -9.107  -1.303  0.00  0.00    +0.104 C 
BRANCH  27  28
ATOM     28  C   UNL     1      -0.737 -10.629  -1.172  0.00  0.00    +0.022 C 
BRANCH  28  29
ATOM     29  C   UNL     1      -1.337 -11.276  -2.422  0.00  0.00    -0.016 C 
ATOM     30  C   UNL     1      -1.157 -12.794  -2.347  0.00  0.00    +0.007 C 
ATOM     31  C   UNL     1      -2.828 -10.943  -2.503  0.00  0.00    +0.007 C 
ENDBRANCH  28  29
ENDBRANCH  27  28
ENDBRANCH  25  27
ENDBRANCH   4  23
TORSDOF 6
