REMARK  Name = ZINC20347921
REMARK  13 active torsions:
REMARK  status: ('A' for Active; 'I' for Inactive)
REMARK    1  A    between atoms: C_1  and  C_2
REMARK    2  A    between atoms: C_7  and  N_8
REMARK    3  A    between atoms: C_9  and  C_11
REMARK    4  A    between atoms: C_11  and  S_12
REMARK    5  A    between atoms: S_12  and  C_13
REMARK    6  A    between atoms: C_14  and  C_38
REMARK    7  A    between atoms: C_15  and  C_33
REMARK    8  A    between atoms: C_17  and  C_21
REMARK    9  A    between atoms: C_18  and  C_20
REMARK   10  A    between atoms: N_23  and  C_24
REMARK   11  A    between atoms: C_25  and  C_32
REMARK   12  A    between atoms: C_27  and  C_31
REMARK   13  A    between atoms: C_29  and  C_30
REMARK                            x       y       z     vdW  Elec       q    Type
REMARK                         _______ _______ _______ _____ _____    ______ ____
ROOT
ATOM      1  C   UNL     1       2.888   6.301   0.572  0.00  0.00    +0.080 C 
ATOM      2  C   UNL     1       3.667   6.484  -0.528  0.00  0.00    +0.072 C 
ATOM      3  C   UNL     1       3.862   7.849  -1.126  0.00  0.00    +0.134 C 
ATOM      4  C   UNL     1       2.825   8.809  -0.618  0.00  0.00    +0.047 C 
ATOM      5  C   UNL     1       2.089   8.541   0.472  0.00  0.00    +0.015 C 
ATOM      6  N   UNL     1       2.245   7.369   1.159  0.00  0.00    -0.312 N 
ATOM      7  C   UNL     1       1.069   9.545   0.944  0.00  0.00    +0.061 C 
ATOM      8  H   UNL     1       1.856   7.281   2.183  0.00  0.00    +0.152 HD
ENDROOT
BRANCH   3   9
ATOM      9  C   UNL     1       3.755   7.752  -2.626  0.00  0.00    +0.118 A 
ATOM     10  C   UNL     1       4.714   8.090  -3.507  0.00  0.00    +0.045 A 
ATOM     11  C   UNL     1       4.192   7.841  -4.797  0.00  0.00    +0.041 A 
ATOM     12  C   UNL     1       2.945   7.365  -4.627  0.00  0.00    +0.195 A 
ATOM     13  O   UNL     1       2.688   7.308  -3.310  0.00  0.00    -0.467 OA
ENDBRANCH   3   9
BRANCH   4  14
ATOM     14  C   UNL     1       2.619  10.028  -1.306  0.00  0.00    +0.247 C 
ATOM     15  O   UNL     1       3.461  10.906  -1.255  0.00  0.00    -0.270 OA
ATOM     16  N   UNL     1       1.491  10.218  -2.018  0.00  0.00    -0.281 N 
ATOM     17  H   UNL     1       0.708   9.445  -2.024  0.00  0.00    +0.155 HD
BRANCH  16  18
ATOM     18  C   UNL     1       1.315  11.396  -2.750  0.00  0.00    +0.040 A 
ATOM     19  C   UNL     1       0.919  11.337  -4.080  0.00  0.00    -0.029 A 
ATOM     20  C   UNL     1       0.741  12.504  -4.798  0.00  0.00    +0.008 A 
ATOM     21  C   UNL     1       0.968  13.728  -4.198  0.00  0.00    -0.050 A 
ATOM     22  C   UNL     1       1.368  13.790  -2.876  0.00  0.00    +0.008 A 
ATOM     23  C   UNL     1       1.542  12.628  -2.150  0.00  0.00    -0.029 A 
ATOM     24  C   UNL     1       1.978  12.697  -0.709  0.00  0.00    +0.045 C 
ATOM     25  C   UNL     1       0.779  14.999  -4.987  0.00  0.00    +0.044 C 
ATOM     26  C   UNL     1       0.677  10.003  -4.737  0.00  0.00    +0.045 C 
ENDBRANCH  16  18
ENDBRANCH   4  14
BRANCH   2  27
ATOM     27  C   UNL     1       4.312   5.355  -1.127  0.00  0.00    +0.098 C 
ATOM     28  N   UNL     1       4.824   4.460  -1.602  0.00  0.00    -0.191 NA
ENDBRANCH   2  27
BRANCH   1  29
ATOM     29  S   UNL     1       2.693   4.686   1.247  0.00  0.00    -0.100 S 
BRANCH  29  30
ATOM     30  C   UNL     1       1.595   5.056   2.637  0.00  0.00    +0.171 C 
BRANCH  30  32
ATOM     31  N   UNL     1       0.478   3.817   4.464  0.00  0.00    -0.285 N 
ATOM     32  C   UNL     1       1.283   3.784   3.383  0.00  0.00    +0.227 C 
ATOM     33  O   UNL     1       1.756   2.731   3.012  0.00  0.00    -0.275 OA
ATOM     34  H   UNL     1      -0.003   4.760   4.763  0.00  0.00    +0.155 HD
BRANCH  31  41
ATOM     35  C   UNL     1      -0.019   4.072   7.254  0.00  0.00    +0.045 C 
ATOM     36  C   UNL     1       0.006   2.730   6.568  0.00  0.00    -0.029 A 
ATOM     37  C   UNL     1      -0.216   1.577   7.296  0.00  0.00    +0.005 A 
ATOM     38  C   UNL     1      -0.194   0.346   6.668  0.00  0.00    +0.000 A 
ATOM     39  C   UNL     1       0.051   0.264   5.309  0.00  0.00    +0.002 A 
ATOM     40  C   UNL     1       0.269   1.413   4.575  0.00  0.00    +0.023 A 
ATOM     41  C   UNL     1       0.252   2.651   5.204  0.00  0.00    +0.036 A 
ENDBRANCH  31  41
ENDBRANCH  30  32
ENDBRANCH  29  30
ENDBRANCH   1  29
TORSDOF 8
