REMARK  Name = ZINC39916083
REMARK  6 active torsions:
REMARK  status: ('A' for Active; 'I' for Inactive)
REMARK    1  A    between atoms: C_1  and  C_2
REMARK    2  A    between atoms: C_2  and  C_33
REMARK    3  A    between atoms: C_6  and  C_25
REMARK    4  A    between atoms: C_13  and  S_16
REMARK    5  A    between atoms: S_16  and  C_17
REMARK    6  A    between atoms: C_17  and  C_18
REMARK                            x       y       z     vdW  Elec       q    Type
REMARK                         _______ _______ _______ _____ _____    ______ ____
ROOT
ATOM      1  C   UNL     1      -0.019   1.526   0.010  0.00  0.00    +0.011 C 
ATOM      2  C   UNL     1       0.002  -0.004   0.002  0.00  0.00    -0.023 C 
ATOM      3  C   UNL     1       0.739  -0.501  -1.244  0.00  0.00    +0.057 C 
ATOM      4  C   UNL     1       2.169  -0.025  -1.212  0.00  0.00    +0.015 C 
ATOM      5  C   UNL     1       2.812   0.183  -0.040  0.00  0.00    +0.034 C 
ATOM      6  C   UNL     1       4.248   0.675  -0.003  0.00  0.00    +0.139 C 
ATOM      7  N   UNL     1       4.553   1.284  -1.290  0.00  0.00    -0.196 NA
ATOM      8  C   UNL     1       4.263   0.282  -2.360  0.00  0.00    +0.231 C 
ATOM      9  N   UNL     1       2.807   0.178  -2.416  0.00  0.00    -0.318 N 
ATOM     10  N   UNL     1       4.885   0.877  -3.548  0.00  0.00    -0.260 NA
ATOM     11  C   UNL     1       6.013   1.697  -3.033  0.00  0.00    +0.199 C 
ATOM     12  N   UNL     1       5.949   1.610  -1.547  0.00  0.00    -0.224 NA
ATOM     13  C   UNL     1       2.171  -0.045   1.187  0.00  0.00    +0.163 C 
ATOM     14  O   UNL     1       2.779   0.141   2.223  0.00  0.00    -0.292 OA
ATOM     15  C   UNL     1       0.743  -0.516   1.242  0.00  0.00    +0.086 C 
ATOM     16  C   UNL     1      -1.432  -0.537   0.003  0.00  0.00    +0.011 C 
ATOM     17  H   UNL     1       2.319   0.247  -3.252  0.00  0.00    +0.149 HD
ATOM     18  H   UNL     1       5.217   0.163  -4.179  0.00  0.00    +0.127 HD
ATOM     19  H   UNL     1       6.559   0.884  -1.201  0.00  0.00    +0.143 HD
ENDROOT
BRANCH   6  20
ATOM     20  C   UNL     1       4.407   1.696   1.094  0.00  0.00    -0.026 C 
ATOM     21  C   UNL     1       5.155   1.586   2.190  0.00  0.00    +0.020 C 
ATOM     22  C   UNL     1       5.027   2.803   2.993  0.00  0.00    +0.078 C 
ATOM     23  N   UNL     1       4.230   3.649   2.430  0.00  0.00    -0.386 N 
ATOM     24  C   UNL     1       3.754   3.059   1.172  0.00  0.00    +0.145 C 
ATOM     25  H   UNL     1       3.991   4.523   2.775  0.00  0.00    +0.159 HD
ENDBRANCH   6  20
BRANCH  11  26
ATOM     26  S   UNL     1       7.591   1.031  -3.630  0.00  0.00    -0.121 S 
BRANCH  26  27
ATOM     27  C   UNL     1       7.630  -0.660  -2.975  0.00  0.00    +0.108 C 
BRANCH  27  28
ATOM     28  C   UNL     1       8.907  -1.336  -3.403  0.00  0.00    -0.019 A 
ATOM     29  C   UNL     1       8.952  -2.037  -4.594  0.00  0.00    +0.006 A 
ATOM     30  C   UNL     1      10.124  -2.656  -4.987  0.00  0.00    +0.000 A 
ATOM     31  C   UNL     1      11.251  -2.575  -4.190  0.00  0.00    +0.001 A 
ATOM     32  C   UNL     1      11.206  -1.875  -3.000  0.00  0.00    +0.020 A 
ATOM     33  C   UNL     1      10.036  -1.249  -2.608  0.00  0.00    +0.045 A 
ATOM     34 CL   UNL     1       9.981  -0.363  -1.117  0.00  0.00    -0.083 Cl
ENDBRANCH  27  28
ENDBRANCH  26  27
ENDBRANCH  11  26
TORSDOF 4
