REMARK  Name = ZINC19851430
REMARK  8 active torsions:
REMARK  status: ('A' for Active; 'I' for Inactive)
REMARK    1  A    between atoms: C_1  and  N_2
REMARK    2  A    between atoms: N_2  and  C_3
REMARK    3  A    between atoms: N_2  and  C_4
REMARK    4  A    between atoms: C_4  and  C_5
REMARK    5  A    between atoms: C_5  and  O_6
REMARK    6  A    between atoms: O_6  and  C_7
REMARK    7  A    between atoms: C_8  and  C_15
REMARK    8  A    between atoms: N_16  and  O_17
REMARK                            x       y       z     vdW  Elec       q    Type
REMARK                         _______ _______ _______ _____ _____    ______ ____
ROOT
ATOM      1  C   UNL     1      -1.070  -1.925   0.124  0.00  0.00    +0.143 A 
ATOM      2  C   UNL     1      -1.405  -2.644  -1.030  0.00  0.00    +0.040 A 
ATOM      3  C   UNL     1      -1.891  -3.948  -0.914  0.00  0.00    +0.033 A 
ATOM      4  C   UNL     1      -2.049  -4.515   0.334  0.00  0.00    +0.043 A 
ATOM      5  C   UNL     1      -1.720  -3.799   1.473  0.00  0.00    +0.039 A 
ATOM      6  C   UNL     1      -1.234  -2.509   1.371  0.00  0.00    +0.061 A 
ATOM      7 BR   UNL     1      -0.790  -1.540   2.933  0.00  0.00    -0.046 Br
ATOM      8 CL   UNL     1      -2.659  -6.134   0.478  0.00  0.00    -0.083 Cl
ENDROOT
BRANCH   2   9
ATOM      9  C   UNL     1      -1.240  -2.030  -2.361  0.00  0.00    +0.164 C 
ATOM     10  N   UNL     1      -1.101  -2.780  -3.406  0.00  0.00    -0.095 NA
BRANCH  10  11
ATOM     11  O   UNL     1      -1.262  -4.182  -3.299  0.00  0.00    -0.409 OA
ATOM     12  H   UNL     1      -1.144  -4.819  -4.188  0.00  0.00    +0.328 HD
ENDBRANCH  10  11
ENDBRANCH   2   9
BRANCH   1  13
ATOM     13  O   UNL     1      -0.591  -0.658   0.023  0.00  0.00    -0.492 OA
BRANCH  13  14
ATOM     14  C   UNL     1       0.811  -0.511  -0.210  0.00  0.00    +0.210 C 
BRANCH  14  15
ATOM     15  C   UNL     1       1.173   0.976  -0.221  0.00  0.00    -0.038 C 
BRANCH  15  17
ATOM     16  C   UNL     1       2.079   0.915   2.024  0.00  0.00    -0.096 C 
ATOM     17  N   UNL     1       1.069   1.515   1.142  0.00  0.00    +0.378 N 
ATOM     18  C   UNL     1       1.177   2.980   1.138  0.00  0.00    -0.096 C 
ATOM     19  H   UNL     1       0.077   1.250   1.536  0.00  0.00    -0.082 HD
ENDBRANCH  15  17
ENDBRANCH  14  15
ENDBRANCH  13  14
ENDBRANCH   1  13
TORSDOF 6
