REMARK  Name = ZINC63213398
REMARK  7 active torsions:
REMARK  status: ('A' for Active; 'I' for Inactive)
REMARK    1  A    between atoms: C_1  and  C_2
REMARK    2  A    between atoms: C_3  and  S_9
REMARK    3  A    between atoms: C_4  and  C_8
REMARK    4  A    between atoms: N_5  and  C_7
REMARK    5  A    between atoms: S_9  and  N_12
REMARK    6  A    between atoms: N_12  and  C_13
REMARK    7  A    between atoms: C_20  and  N_22
REMARK                            x       y       z     vdW  Elec       q    Type
REMARK                         _______ _______ _______ _____ _____    ______ ____
ROOT
ATOM      1  N   UNL     1       1.569  -0.086  -3.280  0.00  0.00    -0.188 NA
ATOM      2  H   UNL     1       1.914   0.793  -3.500  0.00  0.00    +0.148 HD
ENDROOT
BRANCH   1   3
ATOM      3  C   UNL     1       2.443  -1.258  -3.367  0.00  0.00    +0.062 C 
ATOM      4  C   UNL     1       2.410  -1.797  -4.810  0.00  0.00    +0.019 C 
ATOM      5  C   UNL     1       3.564  -2.716  -5.108  0.00  0.00    +0.001 C 
ATOM      6  C   UNL     1       4.697  -1.887  -5.748  0.00  0.00    -0.000 C 
ATOM      7  C   UNL     1       5.475  -1.155  -4.759  0.00  0.00    -0.002 C 
ATOM      8  C   UNL     1       4.624  -0.129  -3.983  0.00  0.00    -0.015 C 
ATOM      9  C   UNL     1       3.860  -0.856  -2.914  0.00  0.00    -0.056 C 
BRANCH   9  10
ATOM     10  N   UNL     1       3.752   0.014  -1.735  0.00  0.00    +0.381 N 
ATOM     11  H   UNL     1       3.284  -0.482  -0.992  0.00  0.00    -0.090 HD
ATOM     12  H   UNL     1       4.676   0.283  -1.430  0.00  0.00    -0.090 HD
ATOM     13  H   UNL     1       3.223   0.839  -1.974  0.00  0.00    -0.090 HD
ENDBRANCH   9  10
ENDBRANCH   1   3
BRANCH   1  14
ATOM     14  S   UNL     1      -0.009  -0.263  -2.808  0.00  0.00    +0.062 S 
ATOM     15  O   UNL     1      -0.549  -1.324  -3.583  0.00  0.00    -0.153 OA
ATOM     16  O   UNL     1      -0.578   1.039  -2.797  0.00  0.00    -0.153 OA
BRANCH  14  19
ATOM     17  C   UNL     1      -0.018   1.503   0.010  0.00  0.00    +0.069 C 
ATOM     18  C   UNL     1       0.002  -0.004   0.002  0.00  0.00    +0.086 A 
ATOM     19  C   UNL     1       0.008  -0.818  -1.135  0.00  0.00    +0.148 A 
ATOM     20  C   UNL     1       0.028  -2.107  -0.725  0.00  0.00    +0.062 A 
ATOM     21  N   UNL     1       0.034  -2.109   0.625  0.00  0.00    -0.269 N 
ATOM     22  N   UNL     1       0.023  -0.777   1.058  0.00  0.00    -0.174 NA
ATOM     23  C   UNL     1       0.055  -3.295   1.485  0.00  0.00    +0.172 C 
ATOM     24  C   UNL     1       0.040  -3.323  -1.615  0.00  0.00    +0.067 C 
ENDBRANCH  14  19
ENDBRANCH   1  14
TORSDOF 4
