REMARK  Name = ZINC08636101
REMARK  8 active torsions:
REMARK  status: ('A' for Active; 'I' for Inactive)
REMARK    1  A    between atoms: C_1  and  C_2
REMARK    2  A    between atoms: C_2  and  N_3
REMARK    3  A    between atoms: N_6  and  C_7
REMARK    4  A    between atoms: C_10  and  C_14
REMARK    5  A    between atoms: C_15  and  C_29
REMARK    6  A    between atoms: N_17  and  C_20
REMARK    7  A    between atoms: C_18  and  C_19
REMARK    8  A    between atoms: C_25  and  N_26
REMARK                            x       y       z     vdW  Elec       q    Type
REMARK                         _______ _______ _______ _____ _____    ______ ____
ROOT
ATOM      1  C   UNL     1       2.597   2.991   1.709  0.00  0.00    +0.003 A 
ATOM      2  C   UNL     1       2.879   2.293   2.889  0.00  0.00    +0.064 A 
ATOM      3  N   UNL     1       3.938   2.829   3.439  0.00  0.00    -0.171 NA
ATOM      4  N   UNL     1       4.366   3.887   2.626  0.00  0.00    -0.234 N 
ATOM      5  C   UNL     1       3.529   3.962   1.567  0.00  0.00    +0.046 A 
ATOM      6  C   UNL     1       3.615   4.952   0.434  0.00  0.00    +0.066 C 
ATOM      7  C   UNL     1       2.097   1.125   3.432  0.00  0.00    +0.068 C 
ENDROOT
BRANCH   4   8
ATOM      8  C   UNL     1       5.470   4.716   2.865  0.00  0.00    +0.096 A 
ATOM      9  C   UNL     1       5.298   6.090   2.977  0.00  0.00    +0.030 A 
ATOM     10  C   UNL     1       6.387   6.904   3.217  0.00  0.00    +0.002 A 
ATOM     11  C   UNL     1       7.650   6.354   3.337  0.00  0.00    +0.002 A 
ATOM     12  C   UNL     1       7.826   4.988   3.221  0.00  0.00    +0.035 A 
ATOM     13  C   UNL     1       6.740   4.168   2.985  0.00  0.00    +0.151 A 
BRANCH  13  14
ATOM     14  N   UNL     1       6.929   2.705   2.862  0.00  0.00    +0.059 N 
ATOM     15  O   UNL     1       8.023   2.212   3.073  0.00  0.00    -0.126 OA
ATOM     16  O   UNL     1       5.991   1.994   2.550  0.00  0.00    -0.126 OA
ENDBRANCH  13  14
ENDBRANCH   4   8
BRANCH   1  19
ATOM     17  C   UNL     1       0.084   0.855   0.123  0.00  0.00    +0.098 C 
ATOM     18  C   UNL     1       1.572   1.268   0.203  0.00  0.00    +0.039 C 
ATOM     19  C   UNL     1       1.462   2.706   0.760  0.00  0.00    +0.047 C 
ATOM     20  C   UNL     1       0.141   2.733   1.493  0.00  0.00    -0.021 C 
ATOM     21  C   UNL     1      -0.611   1.724   1.146  0.00  0.00    -0.009 C 
BRANCH  17  25
ATOM     22  N   UNL     1      -2.010   0.675  -2.893  0.00  0.00    -0.300 N 
ATOM     23  C   UNL     1      -1.521   0.434  -1.661  0.00  0.00    +0.300 C 
ATOM     24  O   UNL     1      -2.050  -0.398  -0.949  0.00  0.00    -0.253 OA
ATOM     25  N   UNL     1      -0.447   1.117  -1.217  0.00  0.00    -0.293 N 
ATOM     26  H   UNL     1      -1.588   1.339  -3.461  0.00  0.00    +0.150 HD
ATOM     27  H   UNL     1      -0.025   1.780  -1.784  0.00  0.00    +0.151 HD
BRANCH  22  29
ATOM     28  C   UNL     1      -3.524   0.394  -4.793  0.00  0.00    +0.024 C 
ATOM     29  C   UNL     1      -3.178  -0.067  -3.376  0.00  0.00    +0.102 C 
ENDBRANCH  22  29
ENDBRANCH  17  25
ENDBRANCH   1  19
TORSDOF 5
