REMARK  Name = ZINC67080547
REMARK  5 active torsions:
REMARK  status: ('A' for Active; 'I' for Inactive)
REMARK    1  A    between atoms: C_1  and  S_2
REMARK    2  A    between atoms: S_2  and  N_5
REMARK    3  A    between atoms: C_8  and  C_11
REMARK    4  A    between atoms: C_11  and  N_12
REMARK    5  A    between atoms: C_19  and  C_22
REMARK                            x       y       z     vdW  Elec       q    Type
REMARK                         _______ _______ _______ _____ _____    ______ ____
ROOT
ATOM      1  N   UNL     1       3.715  -3.515  -4.231  0.00  0.00    -0.299 N 
ATOM      2  C   UNL     1       4.258  -4.628  -4.763  0.00  0.00    +0.302 C 
ATOM      3  O   UNL     1       3.567  -5.611  -4.952  0.00  0.00    -0.253 OA
ATOM      4  N   UNL     1       5.566  -4.652  -5.086  0.00  0.00    -0.281 N 
ATOM      5  C   UNL     1       6.448  -3.521  -4.757  0.00  0.00    +0.137 C 
ATOM      6  C   UNL     1       7.688  -4.067  -4.039  0.00  0.00    +0.179 C 
ATOM      7  O   UNL     1       8.263  -5.114  -4.825  0.00  0.00    -0.369 OA
ATOM      8  C   UNL     1       7.409  -6.245  -5.009  0.00  0.00    +0.168 C 
ATOM      9  C   UNL     1       6.156  -5.812  -5.772  0.00  0.00    +0.145 C 
ATOM     10  H   UNL     1       4.279  -2.757  -4.013  0.00  0.00    +0.150 HD
ENDROOT
BRANCH   8  11
ATOM     11  C   UNL     1       8.138  -7.304  -5.794  0.00  0.00    +0.018 A 
ATOM     12  C   UNL     1       9.179  -6.950  -6.633  0.00  0.00    +0.009 A 
ATOM     13  C   UNL     1       9.848  -7.921  -7.353  0.00  0.00    +0.001 A 
ATOM     14  C   UNL     1       9.478  -9.248  -7.236  0.00  0.00    +0.003 A 
ATOM     15  C   UNL     1       8.439  -9.605  -6.398  0.00  0.00    +0.039 A 
ATOM     16  C   UNL     1       7.771  -8.633  -5.672  0.00  0.00    +0.129 A 
ATOM     17  F   UNL     1       6.758  -8.981  -4.849  0.00  0.00    -0.205 F 
ENDBRANCH   8  11
BRANCH   1  18
ATOM     18  C   UNL     1       2.273  -3.451  -3.981  0.00  0.00    +0.109 C 
BRANCH  18  22
ATOM     19  N   UNL     1       0.791  -0.402  -1.409  0.00  0.00    -0.181 NA
ATOM     20  C   UNL     1       0.049  -0.597  -2.662  0.00  0.00    +0.109 C 
ATOM     21  C   UNL     1       0.401  -1.974  -3.233  0.00  0.00    +0.022 C 
ATOM     22  C   UNL     1       1.920  -2.090  -3.378  0.00  0.00    +0.009 C 
ATOM     23  C   UNL     1       2.577  -1.956  -2.002  0.00  0.00    +0.022 C 
ATOM     24  C   UNL     1       2.251  -0.573  -1.418  0.00  0.00    +0.109 C 
BRANCH  19  26
ATOM     25  C   UNL     1      -0.028   1.824  -0.011  0.00  0.00    +0.215 C 
ATOM     26  S   UNL     1      -0.001   0.010  -0.014  0.00  0.00    +0.029 S 
ATOM     27  O   UNL     1       0.833  -0.469   1.032  0.00  0.00    -0.158 OA
ATOM     28  O   UNL     1      -1.317  -0.499  -0.181  0.00  0.00    -0.158 OA
ENDBRANCH  19  26
ENDBRANCH  18  22
ENDBRANCH   1  18
TORSDOF 4
