REMARK  Name = ZINC13246260
REMARK  7 active torsions:
REMARK  status: ('A' for Active; 'I' for Inactive)
REMARK    1  A    between atoms: C_1  and  C_2
REMARK    2  A    between atoms: C_4  and  C_25
REMARK    3  A    between atoms: C_6  and  S_9
REMARK    4  A    between atoms: C_7  and  C_8
REMARK    5  A    between atoms: S_9  and  N_12
REMARK    6  A    between atoms: N_12  and  C_13
REMARK    7  A    between atoms: C_14  and  C_22
REMARK                            x       y       z     vdW  Elec       q    Type
REMARK                         _______ _______ _______ _____ _____    ______ ____
ROOT
ATOM      1  N   UNL     1      -6.051   1.448   1.426  0.00  0.00    -0.209 N 
ATOM      2  H   UNL     1      -6.154   0.826   2.163  0.00  0.00    +0.174 HD
ENDROOT
BRANCH   1   3
ATOM      3  C   UNL     1      -6.577   2.723   1.519  0.00  0.00    +0.098 A 
ATOM      4  C   UNL     1      -7.359   3.262   2.533  0.00  0.00    +0.069 A 
ATOM      5  C   UNL     1      -7.787   4.644   2.386  0.00  0.00    -0.023 A 
ATOM      6  C   UNL     1      -7.368   5.259   1.261  0.00  0.00    -0.004 A 
ATOM      7  S   UNL     1      -6.414   4.039   0.404  0.00  0.00    -0.076 S 
ATOM      8  C   UNL     1      -7.652   6.670   0.843  0.00  0.00    +0.043 C 
ATOM      9  C   UNL     1      -8.804   7.207   1.705  0.00  0.00    +0.005 C 
ATOM     10  C   UNL     1      -8.514   6.883   3.173  0.00  0.00    +0.005 C 
ATOM     11  C   UNL     1      -8.646   5.377   3.409  0.00  0.00    +0.037 C 
BRANCH   4  12
ATOM     12  C   UNL     1      -7.738   2.469   3.704  0.00  0.00    +0.244 C 
ATOM     13  O   UNL     1      -7.025   2.461   4.691  0.00  0.00    -0.270 OA
ATOM     14  N   UNL     1      -8.876   1.747   3.690  0.00  0.00    -0.325 N 
ATOM     15  H   UNL     1      -9.444   1.752   2.903  0.00  0.00    +0.145 HD
ATOM     16  H   UNL     1      -9.127   1.221   4.465  0.00  0.00    +0.145 HD
ENDBRANCH   4  12
ENDBRANCH   1   3
BRANCH   1  17
ATOM     17  S   UNL     1      -5.245   0.983   0.056  0.00  0.00    +0.073 S 
ATOM     18  O   UNL     1      -6.065   1.355  -1.044  0.00  0.00    -0.150 OA
ATOM     19  O   UNL     1      -4.820  -0.356   0.270  0.00  0.00    -0.150 OA
BRANCH  17  25
ATOM     20  C   UNL     1      -0.628   2.540   1.946  0.00  0.00    +0.044 C 
ATOM     21  C   UNL     1      -1.673   2.643   0.865  0.00  0.00    -0.045 A 
ATOM     22  C   UNL     1      -1.482   3.503  -0.197  0.00  0.00    +0.018 A 
ATOM     23  C   UNL     1      -2.451   3.598  -1.198  0.00  0.00    +0.065 A 
ATOM     24  C   UNL     1      -3.611   2.824  -1.113  0.00  0.00    +0.044 A 
ATOM     25  C   UNL     1      -3.786   1.965  -0.049  0.00  0.00    +0.112 A 
ATOM     26  C   UNL     1      -2.822   1.876   0.939  0.00  0.00    -0.021 A 
ATOM     27  C   UNL     1      -3.024   0.939   2.102  0.00  0.00    +0.046 C 
BRANCH  23  28
ATOM     28  C   UNL     1      -2.253   4.517  -2.337  0.00  0.00    +0.387 C 
ATOM     29  O   UNL     1      -3.098   4.597  -3.207  0.00  0.00    -0.241 OA
ATOM     30  O   UNL     1      -1.139   5.270  -2.410  0.00  0.00    -0.241 OA
ENDBRANCH  23  28
ENDBRANCH  17  25
ENDBRANCH   1  17
TORSDOF 5
