REMARK  Name = ZINC36506217
REMARK  13 active torsions:
REMARK  status: ('A' for Active; 'I' for Inactive)
REMARK    1  A    between atoms: C_1  and  C_2
REMARK    2  A    between atoms: C_2  and  C_3
REMARK    3  A    between atoms: C_2  and  C_4
REMARK    4  A    between atoms: C_2  and  N_5
REMARK    5  A    between atoms: C_6  and  C_8
REMARK    6  A    between atoms: C_8  and  C_10
REMARK    7  A    between atoms: C_8  and  N_19
REMARK    8  A    between atoms: C_11  and  O_18
REMARK    9  A    between atoms: C_13  and  O_17
REMARK   10  A    between atoms: C_15  and  O_16
REMARK   11  A    between atoms: N_19  and  C_20
REMARK   12  A    between atoms: C_20  and  C_21
REMARK   13  A    between atoms: C_26  and  C_28
REMARK                            x       y       z     vdW  Elec       q    Type
REMARK                         _______ _______ _______ _____ _____    ______ ____
ROOT
ATOM      1  C   UNL     1       4.599  -1.411  -3.299  0.00  0.00    +0.200 C 
ENDROOT
BRANCH   1   2
ATOM      2  C   UNL     1       5.038  -1.635  -4.723  0.00  0.00    +0.065 A 
ATOM      3  C   UNL     1       6.351  -1.985  -4.997  0.00  0.00    +0.129 A 
ATOM      4  C   UNL     1       6.755  -2.191  -6.308  0.00  0.00    +0.091 A 
ATOM      5  C   UNL     1       5.845  -2.049  -7.344  0.00  0.00    +0.124 A 
ATOM      6  C   UNL     1       4.531  -1.700  -7.070  0.00  0.00    +0.091 A 
ATOM      7  C   UNL     1       4.126  -1.498  -5.759  0.00  0.00    +0.129 A 
BRANCH   7   8
ATOM      8  O   UNL     1       2.838  -1.161  -5.490  0.00  0.00    -0.506 OA
ATOM      9  H   UNL     1       2.674  -0.208  -5.482  0.00  0.00    +0.292 HD
ENDBRANCH   7   8
BRANCH   5  10
ATOM     10  O   UNL     1       6.240  -2.250  -8.629  0.00  0.00    -0.507 OA
ATOM     11  H   UNL     1       6.143  -3.163  -8.932  0.00  0.00    +0.292 HD
ENDBRANCH   5  10
BRANCH   3  12
ATOM     12  O   UNL     1       7.244  -2.125  -3.982  0.00  0.00    -0.506 OA
ATOM     13  H   UNL     1       7.236  -3.000  -3.569  0.00  0.00    +0.292 HD
ENDBRANCH   3  12
ENDBRANCH   1   2
BRANCH   1  15
ATOM     14  N   UNL     1       2.446  -2.607  -3.066  0.00  0.00    -0.309 N 
ATOM     15  C   UNL     1       3.094  -1.436  -3.227  0.00  0.00    +0.239 C 
ATOM     16  O   UNL     1       2.466  -0.402  -3.314  0.00  0.00    -0.273 OA
ATOM     17  H   UNL     1       2.949  -3.434  -2.997  0.00  0.00    +0.149 HD
BRANCH  14  19
ATOM     18  C   UNL     1       0.401  -2.061  -4.291  0.00  0.00    +0.031 C 
ATOM     19  C   UNL     1       0.983  -2.631  -2.996  0.00  0.00    +0.026 C 
ATOM     20  C   UNL     1       0.515  -1.784  -1.811  0.00  0.00    +0.031 C 
ATOM     21  C   UNL     1       0.505  -4.073  -2.813  0.00  0.00    +0.031 C 
ENDBRANCH  14  19
ENDBRANCH   1  15
BRANCH   1  22
ATOM     22  N   UNL     1       5.089  -0.110  -2.836  0.00  0.00    -0.274 N 
ATOM     23  C   UNL     1       5.167   0.150  -1.516  0.00  0.00    +0.248 C 
ATOM     24  O   UNL     1       5.159   1.300  -1.121  0.00  0.00    -0.270 OA
BRANCH  23  25
ATOM     25  C   UNL     1       5.263  -0.963  -0.549  0.00  0.00    +0.037 A 
ATOM     26  C   UNL     1       4.426  -2.073  -0.672  0.00  0.00    +0.016 A 
ATOM     27  C   UNL     1       4.519  -3.108   0.233  0.00  0.00    +0.039 A 
ATOM     28  C   UNL     1       5.442  -3.048   1.266  0.00  0.00    +0.123 A 
ATOM     29  C   UNL     1       6.276  -1.948   1.393  0.00  0.00    +0.039 A 
ATOM     30  C   UNL     1       6.195  -0.910   0.490  0.00  0.00    +0.016 A 
ATOM     31  F   UNL     1       5.529  -4.065   2.151  0.00  0.00    -0.205 F 
ENDBRANCH  23  25
BRANCH  22  32
ATOM     32  C   UNL     1       5.494   0.908  -3.808  0.00  0.00    +0.183 C 
BRANCH  32  33
ATOM     33  C   UNL     1       4.537   2.071  -3.746  0.00  0.00    +0.122 A 
ATOM     34  C   UNL     1       4.605   3.099  -2.881  0.00  0.00    +0.046 A 
ATOM     35  C   UNL     1       3.518   3.954  -3.175  0.00  0.00    +0.041 A 
ATOM     36  C   UNL     1       2.851   3.397  -4.202  0.00  0.00    +0.195 A 
ATOM     37  O   UNL     1       3.477   2.260  -4.547  0.00  0.00    -0.466 OA
ENDBRANCH  32  33
ENDBRANCH  22  32
ENDBRANCH   1  22
TORSDOF 10
