REMARK  Name = ZINC23330166
REMARK  9 active torsions:
REMARK  status: ('A' for Active; 'I' for Inactive)
REMARK    1  A    between atoms: C_3  and  C_6
REMARK    2  A    between atoms: C_6  and  N_7
REMARK    3  A    between atoms: N_7  and  C_8
REMARK    4  A    between atoms: N_7  and  C_15
REMARK    5  A    between atoms: C_8  and  C_9
REMARK    6  A    between atoms: C_15  and  C_16
REMARK    7  A    between atoms: N_18  and  C_19
REMARK    8  A    between atoms: N_18  and  C_25
REMARK    9  A    between atoms: C_19  and  C_20
REMARK                            x       y       z     vdW  Elec       q    Type
REMARK                         _______ _______ _______ _____ _____    ______ ____
ROOT
ATOM      1  C   UNL     1       3.565  -1.649   0.611  0.00  0.00    +0.204 C 
ATOM      2  O   UNL     1       2.501  -2.205   0.441  0.00  0.00    -0.277 OA
ATOM      3  N   UNL     1       3.599  -0.339   0.926  0.00  0.00    -0.268 N 
ENDROOT
BRANCH   3   4
ATOM      4  C   UNL     1       2.405   0.356   1.160  0.00  0.00    +0.040 A 
ATOM      5  C   UNL     1       1.982   1.331   0.267  0.00  0.00    +0.027 A 
ATOM      6  C   UNL     1       0.806   2.018   0.497  0.00  0.00    +0.051 A 
ATOM      7  C   UNL     1       0.043   1.735   1.621  0.00  0.00    +0.162 A 
ATOM      8  C   UNL     1       0.462   0.757   2.516  0.00  0.00    +0.164 A 
ATOM      9  C   UNL     1       1.644   0.070   2.284  0.00  0.00    +0.073 A 
ATOM     10  O   UNL     1      -0.276   0.461   3.620  0.00  0.00    -0.485 OA
ATOM     11  C   UNL     1      -1.256   1.427   4.017  0.00  0.00    +0.270 C 
ATOM     12  C   UNL     1      -2.036   1.861   2.769  0.00  0.00    +0.270 C 
ATOM     13  O   UNL     1      -1.109   2.428   1.836  0.00  0.00    -0.485 OA
ENDBRANCH   3   4
BRANCH   1  14
ATOM     14  C   UNL     1       4.850  -2.424   0.471  0.00  0.00    +0.020 C 
BRANCH  14  15
ATOM     15  N   UNL     1       4.546  -3.819   0.127  0.00  0.00    +0.390 N 
ATOM     16  H   UNL     1       3.874  -3.813  -0.743  0.00  0.00    -0.081 HD
BRANCH  15  17
ATOM     17  C   UNL     1       5.766  -4.546  -0.249  0.00  0.00    -0.035 C 
BRANCH  17  20
ATOM     18  C   UNL     1       4.759  -7.554  -2.358  0.00  0.00    +0.008 A 
ATOM     19  C   UNL     1       5.068  -6.237  -2.075  0.00  0.00    +0.009 A 
ATOM     20  C   UNL     1       5.394  -5.897  -0.804  0.00  0.00    -0.027 A 
ATOM     21  S   UNL     1       5.277  -7.466   0.040  0.00  0.00    -0.103 S 
ATOM     22  C   UNL     1       4.793  -8.467  -1.357  0.00  0.00    +0.045 A 
ENDBRANCH  17  20
ENDBRANCH  15  17
BRANCH  15  23
ATOM     23  C   UNL     1       3.850  -4.494   1.231  0.00  0.00    -0.046 C 
BRANCH  23  24
ATOM     24  C   UNL     1       4.664  -4.340   2.517  0.00  0.00    +0.102 C 
ATOM     25  C   UNL     1       3.875  -4.916   3.709  0.00  0.00    +0.032 C 
ATOM     26  C   UNL     1       4.801  -6.015   4.283  0.00  0.00    +0.030 C 
ATOM     27  C   UNL     1       6.187  -5.591   3.733  0.00  0.00    +0.160 C 
ATOM     28  O   UNL     1       5.887  -5.089   2.413  0.00  0.00    -0.378 OA
ENDBRANCH  23  24
ENDBRANCH  15  23
ENDBRANCH  14  15
ENDBRANCH   1  14
BRANCH   3  29
ATOM     29  C   UNL     1       4.883   0.358   1.023  0.00  0.00    +0.156 C 
BRANCH  29  30
ATOM     30  C   UNL     1       5.401   0.265   2.435  0.00  0.00    +0.007 A 
ATOM     31  C   UNL     1       6.196  -0.681   2.992  0.00  0.00    +0.013 A 
ATOM     32  C   UNL     1       6.549  -0.561   4.323  0.00  0.00    +0.008 A 
ATOM     33  C   UNL     1       6.089   0.498   5.032  0.00  0.00    +0.045 A 
ATOM     34  S   UNL     1       5.130   1.375   3.807  0.00  0.00    -0.100 S 
ENDBRANCH  29  30
ENDBRANCH   3  29
TORSDOF 9
