REMARK  Name = ZINC22467448
REMARK  12 active torsions:
REMARK  status: ('A' for Active; 'I' for Inactive)
REMARK    1  A    between atoms: C_1  and  C_2
REMARK    2  A    between atoms: C_6  and  C_31
REMARK    3  A    between atoms: C_8  and  O_11
REMARK    4  A    between atoms: O_11  and  C_12
REMARK    5  A    between atoms: C_12  and  C_13
REMARK    6  A    between atoms: C_13  and  C_15
REMARK    7  A    between atoms: C_13  and  O_30
REMARK    8  A    between atoms: C_15  and  N_16
REMARK    9  A    between atoms: N_19  and  C_22
REMARK   10  A    between atoms: C_22  and  C_23
REMARK   11  A    between atoms: C_31  and  C_32
REMARK   12  A    between atoms: C_31  and  C_33
REMARK                            x       y       z     vdW  Elec       q    Type
REMARK                         _______ _______ _______ _____ _____    ______ ____
ROOT
ATOM      1  C   UNL     1       5.398   3.442  -0.041  0.00  0.00    +0.117 C 
ENDROOT
BRANCH   1   2
ATOM      2  N   UNL     1       4.034   2.899  -0.105  0.00  0.00    -0.303 NA
ATOM      3  C   UNL     1       4.053   1.430  -0.144  0.00  0.00    +0.066 C 
ATOM      4  C   UNL     1       2.622   0.908  -0.290  0.00  0.00    -0.063 C 
ATOM      5  N   UNL     1       1.809   1.392   0.834  0.00  0.00    +0.384 N 
ATOM      6  C   UNL     1       1.790   2.861   0.872  0.00  0.00    -0.063 C 
ATOM      7  C   UNL     1       3.221   3.383   1.019  0.00  0.00    +0.066 C 
ATOM      8  H   UNL     1       2.270   1.034   1.766  0.00  0.00    -0.081 HD
BRANCH   5   9
ATOM      9  C   UNL     1       0.445   0.849   0.769  0.00  0.00    -0.043 C 
BRANCH   9  10
ATOM     10  C   UNL     1      -0.281   1.162   2.052  0.00  0.00    -0.064 A 
ATOM     11  C   UNL     1      -0.231   0.272   3.109  0.00  0.00    +0.003 A 
ATOM     12  C   UNL     1      -0.892   0.561   4.288  0.00  0.00    +0.020 A 
ATOM     13  C   UNL     1      -1.614   1.735   4.406  0.00  0.00    +0.041 A 
ATOM     14  C   UNL     1      -1.668   2.623   3.346  0.00  0.00    +0.020 A 
ATOM     15  C   UNL     1      -1.002   2.336   2.170  0.00  0.00    +0.003 A 
ATOM     16 CL   UNL     1      -2.450   2.096   5.884  0.00  0.00    -0.084 Cl
ENDBRANCH   9  10
ENDBRANCH   5   9
ENDBRANCH   1   2
BRANCH   1  17
ATOM     17  C   UNL     1       5.947   3.272   1.377  0.00  0.00    +0.154 C 
BRANCH  17  18
ATOM     18  O   UNL     1       6.101   1.881   1.665  0.00  0.00    -0.388 OA
ATOM     19  H   UNL     1       5.227   1.214   1.638  0.00  0.00    +0.210 HD
ENDBRANCH  17  18
BRANCH  17  20
ATOM     20  C   UNL     1       7.306   3.969   1.484  0.00  0.00    +0.192 C 
BRANCH  20  21
ATOM     21  O   UNL     1       7.765   3.911   2.836  0.00  0.00    -0.374 OA
BRANCH  21  27
ATOM     22  C   UNL     1       8.616   1.693   3.615  0.00  0.00    +0.007 C 
ATOM     23  C   UNL     1       9.974   2.362   3.840  0.00  0.00    -0.012 C 
ATOM     24  C   UNL     1      10.041   2.913   5.266  0.00  0.00    +0.004 C 
ATOM     25  C   UNL     1       8.926   3.940   5.470  0.00  0.00    +0.006 C 
ATOM     26  C   UNL     1       9.100   5.087   4.472  0.00  0.00    +0.020 C 
ATOM     27  C   UNL     1       9.033   4.536   3.046  0.00  0.00    +0.122 C 
ATOM     28  C   UNL     1      10.148   3.509   2.842  0.00  0.00    +0.035 C 
BRANCH  26  29
ATOM     29  C   UNL     1       7.985   6.114   4.675  0.00  0.00    -0.012 C 
ATOM     30  C   UNL     1       8.053   6.664   6.101  0.00  0.00    +0.007 C 
ATOM     31  C   UNL     1       8.160   7.261   3.677  0.00  0.00    +0.007 C 
ENDBRANCH  26  29
ENDBRANCH  21  27
ENDBRANCH  20  21
ENDBRANCH  17  20
ENDBRANCH   1  17
TORSDOF 9
