REMARK  Name = ZINC04784730
REMARK  7 active torsions:
REMARK  status: ('A' for Active; 'I' for Inactive)
REMARK    1  A    between atoms: C_1  and  C_2
REMARK    2  A    between atoms: C_5  and  C_8
REMARK    3  A    between atoms: C_9  and  C_18
REMARK    4  A    between atoms: N_28  and  C_29
REMARK    5  A    between atoms: C_29  and  C_30
REMARK    6  A    between atoms: C_30  and  O_32
REMARK    7  A    between atoms: O_32  and  C_33
REMARK                            x       y       z     vdW  Elec       q    Type
REMARK                         _______ _______ _______ _____ _____    ______ ____
ROOT
ATOM      1  C   UNL     1       4.532   0.730  -0.037  0.00  0.00    +0.053 A 
ATOM      2  C   UNL     1       3.770   1.852  -0.024  0.00  0.00    +0.010 A 
ATOM      3  C   UNL     1       2.374   1.418  -0.013  0.00  0.00    +0.006 A 
ATOM      4  C   UNL     1       1.150   2.094   0.002  0.00  0.00    +0.010 A 
ATOM      5  C   UNL     1      -0.017   1.384   0.010  0.00  0.00    +0.001 A 
ATOM      6  C   UNL     1       0.002  -0.004   0.002  0.00  0.00    +0.002 A 
ATOM      7  C   UNL     1       1.196  -0.691  -0.013  0.00  0.00    +0.026 A 
ATOM      8  C   UNL     1       2.398   0.010  -0.021  0.00  0.00    +0.047 A 
ATOM      9  N   UNL     1       3.719  -0.380  -0.036  0.00  0.00    -0.354 N 
ATOM     10  H   UNL     1       4.029  -1.299  -0.044  0.00  0.00    +0.166 HD
ENDROOT
BRANCH   2  11
ATOM     11  C   UNL     1       4.267   3.274  -0.020  0.00  0.00    +0.141 C 
ATOM     12  C   UNL     1       4.047   3.904  -1.373  0.00  0.00    -0.010 A 
ATOM     13  C   UNL     1       4.501   3.605  -2.636  0.00  0.00    +0.006 A 
ATOM     14  C   UNL     1       4.117   4.387  -3.712  0.00  0.00    +0.000 A 
ATOM     15  C   UNL     1       3.277   5.470  -3.520  0.00  0.00    +0.001 A 
ATOM     16  C   UNL     1       2.815   5.778  -2.257  0.00  0.00    +0.013 A 
ATOM     17  C   UNL     1       3.199   4.994  -1.167  0.00  0.00    +0.042 A 
ATOM     18  C   UNL     1       2.880   5.068   0.271  0.00  0.00    +0.248 C 
ATOM     19  O   UNL     1       2.162   5.906   0.781  0.00  0.00    -0.270 OA
ATOM     20  N   UNL     1       3.495   4.076   0.937  0.00  0.00    -0.276 N 
BRANCH  20  21
ATOM     21  C   UNL     1       3.410   3.834   2.379  0.00  0.00    +0.229 C 
BRANCH  21  22
ATOM     22  C   UNL     1       4.509   4.590   3.081  0.00  0.00    +0.324 C 
ATOM     23  O   UNL     1       5.283   5.262   2.442  0.00  0.00    -0.249 OA
BRANCH  22  24
ATOM     24  O   UNL     1       4.626   4.518   4.416  0.00  0.00    -0.467 OA
ATOM     25  C   UNL     1       5.708   5.272   5.024  0.00  0.00    +0.280 C 
ENDBRANCH  22  24
ENDBRANCH  21  22
ENDBRANCH  20  21
ENDBRANCH   2  11
BRANCH   1  30
ATOM     26  C   UNL     1      10.286   0.627  -0.093  0.00  0.00    +0.044 C 
ATOM     27  C   UNL     1       8.779   0.654  -0.078  0.00  0.00    -0.050 A 
ATOM     28  C   UNL     1       8.067  -0.177  -0.925  0.00  0.00    +0.004 A 
ATOM     29  C   UNL     1       6.688  -0.157  -0.916  0.00  0.00    +0.010 A 
ATOM     30  C   UNL     1       6.011   0.704  -0.052  0.00  0.00    -0.001 A 
ATOM     31  C   UNL     1       6.735   1.544   0.795  0.00  0.00    +0.010 A 
ATOM     32  C   UNL     1       8.114   1.510   0.781  0.00  0.00    +0.004 A 
ENDBRANCH   1  30
TORSDOF 5
