REMARK  Name = ZINC39916000
REMARK  11 active torsions:
REMARK  status: ('A' for Active; 'I' for Inactive)
REMARK    1  A    between atoms: C_6  and  O_11
REMARK    2  A    between atoms: O_11  and  C_12
REMARK    3  A    between atoms: C_12  and  C_13
REMARK    4  A    between atoms: C_13  and  N_14
REMARK    5  A    between atoms: C_22  and  S_23
REMARK    6  A    between atoms: S_23  and  C_24
REMARK    7  A    between atoms: C_26  and  O_39
REMARK    8  A    between atoms: C_28  and  O_38
REMARK    9  A    between atoms: C_30  and  O_37
REMARK   10  A    between atoms: C_32  and  C_35
REMARK   11  A    between atoms: C_35  and  O_36
REMARK                            x       y       z     vdW  Elec       q    Type
REMARK                         _______ _______ _______ _____ _____    ______ ____
ROOT
ATOM      1  N   UNL     1       6.214  -6.080  -0.089  0.00  0.00    -0.315 N 
ATOM      2  C   UNL     1       6.194  -6.907   1.023  0.00  0.00    +0.070 A 
ATOM      3  C   UNL     1       6.208  -6.680   2.390  0.00  0.00    +0.028 A 
ATOM      4  C   UNL     1       6.179  -7.747   3.264  0.00  0.00    +0.002 A 
ATOM      5  C   UNL     1       6.137  -9.047   2.784  0.00  0.00    +0.002 A 
ATOM      6  C   UNL     1       6.123  -9.292   1.429  0.00  0.00    +0.030 A 
ATOM      7  C   UNL     1       6.151  -8.222   0.531  0.00  0.00    +0.090 A 
ATOM      8  N   UNL     1       6.147  -8.143  -0.826  0.00  0.00    -0.222 NA
ATOM      9  C   UNL     1       6.178  -6.885  -1.193  0.00  0.00    +0.172 A 
ENDROOT
BRANCH   1  10
ATOM     10  C   UNL     1       6.260  -4.616  -0.082  0.00  0.00    +0.165 C 
BRANCH  10  11
ATOM     11  C   UNL     1       4.834  -4.062  -0.065  0.00  0.00    +0.250 C 
BRANCH  11  12
ATOM     12  O   UNL     1       4.878  -2.633  -0.059  0.00  0.00    -0.490 OA
BRANCH  12  18
ATOM     13  C   UNL     1      -0.016   1.357   0.009  0.00  0.00    +0.001 A 
ATOM     14  C   UNL     1       1.169   2.091   0.002  0.00  0.00    +0.001 A 
ATOM     15  C   UNL     1       2.378   1.468  -0.013  0.00  0.00    +0.008 A 
ATOM     16  C   UNL     1       2.437   0.063  -0.021  0.00  0.00    -0.014 A 
ATOM     17  C   UNL     1       3.668  -0.614  -0.037  0.00  0.00    +0.054 A 
ATOM     18  C   UNL     1       3.687  -1.980  -0.044  0.00  0.00    +0.121 A 
ATOM     19  C   UNL     1       2.497  -2.714  -0.036  0.00  0.00    +0.046 A 
ATOM     20  C   UNL     1       1.289  -2.088  -0.022  0.00  0.00    +0.012 A 
ATOM     21  C   UNL     1       1.232  -0.683  -0.013  0.00  0.00    -0.018 A 
ATOM     22  C   UNL     1       0.002  -0.004   0.002  0.00  0.00    +0.008 A 
ENDBRANCH  12  18
ENDBRANCH  11  12
ENDBRANCH  10  11
ENDBRANCH   1  10
BRANCH   9  23
ATOM     23  S   UNL     1       6.179  -6.316  -2.860  0.00  0.00    -0.054 S 
BRANCH  23  24
ATOM     24  C   UNL     1       6.122  -7.840  -3.843  0.00  0.00    +0.214 C 
ATOM     25  C   UNL     1       6.367  -7.506  -5.317  0.00  0.00    +0.185 C 
ATOM     26  C   UNL     1       6.258  -8.788  -6.148  0.00  0.00    +0.177 C 
ATOM     27  C   UNL     1       4.881  -9.418  -5.916  0.00  0.00    +0.176 C 
ATOM     28  C   UNL     1       4.693  -9.678  -4.419  0.00  0.00    +0.176 C 
ATOM     29  O   UNL     1       4.837  -8.450  -3.702  0.00  0.00    -0.355 OA
BRANCH  27  30
ATOM     30  O   UNL     1       3.864  -8.527  -6.379  0.00  0.00    -0.386 OA
ATOM     31  H   UNL     1       3.925  -8.315  -7.320  0.00  0.00    +0.210 HD
ENDBRANCH  27  30
BRANCH  26  32
ATOM     32  O   UNL     1       6.415  -8.475  -7.533  0.00  0.00    -0.386 OA
ATOM     33  H   UNL     1       7.264  -8.067  -7.750  0.00  0.00    +0.210 HD
ENDBRANCH  26  32
BRANCH  25  34
ATOM     34  O   UNL     1       5.391  -6.563  -5.762  0.00  0.00    -0.386 OA
ATOM     35  H   UNL     1       5.401  -5.727  -5.275  0.00  0.00    +0.210 HD
ENDBRANCH  25  34
BRANCH  28  36
ATOM     36  C   UNL     1       3.296 -10.252  -4.172  0.00  0.00    +0.190 C 
BRANCH  36  37
ATOM     37  O   UNL     1       3.162 -10.603  -2.794  0.00  0.00    -0.392 OA
ATOM     38  H   UNL     1       2.299 -10.974  -2.564  0.00  0.00    +0.210 HD
ENDBRANCH  36  37
ENDBRANCH  28  36
ENDBRANCH  23  24
ENDBRANCH   9  23
TORSDOF 11
