REMARK  Name = ZINC22688786
REMARK  13 active torsions:
REMARK  status: ('A' for Active; 'I' for Inactive)
REMARK    1  A    between atoms: C_1  and  C_2
REMARK    2  A    between atoms: C_2  and  O_3
REMARK    3  A    between atoms: O_3  and  C_4
REMARK    4  A    between atoms: C_7  and  O_10
REMARK    5  A    between atoms: O_10  and  C_11
REMARK    6  A    between atoms: C_11  and  C_13
REMARK    7  A    between atoms: C_11  and  C_14
REMARK    8  A    between atoms: N_16  and  N_17
REMARK    9  A    between atoms: C_18  and  C_20
REMARK   10  A    between atoms: C_24  and  S_26
REMARK   11  A    between atoms: S_26  and  N_29
REMARK   12  A    between atoms: N_29  and  C_30
REMARK   13  A    between atoms: C_30  and  C_31
REMARK                            x       y       z     vdW  Elec       q    Type
REMARK                         _______ _______ _______ _____ _____    ______ ____
ROOT
ATOM      1  N   UNL     1       0.035   0.933   0.528  0.00  0.00    -0.230 N 
ATOM      2  C   UNL     1      -1.151   1.572   0.576  0.00  0.00    +0.260 C 
ATOM      3  O   UNL     1      -1.200   2.776   0.414  0.00  0.00    -0.269 OA
ATOM      4  H   UNL     1       0.080  -0.156   0.678  0.00  0.00    +0.173 HD
ENDROOT
BRANCH   2   5
ATOM      5  C   UNL     1      -2.392   0.809   0.826  0.00  0.00    +0.040 A 
ATOM      6  C   UNL     1      -2.340  -0.575   1.007  0.00  0.00    +0.013 A 
ATOM      7  C   UNL     1      -3.501  -1.280   1.245  0.00  0.00    +0.003 A 
ATOM      8  C   UNL     1      -4.717  -0.621   1.294  0.00  0.00    +0.028 A 
ATOM      9  C   UNL     1      -4.776   0.749   1.111  0.00  0.00    +0.106 A 
ATOM     10  C   UNL     1      -3.622   1.467   0.877  0.00  0.00    +0.041 A 
BRANCH   9  11
ATOM     11  S   UNL     1      -6.330   1.578   1.175  0.00  0.00    +0.059 S 
ATOM     12  O   UNL     1      -7.195   0.760   1.949  0.00  0.00    -0.153 OA
ATOM     13  O   UNL     1      -6.054   2.930   1.514  0.00  0.00    -0.153 OA
BRANCH  11  14
ATOM     14  N   UNL     1      -6.941   1.592  -0.364  0.00  0.00    -0.187 NA
ATOM     15  H   UNL     1      -6.917   2.526  -0.944  0.00  0.00    +0.148 HD
BRANCH  14  16
ATOM     16  C   UNL     1      -7.305   0.333  -1.019  0.00  0.00    +0.137 C 
BRANCH  16  17
ATOM     17  C   UNL     1      -8.172   0.627  -2.244  0.00  0.00    +0.134 C 
ATOM     18  C   UNL     1      -8.672  -0.690  -2.879  0.00  0.00    +0.035 C 
ATOM     19  C   UNL     1      -8.635  -0.412  -4.398  0.00  0.00    +0.031 C 
ATOM     20  C   UNL     1      -8.118   1.040  -4.502  0.00  0.00    +0.160 C 
ATOM     21  O   UNL     1      -7.385   1.259  -3.277  0.00  0.00    -0.375 OA
ENDBRANCH  16  17
ENDBRANCH  14  16
ENDBRANCH  11  14
ENDBRANCH   9  11
ENDBRANCH   2   5
BRANCH   1  24
ATOM     22  C   UNL     1       2.396   1.016   0.231  0.00  0.00    +0.270 C 
ATOM     23  O   UNL     1       2.444  -0.185   0.392  0.00  0.00    -0.270 OA
ATOM     24  N   UNL     1       1.210   1.655   0.285  0.00  0.00    -0.231 N 
ATOM     25  H   UNL     1       1.166   2.745   0.139  0.00  0.00    +0.173 HD
BRANCH  22  26
ATOM     26  C   UNL     1       3.660   1.793  -0.030  0.00  0.00    +0.257 C 
ATOM     27  C   UNL     1       3.920   2.751   1.135  0.00  0.00    +0.062 C 
BRANCH  26  28
ATOM     28  O   UNL     1       4.758   0.887  -0.156  0.00  0.00    -0.480 OA
BRANCH  28  32
ATOM     29  C   UNL     1       8.010   2.178  -2.348  0.00  0.00    +0.121 A 
ATOM     30  C   UNL     1       6.958   3.045  -2.092  0.00  0.00    +0.049 A 
ATOM     31  C   UNL     1       5.870   2.613  -1.359  0.00  0.00    +0.049 A 
ATOM     32  C   UNL     1       5.829   1.312  -0.878  0.00  0.00    +0.122 A 
ATOM     33  C   UNL     1       6.884   0.447  -1.130  0.00  0.00    +0.049 A 
ATOM     34  C   UNL     1       7.970   0.878  -1.867  0.00  0.00    +0.049 A 
BRANCH  29  35
ATOM     35  O   UNL     1       9.080   2.603  -3.071  0.00  0.00    -0.492 OA
BRANCH  35  37
ATOM     36  C   UNL     1      11.237   2.312  -4.121  0.00  0.00    +0.048 C 
ATOM     37  C   UNL     1      10.127   1.657  -3.296  0.00  0.00    +0.225 C 
ENDBRANCH  35  37
ENDBRANCH  29  35
ENDBRANCH  28  32
ENDBRANCH  26  28
ENDBRANCH  22  26
ENDBRANCH   1  24
TORSDOF 11
