REMARK  Name = ZINC16450791
REMARK  5 active torsions:
REMARK  status: ('A' for Active; 'I' for Inactive)
REMARK    1  A    between atoms: C_4  and  C_7
REMARK    2  A    between atoms: N_11  and  C_15
REMARK    3  A    between atoms: C_15  and  N_16
REMARK    4  A    between atoms: N_16  and  C_17
REMARK    5  A    between atoms: C_20  and  N_24
REMARK                            x       y       z     vdW  Elec       q    Type
REMARK                         _______ _______ _______ _____ _____    ______ ____
ROOT
ATOM      1  C   UNL     1      -0.114   1.416   0.687  0.00  0.00    +0.028 C 
ATOM      2  C   UNL     1      -1.300   2.069   0.754  0.00  0.00    +0.080 C 
ATOM      3  C   UNL     1      -1.608   3.492   0.497  0.00  0.00    +0.262 C 
ATOM      4  O   UNL     1      -0.745   4.285   0.173  0.00  0.00    -0.269 OA
ATOM      5  N   UNL     1      -2.871   3.859   0.640  0.00  0.00    -0.212 N 
ATOM      6  C   UNL     1      -3.825   2.976   1.000  0.00  0.00    +0.287 C 
ATOM      7  O   UNL     1      -5.013   3.175   1.165  0.00  0.00    -0.262 OA
ATOM      8  S   UNL     1      -2.923   1.444   1.168  0.00  0.00    -0.026 S 
ENDROOT
BRANCH   1  12
ATOM      9  C   UNL     1       3.292   3.364  -0.920  0.00  0.00    +0.000 A 
ATOM     10  C   UNL     1       3.419   2.581   0.214  0.00  0.00    +0.001 A 
ATOM     11  C   UNL     1       2.316   1.944   0.743  0.00  0.00    +0.008 A 
ATOM     12  C   UNL     1       1.067   2.091   0.130  0.00  0.00    -0.024 A 
ATOM     13  C   UNL     1       0.949   2.881  -1.020  0.00  0.00    +0.008 A 
ATOM     14  C   UNL     1       2.060   3.515  -1.533  0.00  0.00    +0.001 A 
ENDBRANCH   1  12
BRANCH   5  15
ATOM     15  C   UNL     1      -3.242   5.256   0.400  0.00  0.00    +0.222 C 
BRANCH  15  16
ATOM     16  N   UNL     1      -3.458   5.465  -1.038  0.00  0.00    -0.326 N 
ATOM     17  H   UNL     1      -2.701   5.075  -1.578  0.00  0.00    +0.148 HD
BRANCH  16  18
ATOM     18  C   UNL     1      -4.688   4.935  -1.442  0.00  0.00    +0.066 A 
ATOM     19  C   UNL     1      -4.742   3.687  -2.049  0.00  0.00    +0.065 A 
ATOM     20  C   UNL     1      -5.959   3.164  -2.443  0.00  0.00    +0.054 A 
ATOM     21  C   UNL     1      -7.121   3.886  -2.242  0.00  0.00    +0.129 A 
ATOM     22  C   UNL     1      -7.070   5.132  -1.643  0.00  0.00    +0.054 A 
ATOM     23  C   UNL     1      -5.857   5.658  -1.242  0.00  0.00    +0.065 A 
ATOM     24 CL   UNL     1      -5.795   7.222  -0.490  0.00  0.00    -0.082 Cl
ATOM     25 CL   UNL     1      -3.283   2.782  -2.307  0.00  0.00    -0.082 Cl
BRANCH  21  26
ATOM     26  N   UNL     1      -8.422   3.326  -2.671  0.00  0.00    +0.057 N 
ATOM     27  O   UNL     1      -9.447   3.961  -2.495  0.00  0.00    -0.126 OA
ATOM     28  O   UNL     1      -8.469   2.229  -3.199  0.00  0.00    -0.126 OA
ENDBRANCH  21  26
ENDBRANCH  16  18
ENDBRANCH  15  16
ENDBRANCH   5  15
TORSDOF 5
