REMARK  Name = ZINC39637220
REMARK  7 active torsions:
REMARK  status: ('A' for Active; 'I' for Inactive)
REMARK    1  A    between atoms: C_1  and  C_2
REMARK    2  A    between atoms: C_7  and  N_12
REMARK    3  A    between atoms: C_9  and  C_11
REMARK    4  A    between atoms: C_13  and  C_15
REMARK    5  A    between atoms: C_26  and  C_28
REMARK    6  A    between atoms: C_31  and  O_34
REMARK    7  A    between atoms: O_34  and  C_35
REMARK                            x       y       z     vdW  Elec       q    Type
REMARK                         _______ _______ _______ _____ _____    ______ ____
ROOT
ATOM      1  C   UNL     1       2.091  -4.481   3.546  0.00  0.00    +0.100 C 
ATOM      2  C   UNL     1       3.634  -4.572   3.541  0.00  0.00    +0.121 C 
ATOM      3  N   UNL     1       3.941  -5.776   4.349  0.00  0.00    -0.296 N 
ATOM      4  C   UNL     1       2.898  -6.755   3.962  0.00  0.00    +0.115 C 
ATOM      5  C   UNL     1       1.612  -5.917   3.822  0.00  0.00    -0.004 C 
ATOM      6  C   UNL     1       0.774  -6.427   2.654  0.00  0.00    -0.010 C 
ATOM      7  C   UNL     1       0.261  -7.833   2.976  0.00  0.00    -0.082 C 
ATOM      8  N   UNL     1      -0.545  -7.793   4.202  0.00  0.00    +0.379 N 
ATOM      9  C   UNL     1       0.292  -7.390   5.339  0.00  0.00    -0.082 C 
ATOM     10  C   UNL     1       0.806  -5.965   5.117  0.00  0.00    -0.010 C 
ATOM     11  C   UNL     1       4.942  -5.941   5.237  0.00  0.00    +0.247 C 
ATOM     12  O   UNL     1       5.656  -5.002   5.530  0.00  0.00    -0.270 OA
ATOM     13  H   UNL     1      -1.297  -7.129   4.088  0.00  0.00    -0.086 HD
ATOM     14  H   UNL     1      -0.932  -8.708   4.379  0.00  0.00    -0.086 HD
ENDROOT
BRANCH  11  15
ATOM     15  C   UNL     1       5.171  -7.264   5.851  0.00  0.00    +0.037 A 
ATOM     16  C   UNL     1       4.695  -8.419   5.226  0.00  0.00    +0.016 A 
ATOM     17  C   UNL     1       4.912  -9.651   5.803  0.00  0.00    +0.047 A 
ATOM     18  C   UNL     1       5.602  -9.745   7.005  0.00  0.00    +0.130 A 
ATOM     19  C   UNL     1       6.077  -8.598   7.630  0.00  0.00    +0.047 A 
ATOM     20  C   UNL     1       5.870  -7.364   7.057  0.00  0.00    +0.016 A 
BRANCH  18  21
ATOM     21  O   UNL     1       5.813 -10.961   7.571  0.00  0.00    -0.406 OA
BRANCH  21  22
ATOM     22  C   UNL     1       6.529 -10.986   8.807  0.00  0.00    +0.575 C 
ATOM     23  F   UNL     1       5.833 -10.241   9.765  0.00  0.00    -0.133 F 
ATOM     24  F   UNL     1       6.656 -12.308   9.246  0.00  0.00    -0.133 F 
ATOM     25  F   UNL     1       7.801 -10.433   8.620  0.00  0.00    -0.133 F 
ENDBRANCH  21  22
ENDBRANCH  18  21
ENDBRANCH  11  15
BRANCH   1  27
ATOM     26  N   UNL     1       0.436  -3.314   2.126  0.00  0.00    -0.312 N 
ATOM     27  C   UNL     1       1.589  -4.008   2.207  0.00  0.00    +0.218 C 
ATOM     28  O   UNL     1       2.222  -4.253   1.201  0.00  0.00    -0.275 OA
ATOM     29  H   UNL     1      -0.070  -3.119   2.930  0.00  0.00    +0.149 HD
BRANCH  26  35
ATOM     30  C   UNL     1      -3.599  -2.016  -0.419  0.00  0.00    +0.008 C 
ATOM     31  C   UNL     1      -2.080  -2.195  -0.478  0.00  0.00    -0.009 C 
ATOM     32  C   UNL     1      -1.422  -0.859  -0.827  0.00  0.00    +0.003 C 
ATOM     33  C   UNL     1       0.097  -1.039  -0.886  0.00  0.00    +0.002 C 
ATOM     34  C   UNL     1       0.607  -1.519   0.474  0.00  0.00    +0.022 C 
ATOM     35  C   UNL     1      -0.052  -2.855   0.823  0.00  0.00    +0.076 C 
ATOM     36  C   UNL     1      -1.570  -2.675   0.882  0.00  0.00    +0.009 C 
ATOM     37  C   UNL     1      -2.229  -4.012   1.231  0.00  0.00    +0.009 C 
ENDBRANCH  26  35
ENDBRANCH   1  27
TORSDOF 5
