REMARK  Name = ZINC10093040
REMARK  4 active torsions:
REMARK  status: ('A' for Active; 'I' for Inactive)
REMARK    1  A    between atoms: C_9  and  C_10
REMARK    2  A    between atoms: C_9  and  N_50
REMARK    3  A    between atoms: C_10  and  C_11
REMARK    4  A    between atoms: N_13  and  N_14
REMARK                            x       y       z     vdW  Elec       q    Type
REMARK                         _______ _______ _______ _____ _____    ______ ____
ROOT
ATOM      1  C   UNL     1      -0.718   1.572   1.248  0.00  0.00    +0.228 C 
ATOM      2  O   UNL     1      -1.714   2.256   1.150  0.00  0.00    -0.274 OA
ATOM      3  N   UNL     1      -0.242   1.246   2.466  0.00  0.00    -0.224 N 
ATOM      4  H   UNL     1       0.555   0.699   2.544  0.00  0.00    +0.174 HD
ENDROOT
BRANCH   3   5
ATOM      5  N   UNL     1      -0.897   1.698   3.618  0.00  0.00    -0.137 N 
ATOM      6  C   UNL     1      -1.667   0.919   4.407  0.00  0.00    +0.263 C 
ATOM      7  O   UNL     1      -1.913  -0.259   4.261  0.00  0.00    -0.271 OA
ATOM      8  C   UNL     1      -2.157   1.826   5.514  0.00  0.00    +0.114 C 
ATOM      9  C   UNL     1      -1.666   1.324   6.867  0.00  0.00    +0.035 C 
ATOM     10  C   UNL     1      -2.149   2.270   7.970  0.00  0.00    +0.003 C 
ATOM     11  C   UNL     1      -3.678   2.332   7.954  0.00  0.00    +0.000 C 
ATOM     12  C   UNL     1      -4.153   2.860   6.599  0.00  0.00    +0.003 C 
ATOM     13  C   UNL     1      -3.679   1.917   5.490  0.00  0.00    +0.035 C 
ATOM     14  N   UNL     1      -1.558   3.129   5.199  0.00  0.00    -0.284 N 
ATOM     15  C   UNL     1      -0.834   2.954   4.077  0.00  0.00    +0.326 C 
ATOM     16  O   UNL     1      -0.197   3.838   3.539  0.00  0.00    -0.251 OA
ATOM     17  H   UNL     1      -1.659   3.952   5.702  0.00  0.00    +0.151 HD
ENDBRANCH   3   5
BRANCH   1  18
ATOM     18  C   UNL     1      -0.013   1.086   0.008  0.00  0.00    +0.079 C 
BRANCH  18  19
ATOM     19  C   UNL     1      -0.753   1.593  -1.232  0.00  0.00    -0.069 C 
BRANCH  19  28
ATOM     20  C   UNL     1       1.780  -1.878  -3.714  0.00  0.00    +0.009 A 
ATOM     21  C   UNL     1       2.355  -2.193  -4.897  0.00  0.00    +0.045 A 
ATOM     22  S   UNL     1       1.788  -0.864  -5.949  0.00  0.00    -0.101 S 
ATOM     23  C   UNL     1       0.832   0.005  -4.738  0.00  0.00    -0.011 A 
ATOM     24  C   UNL     1       0.985  -0.739  -3.607  0.00  0.00    -0.054 A 
ATOM     25  C   UNL     1       0.297  -0.299  -2.318  0.00  0.00    -0.042 C 
ATOM     26  C   UNL     1      -0.870   1.381  -3.641  0.00  0.00    -0.073 C 
ATOM     27  C   UNL     1       0.033   1.259  -4.880  0.00  0.00    +0.024 C 
ATOM     28  N   UNL     1      -0.036   1.140  -2.440  0.00  0.00    +0.383 N 
ATOM     29  H   UNL     1       0.836   1.675  -2.530  0.00  0.00    -0.081 HD
ENDBRANCH  19  28
ENDBRANCH  18  19
ENDBRANCH   1  18
TORSDOF 4
