REMARK  Name = ZINC09519978
REMARK  8 active torsions:
REMARK  status: ('A' for Active; 'I' for Inactive)
REMARK    1  A    between atoms: C_4  and  N_7
REMARK    2  A    between atoms: N_7  and  C_34
REMARK    3  A    between atoms: N_14  and  N_15
REMARK    4  A    between atoms: C_16  and  C_17
REMARK    5  A    between atoms: C_18  and  O_23
REMARK    6  A    between atoms: N_24  and  N_25
REMARK    7  A    between atoms: C_26  and  C_27
REMARK    8  A    between atoms: C_28  and  O_33
REMARK                            x       y       z     vdW  Elec       q    Type
REMARK                         _______ _______ _______ _____ _____    ______ ____
ROOT
ATOM      1  N   UNL     1       3.622  -0.650  -0.037  0.00  0.00    -0.238 N 
ATOM      2  C   UNL     1       4.816   0.034  -0.172  0.00  0.00    +0.233 A 
ATOM      3  N   UNL     1       4.826   1.363  -0.161  0.00  0.00    -0.179 NA
ATOM      4  C   UNL     1       5.974   2.021  -0.291  0.00  0.00    +0.241 A 
ATOM      5  N   UNL     1       7.113   1.349  -0.432  0.00  0.00    -0.178 NA
ATOM      6  C   UNL     1       7.103   0.020  -0.443  0.00  0.00    +0.241 A 
ATOM      7  N   UNL     1       5.955  -0.638  -0.308  0.00  0.00    -0.179 NA
ATOM      8  N   UNL     1       8.286  -0.678  -0.590  0.00  0.00    -0.205 N 
ATOM      9  N   UNL     1       5.984   3.402  -0.280  0.00  0.00    -0.205 N 
ATOM     10  H   UNL     1       8.279  -1.648  -0.598  0.00  0.00    +0.177 HD
ATOM     11  H   UNL     1       5.153   3.892  -0.177  0.00  0.00    +0.177 HD
ENDROOT
BRANCH   1  15
ATOM     12  C   UNL     1       0.018   1.439   0.018  0.00  0.00    +0.000 A 
ATOM     13  C   UNL     1       0.866   1.555  -1.067  0.00  0.00    +0.002 A 
ATOM     14  C   UNL     1       2.061   0.864  -1.089  0.00  0.00    +0.024 A 
ATOM     15  C   UNL     1       2.412   0.052  -0.018  0.00  0.00    +0.042 A 
ATOM     16  C   UNL     1       1.557  -0.063   1.071  0.00  0.00    +0.024 A 
ATOM     17  C   UNL     1       0.363   0.631   1.086  0.00  0.00    +0.002 A 
ENDBRANCH   1  15
BRANCH   1  18
ATOM     18  C   UNL     1       3.623  -2.045   0.080  0.00  0.00    +0.042 A 
ATOM     19  C   UNL     1       4.176  -2.648   1.203  0.00  0.00    +0.024 A 
ATOM     20  C   UNL     1       4.176  -4.024   1.316  0.00  0.00    +0.002 A 
ATOM     21  C   UNL     1       3.627  -4.802   0.313  0.00  0.00    +0.000 A 
ATOM     22  C   UNL     1       3.076  -4.205  -0.806  0.00  0.00    +0.002 A 
ATOM     23  C   UNL     1       3.067  -2.829  -0.922  0.00  0.00    +0.024 A 
ENDBRANCH   1  18
BRANCH   8  24
ATOM     24  N   UNL     1       9.496   0.015  -0.727  0.00  0.00    -0.187 NA
ATOM     25  C   UNL     1      10.607  -0.641  -0.865  0.00  0.00    +0.142 C 
BRANCH  25  26
ATOM     26  C   UNL     1      11.880   0.088  -1.009  0.00  0.00    +0.036 A 
ATOM     27  C   UNL     1      11.896   1.490  -0.992  0.00  0.00    +0.125 A 
ATOM     28  C   UNL     1      13.097   2.165  -1.129  0.00  0.00    +0.046 A 
ATOM     29  C   UNL     1      14.276   1.458  -1.281  0.00  0.00    +0.004 A 
ATOM     30  C   UNL     1      14.265   0.075  -1.298  0.00  0.00    +0.001 A 
ATOM     31  C   UNL     1      13.078  -0.614  -1.158  0.00  0.00    +0.013 A 
BRANCH  27  32
ATOM     32  O   UNL     1      10.737   2.183  -0.843  0.00  0.00    -0.506 OA
ATOM     33  H   UNL     1      10.507   2.371   0.077  0.00  0.00    +0.292 HD
ENDBRANCH  27  32
ENDBRANCH  25  26
ENDBRANCH   8  24
BRANCH   9  34
ATOM     34  N   UNL     1       7.194   4.095  -0.416  0.00  0.00    -0.187 NA
ATOM     35  C   UNL     1       7.202   5.393  -0.406  0.00  0.00    +0.142 C 
BRANCH  35  36
ATOM     36  C   UNL     1       8.475   6.122  -0.550  0.00  0.00    +0.036 A 
ATOM     37  C   UNL     1       9.678   5.418  -0.704  0.00  0.00    +0.125 A 
ATOM     38  C   UNL     1      10.868   6.113  -0.838  0.00  0.00    +0.046 A 
ATOM     39  C   UNL     1      10.870   7.496  -0.820  0.00  0.00    +0.004 A 
ATOM     40  C   UNL     1       9.685   8.195  -0.668  0.00  0.00    +0.001 A 
ATOM     41  C   UNL     1       8.489   7.519  -0.539  0.00  0.00    +0.013 A 
BRANCH  37  42
ATOM     42  O   UNL     1       9.675   4.060  -0.721  0.00  0.00    -0.506 OA
ATOM     43  H   UNL     1       9.569   3.678  -1.603  0.00  0.00    +0.292 HD
ENDBRANCH  37  42
ENDBRANCH  35  36
ENDBRANCH   9  34
TORSDOF 8
