REMARK  Name = ZINC05446260
REMARK  10 active torsions:
REMARK  status: ('A' for Active; 'I' for Inactive)
REMARK    1  A    between atoms: C_1  and  C_2
REMARK    2  A    between atoms: C_5  and  C_8
REMARK    3  A    between atoms: C_8  and  O_9
REMARK    4  A    between atoms: O_9  and  C_10
REMARK    5  A    between atoms: C_13  and  C_18
REMARK    6  A    between atoms: C_15  and  O_16
REMARK    7  A    between atoms: O_16  and  C_17
REMARK    8  A    between atoms: C_21  and  C_32
REMARK    9  A    between atoms: C_27  and  N_31
REMARK   10  A    between atoms: C_28  and  C_29
REMARK                            x       y       z     vdW  Elec       q    Type
REMARK                         _______ _______ _______ _____ _____    ______ ____
ROOT
ATOM      1  C   UNL     1      -1.600   6.059   3.897  0.00  0.00    +0.162 A 
ATOM      2  C   UNL     1      -1.959   4.726   3.771  0.00  0.00    +0.050 A 
ATOM      3  C   UNL     1      -1.979   4.131   2.523  0.00  0.00    +0.008 A 
ATOM      4  C   UNL     1      -1.633   4.859   1.401  0.00  0.00    -0.031 A 
ATOM      5  C   UNL     1      -1.274   6.189   1.520  0.00  0.00    +0.054 A 
ATOM      6  C   UNL     1      -1.256   6.793   2.767  0.00  0.00    +0.162 A 
ENDROOT
BRANCH   4   7
ATOM      7  C   UNL     1      -1.652   4.204   0.044  0.00  0.00    +0.101 C 
ATOM      8  C   UNL     1      -0.691   3.044   0.026  0.00  0.00    +0.049 A 
ATOM      9  C   UNL     1       0.697   3.052   0.012  0.00  0.00    +0.068 A 
ATOM     10  N   UNL     1       1.112   1.808   0.001  0.00  0.00    -0.176 NA
ATOM     11  N   UNL     1      -0.011   0.966   0.007  0.00  0.00    -0.246 N 
ATOM     12  H   UNL     1       0.120  -0.126   0.005  0.00  0.00    +0.192 HD
ATOM     13  C   UNL     1      -1.107   1.742   0.016  0.00  0.00    +0.222 A 
ATOM     14  O   UNL     1      -2.417   1.391   0.017  0.00  0.00    -0.423 OA
ATOM     15  C   UNL     1      -3.321   2.355  -0.252  0.00  0.00    +0.200 C 
ATOM     16  C   UNL     1      -3.033   3.675  -0.261  0.00  0.00    +0.098 C 
ATOM     17  C   UNL     1       1.575   4.278   0.010  0.00  0.00    +0.068 C 
BRANCH  15  18
ATOM     18  N   UNL     1      -4.610   1.972  -0.531  0.00  0.00    -0.328 N 
ATOM     19  H   UNL     1      -5.373   2.732  -0.754  0.00  0.00    +0.145 HD
ATOM     20  H   UNL     1      -4.879   0.906  -0.531  0.00  0.00    +0.145 HD
ENDBRANCH  15  18
BRANCH  16  21
ATOM     21  C   UNL     1      -4.078   4.607  -0.565  0.00  0.00    +0.101 C 
ATOM     22  N   UNL     1      -4.907   5.345  -0.806  0.00  0.00    -0.191 NA
ENDBRANCH  16  21
ENDBRANCH   4   7
BRANCH   6  23
ATOM     23  O   UNL     1      -0.904   8.102   2.885  0.00  0.00    -0.491 OA
ATOM     24  C   UNL     1      -0.564   8.793   1.682  0.00  0.00    +0.277 C 
ENDBRANCH   6  23
BRANCH   1  25
ATOM     25  O   UNL     1      -1.584   6.647   5.123  0.00  0.00    -0.484 OA
BRANCH  25  26
ATOM     26  C   UNL     1      -1.948   5.832   6.239  0.00  0.00    +0.264 C 
BRANCH  26  31
ATOM     27  C   UNL     1      -1.658   8.961  11.088  0.00  0.00    +0.044 C 
ATOM     28  C   UNL     1      -1.733   8.145   9.824  0.00  0.00    -0.050 A 
ATOM     29  C   UNL     1      -2.913   8.093   9.104  0.00  0.00    +0.004 A 
ATOM     30  C   UNL     1      -2.982   7.344   7.944  0.00  0.00    +0.007 A 
ATOM     31  C   UNL     1      -1.872   6.648   7.503  0.00  0.00    -0.010 A 
ATOM     32  C   UNL     1      -0.694   6.696   8.225  0.00  0.00    +0.007 A 
ATOM     33  C   UNL     1      -0.624   7.448   9.383  0.00  0.00    +0.004 A 
ENDBRANCH  26  31
ENDBRANCH  25  26
ENDBRANCH   1  25
TORSDOF 7
