REMARK  Name = ZINC40390627
REMARK  4 active torsions:
REMARK  status: ('A' for Active; 'I' for Inactive)
REMARK    1  A    between atoms: C_1  and  C_2
REMARK    2  A    between atoms: C_2  and  C_3
REMARK    3  A    between atoms: C_22  and  C_24
REMARK    4  A    between atoms: N_26  and  C_27
REMARK                            x       y       z     vdW  Elec       q    Type
REMARK                         _______ _______ _______ _____ _____    ______ ____
ROOT
ATOM      1  C   UNL     1      -1.752   0.039   0.274  0.00  0.00    +0.076 C 
ATOM      2  C   UNL     1      -1.271  -1.260   0.930  0.00  0.00    +0.022 C 
ATOM      3  C   UNL     1      -2.256  -2.385   0.606  0.00  0.00    +0.003 C 
ATOM      4  C   UNL     1      -2.310  -2.599  -0.908  0.00  0.00    +0.019 C 
ATOM      5  C   UNL     1      -2.802  -1.316  -1.584  0.00  0.00    +0.108 C 
ATOM      6  N   UNL     1      -1.947  -0.198  -1.163  0.00  0.00    -0.298 N 
ATOM      7  C   UNL     1      -1.341   0.606  -2.091  0.00  0.00    +0.200 A 
ATOM      8  N   UNL     1      -2.008   0.923  -3.233  0.00  0.00    -0.295 N 
ATOM      9  H   UNL     1      -2.908   0.589  -3.377  0.00  0.00    +0.172 HD
ATOM     10  C   UNL     1      -1.419   1.700  -4.167  0.00  0.00    +0.258 A 
ATOM     11  O   UNL     1      -2.001   1.978  -5.204  0.00  0.00    -0.267 OA
ATOM     12  C   UNL     1      -0.129   2.181  -3.922  0.00  0.00    +0.069 A 
ATOM     13  C   UNL     1       0.500   1.848  -2.736  0.00  0.00    +0.138 A 
ATOM     14  N   UNL     1      -0.128   1.060  -1.854  0.00  0.00    -0.200 NA
ATOM     15  N   UNL     1       1.759   2.346  -2.450  0.00  0.00    -0.270 N 
ATOM     16  C   UNL     1       2.285   3.350  -3.172  0.00  0.00    +0.219 C 
ATOM     17  O   UNL     1       3.430   3.696  -2.971  0.00  0.00    -0.275 OA
ATOM     18  C   UNL     1       1.470   4.051  -4.226  0.00  0.00    +0.114 C 
ATOM     19  C   UNL     1       0.571   3.040  -4.941  0.00  0.00    +0.122 C 
ATOM     20  H   UNL     1       2.269   1.965  -1.718  0.00  0.00    +0.156 HD
ENDROOT
BRANCH  19  21
ATOM     21  C   UNL     1      -0.453   3.774  -5.767  0.00  0.00    +0.225 C 
ATOM     22  O   UNL     1      -1.277   4.479  -5.225  0.00  0.00    -0.275 OA
ATOM     23  N   UNL     1      -0.452   3.648  -7.109  0.00  0.00    -0.284 N 
ATOM     24  H   UNL     1       0.168   3.037  -7.538  0.00  0.00    +0.155 HD
BRANCH  23  25
ATOM     25  C   UNL     1      -1.345   4.398  -7.883  0.00  0.00    +0.053 A 
ATOM     26  C   UNL     1      -1.725   5.668  -7.471  0.00  0.00    +0.044 A 
ATOM     27  C   UNL     1      -2.607   6.407  -8.238  0.00  0.00    +0.043 A 
ATOM     28  C   UNL     1      -3.111   5.881  -9.415  0.00  0.00    +0.021 A 
ATOM     29  C   UNL     1      -2.735   4.616  -9.827  0.00  0.00    +0.023 A 
ATOM     30  C   UNL     1      -1.849   3.875  -9.067  0.00  0.00    +0.062 A 
ATOM     31 CL   UNL     1      -1.372   2.289  -9.589  0.00  0.00    -0.082 Cl
ATOM     32 CL   UNL     1      -3.083   7.995  -7.724  0.00  0.00    -0.083 Cl
ENDBRANCH  23  25
ENDBRANCH  19  21
BRANCH   1  34
ATOM     33  C   UNL     1      -0.601   1.475   1.964  0.00  0.00    +0.006 C 
ATOM     34  C   UNL     1      -0.702   1.134   0.476  0.00  0.00    +0.019 C 
ENDBRANCH   1  34
TORSDOF 3
