REMARK  Name = ZINC09505814
REMARK  4 active torsions:
REMARK  status: ('A' for Active; 'I' for Inactive)
REMARK    1  A    between atoms: C_3  and  S_6
REMARK    2  A    between atoms: S_6  and  N_9
REMARK    3  A    between atoms: C_13  and  C_15
REMARK    4  A    between atoms: C_20  and  C_23
REMARK                            x       y       z     vdW  Elec       q    Type
REMARK                         _______ _______ _______ _____ _____    ______ ____
ROOT
ATOM      1  C   UNL     1      -2.599   2.429  -0.214  0.00  0.00    +0.238 C 
ATOM      2  O   UNL     1      -2.471   1.341   0.306  0.00  0.00    -0.274 OA
ATOM      3  N   UNL     1      -1.614   2.925  -0.989  0.00  0.00    -0.263 N 
ATOM      4  C   UNL     1      -0.453   2.190  -1.193  0.00  0.00    +0.165 A 
ATOM      5  N   UNL     1       0.606   2.501  -1.913  0.00  0.00    -0.225 NA
ATOM      6  C   UNL     1       1.639   1.677  -2.008  0.00  0.00    +0.082 A 
ATOM      7  C   UNL     1       1.576   0.489  -1.335  0.00  0.00    +0.077 A 
ATOM      8  S   UNL     1      -0.032   0.625  -0.569  0.00  0.00    -0.060 S 
ATOM      9  H   UNL     1      -1.716   3.796  -1.404  0.00  0.00    +0.157 HD
ENDROOT
BRANCH   6  10
ATOM     10  C   UNL     1       2.829   2.033  -2.821  0.00  0.00    +0.028 A 
ATOM     11  C   UNL     1       3.960   1.221  -2.820  0.00  0.00    +0.039 A 
ATOM     12  C   UNL     1       5.023   1.577  -3.578  0.00  0.00    +0.080 A 
ATOM     13  S   UNL     1       4.464   3.101  -4.321  0.00  0.00    -0.065 S 
ATOM     14  C   UNL     1       2.841   3.168  -3.581  0.00  0.00    +0.089 A 
ATOM     15 CL   UNL     1       1.600   4.366  -3.778  0.00  0.00    -0.075 Cl
ATOM     16 CL   UNL     1       6.544   0.764  -3.773  0.00  0.00    -0.076 Cl
ENDBRANCH   6  10
BRANCH   1  21
ATOM     17  N   UNL     1      -4.996   2.326   0.268  0.00  0.00    -0.164 NA
ATOM     18  C   UNL     1      -5.867   2.950   1.277  0.00  0.00    +0.110 C 
ATOM     19  C   UNL     1      -5.220   4.294   1.674  0.00  0.00    +0.019 C 
ATOM     20  C   UNL     1      -3.731   4.091   1.286  0.00  0.00    +0.031 C 
ATOM     21  C   UNL     1      -3.858   3.226   0.007  0.00  0.00    +0.166 C 
BRANCH  17  22
ATOM     22  S   UNL     1      -5.250   0.857  -0.453  0.00  0.00    +0.068 S 
ATOM     23  O   UNL     1      -6.652   0.740  -0.652  0.00  0.00    -0.152 OA
ATOM     24  O   UNL     1      -4.319   0.763  -1.522  0.00  0.00    -0.152 OA
BRANCH  22  27
ATOM     25  C   UNL     1      -4.967  -1.872   2.538  0.00  0.00    +0.010 A 
ATOM     26  C   UNL     1      -5.527  -0.892   1.741  0.00  0.00    +0.036 A 
ATOM     27  C   UNL     1      -4.801  -0.382   0.716  0.00  0.00    +0.143 A 
ATOM     28  S   UNL     1      -3.269  -1.286   0.864  0.00  0.00    -0.077 S 
ATOM     29  C   UNL     1      -3.703  -2.288   2.277  0.00  0.00    +0.047 A 
ENDBRANCH  22  27
ENDBRANCH  17  22
ENDBRANCH   1  21
TORSDOF 4
