REMARK  Name = ZINC39889658
REMARK  7 active torsions:
REMARK  status: ('A' for Active; 'I' for Inactive)
REMARK    1  A    between atoms: C_1  and  O_2
REMARK    2  A    between atoms: O_2  and  C_3
REMARK    3  A    between atoms: C_3  and  C_4
REMARK    4  A    between atoms: C_4  and  C_5
REMARK    5  A    between atoms: C_5  and  N_6
REMARK    6  A    between atoms: N_27  and  C_30
REMARK    7  A    between atoms: C_30  and  C_31
REMARK                            x       y       z     vdW  Elec       q    Type
REMARK                         _______ _______ _______ _____ _____    ______ ____
ROOT
ATOM      1  N   UNL     1      -2.408  -4.226   0.002  0.00  0.00    -0.273 N 
ATOM      2  C   UNL     1      -2.338  -5.013  -1.094  0.00  0.00    +0.284 C 
ATOM      3  O   UNL     1      -2.378  -4.614  -2.240  0.00  0.00    -0.267 OA
ATOM      4  C   UNL     1      -2.207  -6.426  -0.695  0.00  0.00    +0.200 A 
ATOM      5  C   UNL     1      -2.197  -6.487   0.671  0.00  0.00    +0.084 A 
ATOM      6  C   UNL     1      -2.074  -7.772   1.368  0.00  0.00    +0.199 A 
ATOM      7  O   UNL     1      -2.235  -7.897   2.569  0.00  0.00    -0.287 OA
ATOM      8  C   UNL     1      -1.733  -8.905   0.471  0.00  0.00    +0.064 A 
ATOM      9  C   UNL     1      -1.385 -10.146   1.002  0.00  0.00    +0.015 A 
ATOM     10  C   UNL     1      -1.068 -11.178   0.163  0.00  0.00    +0.001 A 
ATOM     11  C   UNL     1      -1.091 -10.992  -1.212  0.00  0.00    +0.004 A 
ATOM     12  C   UNL     1      -1.434  -9.773  -1.754  0.00  0.00    +0.047 A 
ATOM     13  C   UNL     1      -1.766  -8.706  -0.919  0.00  0.00    +0.139 A 
ATOM     14  O   UNL     1      -2.112  -7.522  -1.472  0.00  0.00    -0.450 OA
ATOM     15  C   UNL     1      -2.316  -5.094   1.182  0.00  0.00    +0.174 C 
ATOM     16  C   UNL     1      -1.171  -4.704   2.060  0.00  0.00    +0.011 A 
ATOM     17  C   UNL     1       0.186  -4.656   1.826  0.00  0.00    +0.008 A 
ATOM     18  C   UNL     1       0.994  -4.240   2.879  0.00  0.00    +0.000 A 
ATOM     19  C   UNL     1       0.458  -3.892   4.102  0.00  0.00    +0.002 A 
ATOM     20  C   UNL     1      -0.906  -3.938   4.345  0.00  0.00    +0.024 A 
ATOM     21  C   UNL     1      -1.728  -4.354   3.297  0.00  0.00    +0.043 A 
ATOM     22  N   UNL     1      -3.104  -4.494   3.261  0.00  0.00    -0.264 N 
ATOM     23  C   UNL     1      -3.538  -4.926   2.057  0.00  0.00    +0.253 C 
ATOM     24  O   UNL     1      -4.689  -5.138   1.739  0.00  0.00    -0.272 OA
ENDROOT
BRANCH   1  25
ATOM     25  C   UNL     1      -2.543  -2.768   0.011  0.00  0.00    +0.112 C 
BRANCH  25  26
ATOM     26  C   UNL     1      -1.154  -2.126   0.002  0.00  0.00    +0.047 C 
BRANCH  26  27
ATOM     27  C   UNL     1      -1.295  -0.603   0.011  0.00  0.00    +0.161 C 
BRANCH  27  29
ATOM     28  C   UNL     1      -0.017   1.425   0.010  0.00  0.00    +0.193 C 
ATOM     29  O   UNL     1       0.002  -0.004   0.002  0.00  0.00    -0.383 OA
ENDBRANCH  27  29
ENDBRANCH  26  27
ENDBRANCH  25  26
ENDBRANCH   1  25
BRANCH  22  30
ATOM     30  C   UNL     1      -3.986  -4.207   4.395  0.00  0.00    +0.148 C 
BRANCH  30  31
ATOM     31  C   UNL     1      -4.415  -2.763   4.345  0.00  0.00    -0.030 A 
ATOM     32  C   UNL     1      -3.658  -1.796   4.981  0.00  0.00    +0.006 A 
ATOM     33  C   UNL     1      -4.050  -0.471   4.936  0.00  0.00    +0.020 A 
ATOM     34  C   UNL     1      -5.200  -0.113   4.255  0.00  0.00    +0.041 A 
ATOM     35  C   UNL     1      -5.957  -1.082   3.620  0.00  0.00    +0.020 A 
ATOM     36  C   UNL     1      -5.561  -2.405   3.661  0.00  0.00    +0.006 A 
ATOM     37 CL   UNL     1      -5.693   1.550   4.199  0.00  0.00    -0.084 Cl
ENDBRANCH  30  31
ENDBRANCH  22  30
TORSDOF 6
