REMARK  Name = ZINC04394826
REMARK  6 active torsions:
REMARK  status: ('A' for Active; 'I' for Inactive)
REMARK    1  A    between atoms: C_4  and  C_7
REMARK    2  A    between atoms: C_7  and  O_9
REMARK    3  A    between atoms: O_9  and  N_10
REMARK    4  A    between atoms: C_11  and  C_12
REMARK    5  A    between atoms: C_15  and  O_18
REMARK    6  A    between atoms: O_18  and  C_19
REMARK                            x       y       z     vdW  Elec       q    Type
REMARK                         _______ _______ _______ _____ _____    ______ ____
ROOT
ATOM      1  C   UNL     1       6.537  -4.457  -0.086  0.00  0.00    +0.018 A 
ATOM      2  C   UNL     1       7.654  -3.620  -0.087  0.00  0.00    +0.015 A 
ATOM      3  C   UNL     1       8.920  -4.163  -0.102  0.00  0.00    +0.047 A 
ATOM      4  C   UNL     1       9.086  -5.542  -0.118  0.00  0.00    +0.129 A 
ATOM      5  C   UNL     1       7.976  -6.378  -0.117  0.00  0.00    +0.047 A 
ATOM      6  C   UNL     1       6.707  -5.842  -0.095  0.00  0.00    +0.015 A 
ENDROOT
BRANCH   1   8
ATOM      7  N   UNL     1       5.019  -2.584  -0.061  0.00  0.00    -0.059 NA
ATOM      8  C   UNL     1       5.176  -3.877  -0.069  0.00  0.00    +0.163 C 
ATOM      9  N   UNL     1       4.071  -4.708  -0.063  0.00  0.00    -0.340 N 
ATOM     10  H   UNL     1       3.178  -4.328  -0.052  0.00  0.00    +0.144 HD
ATOM     11  H   UNL     1       4.188  -5.671  -0.069  0.00  0.00    +0.144 HD
BRANCH   7  12
ATOM     12  O   UNL     1       3.717  -2.029  -0.045  0.00  0.00    -0.310 OA
BRANCH  12  13
ATOM     13  C   UNL     1       3.695  -0.684  -0.037  0.00  0.00    +0.366 C 
ATOM     14  O   UNL     1       4.737  -0.059  -0.044  0.00  0.00    -0.243 OA
BRANCH  13  18
ATOM     15  C   UNL     1      -0.017   1.379   0.010  0.00  0.00    +0.000 A 
ATOM     16  C   UNL     1       1.168   2.094   0.002  0.00  0.00    +0.001 A 
ATOM     17  C   UNL     1       2.377   1.430  -0.013  0.00  0.00    +0.015 A 
ATOM     18  C   UNL     1       2.404   0.034  -0.021  0.00  0.00    +0.061 A 
ATOM     19  C   UNL     1       1.204  -0.681  -0.013  0.00  0.00    +0.015 A 
ATOM     20  C   UNL     1       0.002  -0.004   0.002  0.00  0.00    +0.001 A 
ENDBRANCH  13  18
ENDBRANCH  12  13
ENDBRANCH   7  12
ENDBRANCH   1   8
BRANCH   4  21
ATOM     21  O   UNL     1      10.335  -6.074  -0.134  0.00  0.00    -0.453 OA
BRANCH  21  22
ATOM     22  C   UNL     1      10.452  -7.427  -0.148  0.00  0.00    +0.168 A 
ATOM     23  C   UNL     1      10.517  -8.152   1.040  0.00  0.00    +0.103 A 
ATOM     24  C   UNL     1      10.636  -9.526   0.983  0.00  0.00    +0.134 A 
ATOM     25  N   UNL     1      10.687 -10.152  -0.178  0.00  0.00    -0.260 NA
ATOM     26  C   UNL     1      10.628  -9.502  -1.324  0.00  0.00    +0.134 A 
ATOM     27  C   UNL     1      10.503  -8.127  -1.352  0.00  0.00    +0.103 A 
ATOM     28 CL   UNL     1      10.418  -7.281  -2.866  0.00  0.00    -0.078 Cl
ATOM     29 CL   UNL     1      10.451  -7.337   2.572  0.00  0.00    -0.078 Cl
ENDBRANCH  21  22
ENDBRANCH   4  21
TORSDOF 6
