REMARK  Name = ZINC19337679
REMARK  13 active torsions:
REMARK  status: ('A' for Active; 'I' for Inactive)
REMARK    1  A    between atoms: C_1  and  C_2
REMARK    2  A    between atoms: C_2  and  C_3
REMARK    3  A    between atoms: C_3  and  C_4
REMARK    4  A    between atoms: C_4  and  C_5
REMARK    5  A    between atoms: C_8  and  C_11
REMARK    6  A    between atoms: C_11  and  C_13
REMARK    7  A    between atoms: C_13  and  S_14
REMARK    8  A    between atoms: S_14  and  C_15
REMARK    9  A    between atoms: C_16  and  C_31
REMARK   10  A    between atoms: C_17  and  C_24
REMARK   11  A    between atoms: C_18  and  C_22
REMARK   12  A    between atoms: C_19  and  N_21
REMARK   13  A    between atoms: C_27  and  O_30
REMARK                            x       y       z     vdW  Elec       q    Type
REMARK                         _______ _______ _______ _____ _____    ______ ____
ROOT
ATOM      1  C   UNL     1       1.708   2.135  -0.003  0.00  0.00    +0.117 A 
ATOM      2  C   UNL     1       2.161   3.468  -0.006  0.00  0.00    +0.093 A 
ATOM      3  C   UNL     1       3.548   3.717  -0.013  0.00  0.00    +0.023 A 
ATOM      4  C   UNL     1       4.421   2.610  -0.027  0.00  0.00    +0.100 A 
ATOM      5  C   UNL     1       3.876   1.313  -0.028  0.00  0.00    +0.136 A 
ATOM      6  N   UNL     1       2.565   1.125  -0.016  0.00  0.00    -0.224 NA
ENDROOT
BRANCH   3   7
ATOM      7  C   UNL     1       4.073   5.099  -0.011  0.00  0.00    -0.015 A 
ATOM      8  C   UNL     1       3.850   5.932   1.088  0.00  0.00    +0.012 A 
ATOM      9  C   UNL     1       4.345   7.218   1.087  0.00  0.00    +0.046 A 
ATOM     10  C   UNL     1       5.056   7.690  -0.009  0.00  0.00    +0.117 A 
ATOM     11  C   UNL     1       5.275   6.867  -1.107  0.00  0.00    +0.046 A 
ATOM     12  C   UNL     1       4.788   5.578  -1.111  0.00  0.00    +0.012 A 
BRANCH  10  13
ATOM     13  O   UNL     1       5.537   8.960  -0.008  0.00  0.00    -0.507 OA
ATOM     14  H   UNL     1       6.100   9.335  -0.875  0.00  0.00    +0.292 HD
ENDBRANCH  10  13
ENDBRANCH   3   7
BRANCH   5  15
ATOM     15  N   UNL     1       4.719   0.220  -0.042  0.00  0.00    -0.342 N 
ATOM     16  H   UNL     1       4.301  -0.797  -0.043  0.00  0.00    +0.144 HD
ATOM     17  H   UNL     1       5.809   0.367  -0.051  0.00  0.00    +0.144 HD
ENDBRANCH   5  15
BRANCH   4  18
ATOM     18  C   UNL     1       5.840   2.802  -0.040  0.00  0.00    +0.103 C 
ATOM     19  N   UNL     1       6.965   2.955  -0.050  0.00  0.00    -0.191 NA
ENDBRANCH   4  18
BRANCH   2  20
ATOM     20  C   UNL     1       1.227   4.554   0.003  0.00  0.00    +0.102 C 
ATOM     21  N   UNL     1       0.486   5.415   0.010  0.00  0.00    -0.191 NA
ENDBRANCH   2  20
BRANCH   1  22
ATOM     22  S   UNL     1      -0.022   1.806   0.012  0.00  0.00    -0.097 S 
BRANCH  22  23
ATOM     23  C   UNL     1       0.002  -0.004   0.002  0.00  0.00    +0.155 C 
BRANCH  23  24
ATOM     24  C   UNL     1      -1.412  -0.526   0.013  0.00  0.00    +0.173 C 
ATOM     25  O   UNL     1      -2.344   0.250   0.026  0.00  0.00    -0.291 OA
BRANCH  24  29
ATOM     26  C   UNL     1      -2.130  -4.706  -0.002  0.00  0.00    -0.047 A 
ATOM     27  C   UNL     1      -3.197  -3.824   0.012  0.00  0.00    +0.004 A 
ATOM     28  C   UNL     1      -2.972  -2.464   0.017  0.00  0.00    +0.011 A 
ATOM     29  C   UNL     1      -1.661  -1.976   0.007  0.00  0.00    +0.018 A 
ATOM     30  C   UNL     1      -0.589  -2.873  -0.013  0.00  0.00    +0.011 A 
ATOM     31  C   UNL     1      -0.830  -4.231  -0.012  0.00  0.00    +0.004 A 
BRANCH  26  32
ATOM     32  C   UNL     1      -2.385  -6.191  -0.007  0.00  0.00    +0.035 C 
BRANCH  32  33
ATOM     33  C   UNL     1      -2.486  -6.687  -1.451  0.00  0.00    +0.004 C 
BRANCH  33  35
ATOM     34  C   UNL     1      -2.845  -8.691  -2.899  0.00  0.00    +0.004 C 
ATOM     35  C   UNL     1      -2.745  -8.195  -1.455  0.00  0.00    -0.003 C 
ENDBRANCH  33  35
ENDBRANCH  32  33
ENDBRANCH  26  32
ENDBRANCH  24  29
ENDBRANCH  23  24
ENDBRANCH  22  23
ENDBRANCH   1  22
TORSDOF 12
