REMARK  Name = ZINC39533998
REMARK  8 active torsions:
REMARK  status: ('A' for Active; 'I' for Inactive)
REMARK    1  A    between atoms: C_1  and  O_2
REMARK    2  A    between atoms: O_2  and  C_3
REMARK    3  A    between atoms: N_6  and  C_10
REMARK    4  A    between atoms: C_10  and  C_12
REMARK    5  A    between atoms: C_10  and  C_15
REMARK    6  A    between atoms: C_12  and  N_13
REMARK    7  A    between atoms: C_18  and  C_21
REMARK    8  A    between atoms: C_26  and  O_27
REMARK                            x       y       z     vdW  Elec       q    Type
REMARK                         _______ _______ _______ _____ _____    ______ ____
ROOT
ATOM      1  C   UNL     1      -2.424  -4.157  -0.518  0.00  0.00    +0.101 C 
ENDROOT
BRANCH   1   4
ATOM      2  C   UNL     1      -1.819  -1.053   1.528  0.00  0.00    +0.200 C 
ATOM      3  C   UNL     1      -1.549  -2.128   0.473  0.00  0.00    +0.132 C 
ATOM      4  N   UNL     1      -2.607  -3.146   0.532  0.00  0.00    -0.289 NA
ATOM      5  C   UNL     1      -2.659  -3.770   1.861  0.00  0.00    +0.100 C 
ATOM      6  C   UNL     1      -2.930  -2.695   2.917  0.00  0.00    +0.098 C 
ATOM      7  N   UNL     1      -1.872  -1.677   2.857  0.00  0.00    -0.289 NA
ATOM      8  H   UNL     1      -0.977  -2.070   3.108  0.00  0.00    +0.124 HD
BRANCH   2  10
ATOM      9  C   UNL     1      -1.035   1.082   2.284  0.00  0.00    +0.196 C 
ATOM     10  O   UNL     1      -0.771  -0.082   1.498  0.00  0.00    -0.364 OA
ENDBRANCH   2  10
ENDBRANCH   1   4
BRANCH   1  11
ATOM     11  C   UNL     1      -3.716  -4.905  -0.726  0.00  0.00    -0.029 A 
ATOM     12  C   UNL     1      -4.807  -4.633   0.080  0.00  0.00    +0.006 A 
ATOM     13  C   UNL     1      -5.992  -5.315  -0.105  0.00  0.00    +0.009 A 
ATOM     14  C   UNL     1      -6.089  -6.278  -1.107  0.00  0.00    -0.014 A 
ATOM     15  C   UNL     1      -4.987  -6.548  -1.917  0.00  0.00    +0.009 A 
ATOM     16  C   UNL     1      -3.808  -5.856  -1.725  0.00  0.00    +0.006 A 
BRANCH  14  17
ATOM     17  C   UNL     1      -7.361  -7.015  -1.312  0.00  0.00    +0.024 A 
ATOM     18  C   UNL     1      -8.007  -7.609  -0.230  0.00  0.00    +0.012 A 
ATOM     19  C   UNL     1      -9.189  -8.293  -0.425  0.00  0.00    +0.001 A 
ATOM     20  C   UNL     1      -9.736  -8.391  -1.692  0.00  0.00    +0.004 A 
ATOM     21  C   UNL     1      -9.104  -7.806  -2.772  0.00  0.00    +0.046 A 
ATOM     22  C   UNL     1      -7.919  -7.111  -2.590  0.00  0.00    +0.125 A 
BRANCH  22  23
ATOM     23  O   UNL     1      -7.299  -6.531  -3.650  0.00  0.00    -0.506 OA
ATOM     24  H   UNL     1      -6.665  -7.107  -4.099  0.00  0.00    +0.292 HD
ENDBRANCH  22  23
ENDBRANCH  14  17
ENDBRANCH   1  11
BRANCH   1  25
ATOM     25  C   UNL     1      -1.329  -5.139  -0.095  0.00  0.00    +0.115 C 
BRANCH  25  26
ATOM     26  N   UNL     1      -0.073  -4.408   0.122  0.00  0.00    -0.259 NA
ATOM     27  I   UNL     1       1.429  -5.682   0.692  0.00  0.00    +0.018 I 
ATOM     28  H   UNL     1       0.188  -3.886  -0.701  0.00  0.00    +0.134 HD
ENDBRANCH  25  26
ENDBRANCH   1  25
TORSDOF 7
