REMARK  Name = ZINC36688833
REMARK  15 active torsions:
REMARK  status: ('A' for Active; 'I' for Inactive)
REMARK    1  A    between atoms: C_1  and  C_2
REMARK    2  A    between atoms: C_2  and  N_3
REMARK    3  A    between atoms: N_3  and  C_4
REMARK    4  A    between atoms: N_3  and  C_6
REMARK    5  A    between atoms: C_4  and  C_5
REMARK    6  A    between atoms: C_6  and  C_7
REMARK    7  A    between atoms: C_7  and  N_8
REMARK    8  A    between atoms: N_17  and  C_18
REMARK    9  A    between atoms: C_18  and  C_20
REMARK   10  A    between atoms: C_20  and  C_22
REMARK   11  A    between atoms: C_20  and  N_23
REMARK   12  A    between atoms: C_24  and  C_26
REMARK   13  A    between atoms: C_27  and  C_28
REMARK   14  A    between atoms: C_31  and  O_34
REMARK   15  A    between atoms: O_34  and  C_35
REMARK                            x       y       z     vdW  Elec       q    Type
REMARK                         _______ _______ _______ _____ _____    ______ ____
ROOT
ATOM      1  N   UNL     1       0.741  -3.948  -2.373  0.00  0.00    -0.314 N 
ATOM      2  C   UNL     1       1.588  -4.872  -1.769  0.00  0.00    +0.068 A 
ATOM      3  C   UNL     1       2.800  -4.753  -1.103  0.00  0.00    +0.028 A 
ATOM      4  C   UNL     1       3.420  -5.879  -0.599  0.00  0.00    +0.002 A 
ATOM      5  C   UNL     1       2.839  -7.126  -0.755  0.00  0.00    +0.002 A 
ATOM      6  C   UNL     1       1.634  -7.255  -1.415  0.00  0.00    +0.028 A 
ATOM      7  C   UNL     1       1.001  -6.130  -1.926  0.00  0.00    +0.066 A 
ATOM      8  N   UNL     1      -0.189  -5.943  -2.621  0.00  0.00    -0.326 N 
ATOM      9  C   UNL     1      -0.329  -4.616  -2.877  0.00  0.00    +0.201 A 
ATOM     10  N   UNL     1      -1.352  -4.059  -3.521  0.00  0.00    -0.145 NA
ATOM     11  H   UNL     1      -0.813  -6.640  -2.877  0.00  0.00    +0.169 HD
ENDROOT
BRANCH  10  12
ATOM     12  C   UNL     1      -2.403  -4.797  -3.863  0.00  0.00    +0.259 C 
ATOM     13  O   UNL     1      -2.473  -5.958  -3.507  0.00  0.00    -0.272 OA
BRANCH  12  14
ATOM     14  C   UNL     1      -3.510  -4.195  -4.690  0.00  0.00    +0.158 C 
ATOM     15  C   UNL     1      -2.943  -3.717  -6.028  0.00  0.00    +0.038 C 
BRANCH  14  16
ATOM     16  N   UNL     1      -4.545  -5.204  -4.930  0.00  0.00    -0.301 N 
ATOM     17  C   UNL     1      -5.812  -4.822  -5.183  0.00  0.00    +0.237 C 
ATOM     18  O   UNL     1      -6.097  -3.639  -5.212  0.00  0.00    -0.271 OA
ATOM     19  H   UNL     1      -4.317  -6.146  -4.907  0.00  0.00    +0.150 HD
BRANCH  17  20
ATOM     20  C   UNL     1      -6.845  -5.829  -5.423  0.00  0.00    +0.068 C 
ATOM     21  C   UNL     1      -8.115  -5.447  -5.676  0.00  0.00    +0.013 C 
BRANCH  21  22
ATOM     22  C   UNL     1      -9.153  -6.459  -5.917  0.00  0.00    -0.025 A 
ATOM     23  C   UNL     1      -8.829  -7.820  -5.878  0.00  0.00    +0.011 A 
ATOM     24  C   UNL     1      -9.805  -8.764  -6.105  0.00  0.00    +0.046 A 
ATOM     25  C   UNL     1     -11.111  -8.368  -6.371  0.00  0.00    +0.120 A 
ATOM     26  C   UNL     1     -11.438  -7.017  -6.411  0.00  0.00    +0.046 A 
ATOM     27  C   UNL     1     -10.470  -6.065  -6.180  0.00  0.00    +0.011 A 
BRANCH  25  28
ATOM     28  O   UNL     1     -12.069  -9.302  -6.593  0.00  0.00    -0.495 OA
ATOM     29  C   UNL     1     -13.390  -8.826  -6.861  0.00  0.00    +0.277 C 
ENDBRANCH  25  28
ENDBRANCH  21  22
ENDBRANCH  17  20
ENDBRANCH  14  16
ENDBRANCH  12  14
ENDBRANCH  10  12
BRANCH   1  30
ATOM     30  C   UNL     1       0.963  -2.502  -2.447  0.00  0.00    +0.106 C 
BRANCH  30  31
ATOM     31  C   UNL     1       0.344  -1.827  -1.222  0.00  0.00    -0.057 C 
BRANCH  31  32
ATOM     32  N   UNL     1       0.673  -0.395  -1.232  0.00  0.00    +0.380 N 
ATOM     33  H   UNL     1       1.675  -0.281  -1.276  0.00  0.00    -0.082 HD
BRANCH  32  35
ATOM     34  C   UNL     1       0.500   1.703  -2.483  0.00  0.00    -0.017 C 
ATOM     35  C   UNL     1       0.056   0.241  -2.403  0.00  0.00    -0.082 C 
ENDBRANCH  32  35
BRANCH  32  36
ATOM     36  C   UNL     1       0.162   0.234  -0.007  0.00  0.00    -0.082 C 
ATOM     37  C   UNL     1       0.892  -0.346   1.207  0.00  0.00    -0.017 C 
ENDBRANCH  32  36
ENDBRANCH  31  32
ENDBRANCH  30  31
ENDBRANCH   1  30
TORSDOF 11
