REMARK  Name = ZINC02807423
REMARK  10 active torsions:
REMARK  status: ('A' for Active; 'I' for Inactive)
REMARK    1  A    between atoms: C_1  and  C_2
REMARK    2  A    between atoms: C_2  and  C_3
REMARK    3  A    between atoms: C_5  and  C_8
REMARK    4  A    between atoms: N_10  and  C_11
REMARK    5  A    between atoms: C_12  and  C_26
REMARK    6  A    between atoms: C_17  and  C_21
REMARK    7  A    between atoms: C_21  and  C_22
REMARK    8  A    between atoms: C_21  and  C_23
REMARK    9  A    between atoms: C_21  and  C_24
REMARK   10  A    between atoms: C_24  and  C_25
REMARK                            x       y       z     vdW  Elec       q    Type
REMARK                         _______ _______ _______ _____ _____    ______ ____
ROOT
ATOM      1  C   UNL     1       1.179   1.675  -0.000  0.00  0.00    +0.085 A 
ATOM      2  C   UNL     1       2.477   1.182  -0.010  0.00  0.00    +0.068 A 
ATOM      3  C   UNL     1       3.562   2.148  -0.021  0.00  0.00    -0.023 A 
ATOM      4  C   UNL     1       3.179   3.443  -0.009  0.00  0.00    -0.004 A 
ATOM      5  S   UNL     1       1.410   3.392   0.007  0.00  0.00    -0.077 S 
ATOM      6  C   UNL     1       4.069   4.648  -0.010  0.00  0.00    +0.046 C 
ATOM      7  C   UNL     1       5.492   4.199   0.354  0.00  0.00    -0.000 C 
ATOM      8  C   UNL     1       5.854   2.976  -0.494  0.00  0.00    +0.009 C 
ATOM      9  C   UNL     1       5.037   1.766  -0.037  0.00  0.00    +0.037 C 
ENDROOT
BRANCH   2  10
ATOM     10  C   UNL     1       2.742  -0.260  -0.012  0.00  0.00    +0.244 C 
ATOM     11  O   UNL     1       2.846  -0.858  -1.067  0.00  0.00    -0.270 OA
ATOM     12  N   UNL     1       2.872  -0.923   1.154  0.00  0.00    -0.325 N 
ATOM     13  H   UNL     1       2.790  -0.447   1.995  0.00  0.00    +0.145 HD
ATOM     14  H   UNL     1       3.048  -1.877   1.152  0.00  0.00    +0.145 HD
ENDBRANCH   2  10
BRANCH   1  17
ATOM     15  C   UNL     1      -1.187   1.624   0.017  0.00  0.00    +0.249 C 
ATOM     16  O   UNL     1      -1.204   2.840   0.023  0.00  0.00    -0.270 OA
ATOM     17  N   UNL     1      -0.011   0.966   0.007  0.00  0.00    -0.275 N 
ATOM     18  H   UNL     1       0.002  -0.004   0.002  0.00  0.00    +0.156 HD
BRANCH  15  21
ATOM     19  C   UNL     1      -4.828   0.765   0.029  0.00  0.00    -0.010 A 
ATOM     20  C   UNL     1      -3.727   1.542   0.034  0.00  0.00    +0.024 A 
ATOM     21  C   UNL     1      -2.451   0.871   0.018  0.00  0.00    +0.044 A 
ATOM     22  C   UNL     1      -2.469  -0.509   0.011  0.00  0.00    +0.058 A 
ATOM     23  S   UNL     1      -4.159  -0.885   0.017  0.00  0.00    -0.101 S 
BRANCH  19  25
ATOM     24  C   UNL     1      -6.771   1.341  -1.401  0.00  0.00    +0.009 C 
ATOM     25  C   UNL     1      -6.274   1.190   0.038  0.00  0.00    +0.039 C 
ENDBRANCH  19  25
ENDBRANCH  15  21
ENDBRANCH   1  17
BRANCH   7  26
ATOM     26  C   UNL     1       6.477   5.333   0.066  0.00  0.00    -0.032 C 
ATOM     27  C   UNL     1       7.896   4.877   0.412  0.00  0.00    +0.011 C 
ATOM     28  C   UNL     1       6.408   5.704  -1.417  0.00  0.00    +0.011 C 
BRANCH  26  29
ATOM     29  C   UNL     1       6.112   6.553   0.914  0.00  0.00    +0.003 C 
ATOM     30  C   UNL     1       7.098   7.688   0.625  0.00  0.00    +0.004 C 
ENDBRANCH  26  29
ENDBRANCH   7  26
TORSDOF 6
