REMARK  Name = ZINC15229947
REMARK  10 active torsions:
REMARK  status: ('A' for Active; 'I' for Inactive)
REMARK    1  A    between atoms: C_1  and  C_2
REMARK    2  A    between atoms: C_5  and  S_8
REMARK    3  A    between atoms: S_8  and  N_11
REMARK    4  A    between atoms: N_11  and  C_12
REMARK    5  A    between atoms: C_12  and  C_14
REMARK    6  A    between atoms: C_12  and  C_28
REMARK    7  A    between atoms: C_14  and  C_15
REMARK    8  A    between atoms: N_17  and  N_18
REMARK    9  A    between atoms: C_19  and  C_20
REMARK   10  A    between atoms: C_23  and  O_27
REMARK                            x       y       z     vdW  Elec       q    Type
REMARK                         _______ _______ _______ _____ _____    ______ ____
ROOT
ATOM      1  C   UNL     1       0.559  -0.735   1.143  0.00  0.00    +0.115 C 
ENDROOT
BRANCH   1   2
ATOM      2  C   UNL     1       2.002  -1.073   0.867  0.00  0.00    -0.028 A 
ATOM      3  C   UNL     1       2.386  -1.485  -0.395  0.00  0.00    +0.005 A 
ATOM      4  C   UNL     1       3.710  -1.790  -0.649  0.00  0.00    +0.000 A 
ATOM      5  C   UNL     1       4.648  -1.692   0.361  0.00  0.00    +0.000 A 
ATOM      6  C   UNL     1       4.263  -1.285   1.625  0.00  0.00    +0.000 A 
ATOM      7  C   UNL     1       2.940  -0.975   1.878  0.00  0.00    +0.005 A 
ENDBRANCH   1   2
BRANCH   1   8
ATOM      8  N   UNL     1       0.002  -0.004   0.002  0.00  0.00    -0.182 NA
ATOM      9  H   UNL     1      -0.354  -0.490  -0.759  0.00  0.00    +0.149 HD
BRANCH   8  10
ATOM     10  S   UNL     1      -0.020   1.652   0.011  0.00  0.00    +0.059 S 
ATOM     11  O   UNL     1      -0.589   2.057  -1.227  0.00  0.00    -0.153 OA
ATOM     12  O   UNL     1      -0.565   2.044   1.264  0.00  0.00    -0.153 OA
BRANCH  10  17
ATOM     13  C   UNL     1       5.718   3.515  -0.034  0.00  0.00    +0.044 C 
ATOM     14  C   UNL     1       4.285   3.050  -0.022  0.00  0.00    -0.050 A 
ATOM     15  C   UNL     1       3.616   2.842  -1.214  0.00  0.00    +0.005 A 
ATOM     16  C   UNL     1       2.301   2.415  -1.204  0.00  0.00    +0.029 A 
ATOM     17  C   UNL     1       1.655   2.196  -0.002  0.00  0.00    +0.105 A 
ATOM     18  C   UNL     1       2.323   2.408   1.190  0.00  0.00    +0.029 A 
ATOM     19  C   UNL     1       3.639   2.830   1.180  0.00  0.00    +0.005 A 
ENDBRANCH  10  17
ENDBRANCH   8  10
ENDBRANCH   1   8
BRANCH   1  20
ATOM     20  C   UNL     1      -0.234  -2.026   1.358  0.00  0.00    +0.122 C 
BRANCH  20  21
ATOM     21  C   UNL     1      -1.648  -1.686   1.754  0.00  0.00    +0.234 C 
ATOM     22  O   UNL     1      -1.988  -0.526   1.854  0.00  0.00    -0.274 OA
ATOM     23  N   UNL     1      -2.535  -2.671   1.997  0.00  0.00    -0.207 N 
ATOM     24  H   UNL     1      -2.264  -3.599   1.917  0.00  0.00    +0.177 HD
BRANCH  23  25
ATOM     25  N   UNL     1      -3.849  -2.356   2.365  0.00  0.00    -0.188 NA
ATOM     26  C   UNL     1      -4.704  -3.304   2.599  0.00  0.00    +0.138 C 
BRANCH  26  27
ATOM     27  C   UNL     1      -6.087  -2.972   2.986  0.00  0.00    -0.004 A 
ATOM     28  C   UNL     1      -6.479  -1.636   3.108  0.00  0.00    +0.013 A 
ATOM     29  C   UNL     1      -7.773  -1.330   3.466  0.00  0.00    +0.047 A 
ATOM     30  C   UNL     1      -8.686  -2.346   3.716  0.00  0.00    +0.131 A 
ATOM     31  C   UNL     1      -8.300  -3.676   3.601  0.00  0.00    +0.060 A 
ATOM     32  C   UNL     1      -7.008  -3.992   3.238  0.00  0.00    +0.028 A 
ATOM     33 BR   UNL     1      -9.549  -5.055   3.943  0.00  0.00    -0.047 Br
BRANCH  30  34
ATOM     34  O   UNL     1      -9.961  -2.039   4.073  0.00  0.00    -0.506 OA
ATOM     35  H   UNL     1     -10.092  -1.955   5.028  0.00  0.00    +0.292 HD
ENDBRANCH  30  34
ENDBRANCH  26  27
ENDBRANCH  23  25
ENDBRANCH  20  21
ENDBRANCH   1  20
TORSDOF 9
