REMARK  Name = ZINC16380648
REMARK  10 active torsions:
REMARK  status: ('A' for Active; 'I' for Inactive)
REMARK    1  A    between atoms: C_1  and  C_2
REMARK    2  A    between atoms: C_2  and  C_3
REMARK    3  A    between atoms: C_8  and  N_9
REMARK    4  A    between atoms: C_10  and  C_12
REMARK    5  A    between atoms: C_12  and  N_13
REMARK    6  A    between atoms: N_13  and  C_14
REMARK    7  A    between atoms: N_13  and  C_15
REMARK    8  A    between atoms: C_15  and  C_16
REMARK    9  A    between atoms: C_19  and  C_29
REMARK   10  A    between atoms: C_22  and  C_24
REMARK                            x       y       z     vdW  Elec       q    Type
REMARK                         _______ _______ _______ _____ _____    ______ ____
ROOT
ATOM      1  C   UNL     1      -1.639  -0.449  -7.249  0.00  0.00    +0.021 C 
ENDROOT
BRANCH   1   2
ATOM      2  C   UNL     1      -2.528  -0.898  -8.380  0.00  0.00    +0.219 C 
ATOM      3  O   UNL     1      -3.648  -1.301  -8.148  0.00  0.00    -0.276 OA
ATOM      4  N   UNL     1      -2.078  -0.852  -9.650  0.00  0.00    -0.186 N 
ATOM      5  C   UNL     1      -2.840  -1.253 -10.843  0.00  0.00    +0.143 C 
ATOM      6  C   UNL     1      -1.858  -0.997 -12.003  0.00  0.00    +0.088 C 
ATOM      7  C   UNL     1      -0.618  -0.466 -11.322  0.00  0.00    +0.075 C 
ATOM      8  N   UNL     1      -0.817  -0.411 -10.047  0.00  0.00    -0.180 NA
BRANCH   7   9
ATOM      9  C   UNL     1       0.618  -0.068 -12.003  0.00  0.00    +0.035 A 
ATOM     10  C   UNL     1       1.795   0.419 -11.462  0.00  0.00    +0.017 A 
ATOM     11  C   UNL     1       2.829   0.725 -12.315  0.00  0.00    +0.008 A 
ATOM     12  C   UNL     1       2.666   0.542 -13.652  0.00  0.00    +0.046 A 
ATOM     13  S   UNL     1       1.001  -0.094 -13.747  0.00  0.00    -0.095 S 
ENDBRANCH   7   9
BRANCH   5  14
ATOM     14  C   UNL     1      -3.210  -2.712 -10.769  0.00  0.00    +0.013 A 
ATOM     15  C   UNL     1      -4.357  -3.322 -11.157  0.00  0.00    +0.013 A 
ATOM     16  C   UNL     1      -4.478  -4.689 -10.993  0.00  0.00    +0.008 A 
ATOM     17  C   UNL     1      -3.445  -5.380 -10.450  0.00  0.00    +0.045 A 
ATOM     18  S   UNL     1      -2.250  -4.087 -10.157  0.00  0.00    -0.100 S 
ENDBRANCH   5  14
ENDBRANCH   1   2
BRANCH   1  19
ATOM     19  N   UNL     1      -2.356  -0.596  -5.975  0.00  0.00    +0.389 N 
ATOM     20  C   UNL     1      -3.506   0.317  -5.952  0.00  0.00    -0.095 C 
ATOM     21  H   UNL     1      -2.679  -1.547  -5.879  0.00  0.00    -0.081 HD
BRANCH  19  22
ATOM     22  C   UNL     1      -1.451  -0.272  -4.864  0.00  0.00    +0.019 C 
BRANCH  22  24
ATOM     23  N   UNL     1      -1.505  -0.315  -2.391  0.00  0.00    -0.287 N 
ATOM     24  C   UNL     1      -2.147  -0.541  -3.555  0.00  0.00    +0.201 C 
ATOM     25  O   UNL     1      -3.285  -0.961  -3.548  0.00  0.00    -0.278 OA
ATOM     26  H   UNL     1      -0.620   0.082  -2.395  0.00  0.00    +0.155 HD
BRANCH  23  32
ATOM     27  C   UNL     1      -1.349  -1.119  -0.119  0.00  0.00    -0.026 A 
ATOM     28  C   UNL     1      -1.954  -1.445   1.079  0.00  0.00    +0.005 A 
ATOM     29  C   UNL     1      -3.322  -1.313   1.222  0.00  0.00    +0.000 A 
ATOM     30  C   UNL     1      -4.090  -0.854   0.168  0.00  0.00    +0.002 A 
ATOM     31  C   UNL     1      -3.491  -0.525  -1.033  0.00  0.00    +0.023 A 
ATOM     32  C   UNL     1      -2.116  -0.652  -1.178  0.00  0.00    +0.036 A 
BRANCH  27  34
ATOM     33  C   UNL     1       0.819   0.078   0.019  0.00  0.00    +0.009 C 
ATOM     34  C   UNL     1       0.143  -1.263  -0.275  0.00  0.00    +0.033 C 
ENDBRANCH  27  34
ENDBRANCH  23  32
ENDBRANCH  22  24
ENDBRANCH  19  22
ENDBRANCH   1  19
TORSDOF 8
