REMARK  Name = ZINC09370602
REMARK  12 active torsions:
REMARK  status: ('A' for Active; 'I' for Inactive)
REMARK    1  A    between atoms: C_1  and  C_2
REMARK    2  A    between atoms: C_5  and  S_8
REMARK    3  A    between atoms: S_8  and  C_9
REMARK    4  A    between atoms: C_9  and  C_10
REMARK    5  A    between atoms: C_17  and  N_36
REMARK    6  A    between atoms: C_18  and  C_34
REMARK    7  A    between atoms: C_19  and  C_21
REMARK    8  A    between atoms: C_24  and  O_29
REMARK    9  A    between atoms: C_25  and  O_27
REMARK   10  A    between atoms: O_27  and  C_28
REMARK   11  A    between atoms: O_29  and  C_30
REMARK   12  A    between atoms: C_30  and  C_31
REMARK                            x       y       z     vdW  Elec       q    Type
REMARK                         _______ _______ _______ _____ _____    ______ ____
ROOT
ATOM      1  C   UNL     1       0.097  -6.482   1.870  0.00  0.00    +0.081 A 
ATOM      2  C   UNL     1      -1.016  -7.309   1.944  0.00  0.00    +0.050 A 
ATOM      3  C   UNL     1      -0.579  -8.599   2.060  0.00  0.00    +0.223 A 
ATOM      4  N   UNL     1       0.764  -8.573   2.060  0.00  0.00    -0.246 N 
ATOM      5  H   UNL     1       1.350  -9.343   2.131  0.00  0.00    +0.192 HD
ATOM      6  N   UNL     1       1.169  -7.235   1.933  0.00  0.00    -0.175 NA
ATOM      7  O   UNL     1      -1.426  -9.654   2.151  0.00  0.00    -0.423 OA
ATOM      8  C   UNL     1      -2.723  -9.441   1.850  0.00  0.00    +0.200 C 
ATOM      9  C   UNL     1      -3.274  -8.214   1.722  0.00  0.00    +0.098 C 
ATOM     10  C   UNL     1      -2.478  -6.946   1.911  0.00  0.00    +0.101 C 
ENDROOT
BRANCH  10  11
ATOM     11  C   UNL     1      -2.869  -6.289   3.209  0.00  0.00    -0.031 A 
ATOM     12  C   UNL     1      -2.720  -6.974   4.401  0.00  0.00    +0.008 A 
ATOM     13  C   UNL     1      -3.076  -6.376   5.595  0.00  0.00    +0.050 A 
ATOM     14  C   UNL     1      -3.584  -5.087   5.599  0.00  0.00    +0.163 A 
ATOM     15  C   UNL     1      -3.734  -4.397   4.400  0.00  0.00    +0.162 A 
ATOM     16  C   UNL     1      -3.370  -5.001   3.207  0.00  0.00    +0.054 A 
BRANCH  15  17
ATOM     17  O   UNL     1      -4.232  -3.131   4.399  0.00  0.00    -0.491 OA
ATOM     18  C   UNL     1      -4.358  -2.485   3.131  0.00  0.00    +0.277 C 
ENDBRANCH  15  17
BRANCH  14  19
ATOM     19  O   UNL     1      -3.936  -4.497   6.773  0.00  0.00    -0.479 OA
BRANCH  19  20
ATOM     20  C   UNL     1      -3.755  -5.264   7.965  0.00  0.00    +0.324 C 
BRANCH  20  21
ATOM     21  C   UNL     1      -4.196  -4.454   9.156  0.00  0.00    +0.248 C 
ATOM     22  O   UNL     1      -4.623  -3.329   9.000  0.00  0.00    -0.272 OA
ATOM     23  N   UNL     1      -4.116  -4.978  10.395  0.00  0.00    -0.327 N 
ATOM     24  H   UNL     1      -3.774  -5.877  10.520  0.00  0.00    +0.145 HD
ATOM     25  H   UNL     1      -4.399  -4.456  11.162  0.00  0.00    +0.145 HD
ENDBRANCH  20  21
ENDBRANCH  19  20
ENDBRANCH  14  19
ENDBRANCH  10  11
BRANCH   8  26
ATOM     26  N   UNL     1      -3.531 -10.535   1.664  0.00  0.00    -0.328 N 
ATOM     27  H   UNL     1      -3.164 -11.429   1.749  0.00  0.00    +0.145 HD
ATOM     28  H   UNL     1      -4.469 -10.414   1.446  0.00  0.00    +0.145 HD
ENDBRANCH   8  26
BRANCH   9  29
ATOM     29  C   UNL     1      -4.664  -8.113   1.394  0.00  0.00    +0.101 C 
ATOM     30  N   UNL     1      -5.767  -8.033   1.135  0.00  0.00    -0.191 NA
ENDBRANCH   9  29
BRANCH   1  31
ATOM     31  C   UNL     1       0.077  -4.981   1.735  0.00  0.00    +0.132 C 
BRANCH  31  32
ATOM     32  S   UNL     1       0.062  -4.533  -0.023  0.00  0.00    -0.119 S 
BRANCH  32  37
ATOM     33  C   UNL     1      -0.018   1.503   0.010  0.00  0.00    +0.044 C 
ATOM     34  C   UNL     1       0.002  -0.004   0.002  0.00  0.00    -0.050 A 
ATOM     35  C   UNL     1       0.006  -0.687  -1.200  0.00  0.00    +0.004 A 
ATOM     36  C   UNL     1       0.024  -2.068  -1.212  0.00  0.00    +0.015 A 
ATOM     37  C   UNL     1       0.039  -2.771  -0.013  0.00  0.00    +0.008 A 
ATOM     38  C   UNL     1       0.036  -2.081   1.193  0.00  0.00    +0.015 A 
ATOM     39  C   UNL     1       0.023  -0.700   1.197  0.00  0.00    +0.004 A 
ENDBRANCH  32  37
ENDBRANCH  31  32
ENDBRANCH   1  31
TORSDOF 10
