REMARK  Name = ZINC34699213
REMARK  12 active torsions:
REMARK  status: ('A' for Active; 'I' for Inactive)
REMARK    1  A    between atoms: C_1  and  C_2
REMARK    2  A    between atoms: C_6  and  C_8
REMARK    3  A    between atoms: N_10  and  C_11
REMARK    4  A    between atoms: N_10  and  C_36
REMARK    5  A    between atoms: C_11  and  C_12
REMARK    6  A    between atoms: N_15  and  C_26
REMARK    7  A    between atoms: C_17  and  C_19
REMARK    8  A    between atoms: C_24  and  C_25
REMARK    9  A    between atoms: C_26  and  C_27
REMARK   10  A    between atoms: C_30  and  O_34
REMARK   11  A    between atoms: C_32  and  O_33
REMARK   12  A    between atoms: O_34  and  C_35
REMARK                            x       y       z     vdW  Elec       q    Type
REMARK                         _______ _______ _______ _____ _____    ______ ____
ROOT
ATOM      1  C   UNL     1      -0.992  -5.683   4.173  0.00  0.00    -0.005 C 
ATOM      2  C   UNL     1      -1.274  -6.976   3.377  0.00  0.00    -0.073 C 
ATOM      3  N   UNL     1      -0.472  -8.021   4.063  0.00  0.00    +0.383 N 
ATOM      4  C   UNL     1      -0.617  -7.703   5.507  0.00  0.00    -0.070 C 
ATOM      5  C   UNL     1      -0.560  -6.160   5.575  0.00  0.00    +0.005 C 
ATOM      6  H   UNL     1       0.496  -7.962   3.784  0.00  0.00    -0.081 HD
ENDROOT
BRANCH   5   7
ATOM      7  C   UNL     1      -1.517  -5.645   6.620  0.00  0.00    -0.043 A 
ATOM      8  C   UNL     1      -2.868  -5.916   6.514  0.00  0.00    +0.004 A 
ATOM      9  C   UNL     1      -3.745  -5.444   7.472  0.00  0.00    +0.000 A 
ATOM     10  C   UNL     1      -3.271  -4.701   8.537  0.00  0.00    +0.000 A 
ATOM     11  C   UNL     1      -1.919  -4.431   8.644  0.00  0.00    +0.003 A 
ATOM     12  C   UNL     1      -1.042  -4.907   7.688  0.00  0.00    -0.047 A 
ATOM     13  C   UNL     1       0.432  -4.616   7.806  0.00  0.00    +0.044 C 
ENDBRANCH   5   7
BRANCH   1  14
ATOM     14  C   UNL     1       0.135  -4.887   3.511  0.00  0.00    +0.110 C 
BRANCH  14  17
ATOM     15  C   UNL     1      -0.692  -3.099   2.079  0.00  0.00    +0.247 C 
ATOM     16  O   UNL     1      -1.192  -2.715   1.039  0.00  0.00    -0.270 OA
ATOM     17  N   UNL     1      -0.318  -4.387   2.212  0.00  0.00    -0.294 N 
BRANCH  15  23
ATOM     18  C   UNL     1       0.252   1.522   3.709  0.00  0.00    +0.044 C 
ATOM     19  C   UNL     1      -0.040   0.070   3.986  0.00  0.00    -0.050 A 
ATOM     20  C   UNL     1      -0.122  -0.380   5.292  0.00  0.00    +0.003 A 
ATOM     21  C   UNL     1      -0.390  -1.711   5.556  0.00  0.00    +0.001 A 
ATOM     22  C   UNL     1      -0.576  -2.600   4.516  0.00  0.00    +0.013 A 
ATOM     23  C   UNL     1      -0.494  -2.152   3.197  0.00  0.00    +0.037 A 
ATOM     24  C   UNL     1      -0.229  -0.806   2.938  0.00  0.00    +0.016 A 
ENDBRANCH  15  23
BRANCH  17  25
ATOM     25  C   UNL     1      -0.366  -5.286   1.056  0.00  0.00    +0.076 C 
ATOM     26  C   UNL     1      -0.476  -4.649  -0.331  0.00  0.00    +0.024 C 
ATOM     27  C   UNL     1      -1.681  -5.369   0.279  0.00  0.00    +0.024 C 
ENDBRANCH  17  25
ENDBRANCH  14  17
ENDBRANCH   1  14
BRANCH   3  28
ATOM     28  C   UNL     1      -1.012  -9.356   3.773  0.00  0.00    -0.039 C 
BRANCH  28  29
ATOM     29  C   UNL     1      -0.112 -10.403   4.377  0.00  0.00    -0.022 A 
ATOM     30  C   UNL     1       0.806 -11.065   3.583  0.00  0.00    +0.009 A 
ATOM     31  C   UNL     1       1.632 -12.026   4.134  0.00  0.00    +0.046 A 
ATOM     32  C   UNL     1       1.542 -12.328   5.486  0.00  0.00    +0.124 A 
ATOM     33  C   UNL     1       0.623 -11.666   6.283  0.00  0.00    +0.091 A 
ATOM     34  C   UNL     1      -0.201 -10.698   5.730  0.00  0.00    +0.122 A 
BRANCH  34  35
ATOM     35  O   UNL     1      -1.100 -10.042   6.511  0.00  0.00    -0.506 OA
ATOM     36  H   UNL     1      -1.964 -10.472   6.561  0.00  0.00    +0.292 HD
ENDBRANCH  34  35
BRANCH  32  37
ATOM     37  O   UNL     1       2.355 -13.274   6.026  0.00  0.00    -0.495 OA
ATOM     38  C   UNL     1       3.279 -13.917   5.145  0.00  0.00    +0.277 C 
ENDBRANCH  32  37
ENDBRANCH  28  29
ENDBRANCH   3  28
TORSDOF 9
