REMARK  Name = ZINC37465730
REMARK  5 active torsions:
REMARK  status: ('A' for Active; 'I' for Inactive)
REMARK    1  A    between atoms: C_1  and  C_2
REMARK    2  A    between atoms: C_5  and  N_8
REMARK    3  A    between atoms: N_8  and  S_9
REMARK    4  A    between atoms: S_9  and  C_12
REMARK    5  A    between atoms: C_14  and  C_18
REMARK                            x       y       z     vdW  Elec       q    Type
REMARK                         _______ _______ _______ _____ _____    ______ ____
ROOT
ATOM      1  S   UNL     1      -0.628  -4.871   2.665  0.00  0.00    +0.060 S 
ATOM      2  O   UNL     1      -0.467  -6.266   2.446  0.00  0.00    -0.153 OA
ATOM      3  O   UNL     1       0.295  -4.109   3.432  0.00  0.00    -0.153 OA
ENDROOT
BRANCH   1   4
ATOM      4  C   UNL     1      -2.205  -4.658   3.421  0.00  0.00    +0.127 A 
ATOM      5  C   UNL     1      -2.337  -3.897   4.554  0.00  0.00    +0.052 A 
ATOM      6  C   UNL     1      -3.625  -3.795   5.066  0.00  0.00    +0.103 A 
ATOM      7  S   UNL     1      -4.558  -4.782   3.912  0.00  0.00    -0.073 S 
ATOM      8  C   UNL     1      -3.310  -5.242   2.885  0.00  0.00    +0.082 A 
ATOM      9 BR   UNL     1      -3.417  -6.327   1.340  0.00  0.00    -0.041 Br
BRANCH   6  10
ATOM     10  C   UNL     1      -4.078  -3.090   6.209  0.00  0.00    +0.393 C 
ATOM     11  O   UNL     1      -3.284  -2.458   6.893  0.00  0.00    -0.240 OA
ATOM     12  O   UNL     1      -5.265  -3.114   6.512  0.00  0.00    -0.240 OA
ENDBRANCH   6  10
ENDBRANCH   1   4
BRANCH   1  13
ATOM     13  N   UNL     1      -0.701  -4.162   1.171  0.00  0.00    -0.187 NA
ATOM     14  H   UNL     1      -0.611  -4.704   0.372  0.00  0.00    +0.148 HD
BRANCH  13  19
ATOM     15  C   UNL     1      -0.839   1.296  -0.566  0.00  0.00    +0.007 C 
ATOM     16  C   UNL     1      -0.629  -0.214  -0.446  0.00  0.00    -0.014 C 
ATOM     17  C   UNL     1      -1.984  -0.906  -0.287  0.00  0.00    +0.005 C 
ATOM     18  C   UNL     1      -1.774  -2.417  -0.166  0.00  0.00    +0.020 C 
ATOM     19  C   UNL     1      -0.902  -2.715   1.055  0.00  0.00    +0.077 C 
ATOM     20  C   UNL     1       0.453  -2.023   0.896  0.00  0.00    +0.020 C 
ATOM     21  C   UNL     1       0.243  -0.512   0.776  0.00  0.00    +0.005 C 
ENDBRANCH  13  19
ENDBRANCH   1  13
TORSDOF 4
