REMARK  Name = ZINC06752711
REMARK  8 active torsions:
REMARK  status: ('A' for Active; 'I' for Inactive)
REMARK    1  A    between atoms: C_1  and  C_2
REMARK    2  A    between atoms: C_2  and  O_28
REMARK    3  A    between atoms: C_6  and  O_10
REMARK    4  A    between atoms: C_11  and  C_21
REMARK    5  A    between atoms: C_13  and  C_15
REMARK    6  A    between atoms: C_15  and  O_17
REMARK    7  A    between atoms: O_17  and  C_18
REMARK    8  A    between atoms: C_18  and  C_19
REMARK                            x       y       z     vdW  Elec       q    Type
REMARK                         _______ _______ _______ _____ _____    ______ ____
ROOT
ATOM      1  C   UNL     1       2.063   1.114   1.238  0.00  0.00    +0.042 C 
ATOM      2  C   UNL     1       1.286   1.562  -0.002  0.00  0.00    +0.082 C 
ATOM      3  C   UNL     1       2.042   1.125  -1.263  0.00  0.00    +0.090 C 
ATOM      4  C   UNL     1       3.296   1.955  -1.377  0.00  0.00    +0.046 A 
ATOM      5  C   UNL     1       3.508   3.112  -0.699  0.00  0.00    +0.044 A 
ATOM      6  C   UNL     1       4.772   3.592  -1.051  0.00  0.00    +0.235 A 
ATOM      7  N   UNL     1       5.299   2.752  -1.912  0.00  0.00    -0.136 NA
ATOM      8  N   UNL     1       4.382   1.714  -2.131  0.00  0.00    -0.278 N 
ATOM      9  H   UNL     1       4.513   0.932  -2.741  0.00  0.00    +0.189 HD
ATOM     10  C   UNL     1       2.516   3.726   0.256  0.00  0.00    +0.072 C 
ATOM     11  C   UNL     1       1.145   3.086   0.008  0.00  0.00    +0.141 C 
ENDROOT
BRANCH  10  12
ATOM     12  C   UNL     1       2.433   5.212   0.017  0.00  0.00    -0.039 A 
ATOM     13  C   UNL     1       2.070   5.692  -1.227  0.00  0.00    +0.005 A 
ATOM     14  C   UNL     1       1.989   7.055  -1.446  0.00  0.00    +0.015 A 
ATOM     15  C   UNL     1       2.283   7.938  -0.422  0.00  0.00    +0.018 A 
ATOM     16  C   UNL     1       2.652   7.457   0.821  0.00  0.00    +0.015 A 
ATOM     17  C   UNL     1       2.727   6.094   1.040  0.00  0.00    +0.005 A 
ATOM     18 BR   UNL     1       2.180   9.802  -0.722  0.00  0.00    -0.050 Br
ENDBRANCH  10  12
BRANCH   6  19
ATOM     19  O   UNL     1       5.354   4.729  -0.584  0.00  0.00    -0.491 OA
ATOM     20  H   UNL     1       6.258   4.835  -0.998  0.00  0.00    +0.294 HD
ENDBRANCH   6  19
BRANCH  11  21
ATOM     21  C   UNL     1       0.194   3.495   1.103  0.00  0.00    +0.314 C 
ATOM     22  O   UNL     1      -0.318   2.655   1.804  0.00  0.00    -0.250 OA
BRANCH  21  23
ATOM     23  O   UNL     1      -0.085   4.794   1.300  0.00  0.00    -0.460 OA
BRANCH  23  24
ATOM     24  C   UNL     1      -1.010   5.114   2.372  0.00  0.00    +0.259 C 
BRANCH  24  25
ATOM     25  C   UNL     1      -1.199   6.608   2.442  0.00  0.00    +0.006 C 
ATOM     26  C   UNL     1      -2.402   7.110   2.575  0.00  0.00    +0.007 C 
ENDBRANCH  24  25
ENDBRANCH  23  24
ENDBRANCH  21  23
ENDBRANCH  11  21
BRANCH   2  27
ATOM     27  O   UNL     1      -0.011   0.963   0.007  0.00  0.00    -0.388 OA
ATOM     28  H   UNL     1       0.002  -0.004   0.002  0.00  0.00    +0.210 HD
ENDBRANCH   2  27
TORSDOF 7
