REMARK  Name = ZINC22758297
REMARK  7 active torsions:
REMARK  status: ('A' for Active; 'I' for Inactive)
REMARK    1  A    between atoms: C_1  and  N_2
REMARK    2  A    between atoms: N_2  and  C_3
REMARK    3  A    between atoms: N_2  and  C_23
REMARK    4  A    between atoms: C_3  and  N_4
REMARK    5  A    between atoms: N_7  and  C_16
REMARK    6  A    between atoms: C_8  and  C_10
REMARK    7  A    between atoms: C_16  and  C_17
REMARK                            x       y       z     vdW  Elec       q    Type
REMARK                         _______ _______ _______ _____ _____    ______ ____
ROOT
ATOM      1  N   UNL     1       1.539  -4.366  -0.118  0.00  0.00    -0.257 N 
ATOM      2  C   UNL     1       0.222  -4.618  -0.268  0.00  0.00    +0.177 A 
ATOM      3  S   UNL     1      -0.577  -6.082   0.118  0.00  0.00    -0.011 S 
ATOM      4  N   UNL     1      -0.351  -3.509  -0.776  0.00  0.00    -0.299 N 
ATOM      5  C   UNL     1       0.631  -2.552  -0.943  0.00  0.00    +0.165 A 
ATOM      6  N   UNL     1       1.770  -3.055  -0.558  0.00  0.00    -0.152 NA
ENDROOT
BRANCH   5   7
ATOM      7  C   UNL     1       0.426  -1.187  -1.477  0.00  0.00    +0.037 A 
ATOM      8  C   UNL     1      -0.747  -0.479  -1.188  0.00  0.00    +0.014 A 
ATOM      9  C   UNL     1      -0.890   0.794  -1.711  0.00  0.00    +0.020 A 
ATOM     10  C   UNL     1       0.121   1.321  -2.495  0.00  0.00    +0.111 A 
ATOM     11  N   UNL     1       1.215   0.630  -2.751  0.00  0.00    -0.263 NA
ATOM     12  C   UNL     1       1.397  -0.585  -2.276  0.00  0.00    +0.122 A 
ENDBRANCH   5   7
BRANCH   1  13
ATOM     13  C   UNL     1       2.545  -5.295   0.404  0.00  0.00    +0.072 C 
BRANCH  13  15
ATOM     14  C   UNL     1       4.030  -5.248  -1.508  0.00  0.00    -0.093 C 
ATOM     15  N   UNL     1       3.116  -6.071  -0.705  0.00  0.00    +0.395 N 
ATOM     16  H   UNL     1       2.288  -6.391  -1.355  0.00  0.00    -0.079 HD
BRANCH  15  17
ATOM     17  C   UNL     1       3.792  -7.277  -0.209  0.00  0.00    -0.035 C 
ATOM     18  C   UNL     1       2.759  -8.275   0.358  0.00  0.00    -0.006 C 
ATOM     19  C   UNL     1       2.454  -9.166  -0.865  0.00  0.00    +0.034 C 
ATOM     20  C   UNL     1       3.696  -9.095  -1.727  0.00  0.00    -0.046 A 
ATOM     21  C   UNL     1       4.465  -8.009  -1.350  0.00  0.00    -0.058 A 
ATOM     22  C   UNL     1       5.655  -7.747  -2.006  0.00  0.00    +0.002 A 
ATOM     23  C   UNL     1       6.077  -8.565  -3.036  0.00  0.00    +0.000 A 
ATOM     24  C   UNL     1       5.308  -9.650  -3.413  0.00  0.00    +0.000 A 
ATOM     25  C   UNL     1       4.120  -9.914  -2.760  0.00  0.00    +0.004 A 
ENDBRANCH  15  17
ENDBRANCH  13  15
ENDBRANCH   1  13
BRANCH   4  26
ATOM     26  C   UNL     1      -1.771  -3.345  -1.095  0.00  0.00    +0.161 C 
BRANCH  26  27
ATOM     27  C   UNL     1      -1.986  -3.585  -2.567  0.00  0.00    -0.028 A 
ATOM     28  C   UNL     1      -1.909  -2.531  -3.457  0.00  0.00    +0.005 A 
ATOM     29  C   UNL     1      -2.102  -2.751  -4.808  0.00  0.00    +0.000 A 
ATOM     30  C   UNL     1      -2.382  -4.025  -5.268  0.00  0.00    +0.000 A 
ATOM     31  C   UNL     1      -2.465  -5.078  -4.376  0.00  0.00    +0.000 A 
ATOM     32  C   UNL     1      -2.267  -4.858  -3.026  0.00  0.00    +0.005 A 
ENDBRANCH  26  27
ENDBRANCH   4  26
TORSDOF 6
