REMARK  Name = ZINC06245567
REMARK  10 active torsions:
REMARK  status: ('A' for Active; 'I' for Inactive)
REMARK    1  A    between atoms: C_1  and  C_2
REMARK    2  A    between atoms: C_5  and  O_8
REMARK    3  A    between atoms: O_8  and  C_9
REMARK    4  A    between atoms: C_9  and  C_10
REMARK    5  A    between atoms: C_13  and  S_21
REMARK    6  A    between atoms: N_14  and  C_15
REMARK    7  A    between atoms: S_21  and  C_22
REMARK    8  A    between atoms: C_22  and  C_23
REMARK    9  A    between atoms: N_25  and  C_26
REMARK   10  A    between atoms: C_31  and  N_32
REMARK                            x       y       z     vdW  Elec       q    Type
REMARK                         _______ _______ _______ _____ _____    ______ ____
ROOT
ATOM      1  C   UNL     1      -9.688   0.333   0.716  0.00  0.00    +0.176 A 
ATOM      2  N   UNL     1      -8.870   1.324   0.497  0.00  0.00    -0.130 NA
ATOM      3  N   UNL     1      -7.657   0.898   0.472  0.00  0.00    -0.122 NA
ATOM      4  C   UNL     1      -7.635  -0.400   0.665  0.00  0.00    +0.197 A 
ATOM      5  N   UNL     1      -8.931  -0.803   0.831  0.00  0.00    -0.271 N 
ENDROOT
BRANCH   5   6
ATOM      6  C   UNL     1      -9.390  -2.106   1.069  0.00  0.00    +0.050 A 
ATOM      7  C   UNL     1     -10.187  -2.746   0.130  0.00  0.00    +0.026 A 
ATOM      8  C   UNL     1     -10.633  -4.032   0.365  0.00  0.00    +0.002 A 
ATOM      9  C   UNL     1     -10.297  -4.677   1.541  0.00  0.00    +0.000 A 
ATOM     10  C   UNL     1      -9.508  -4.040   2.481  0.00  0.00    +0.002 A 
ATOM     11  C   UNL     1      -9.054  -2.757   2.249  0.00  0.00    +0.026 A 
ENDBRANCH   5   6
BRANCH   1  12
ATOM     12  C   UNL     1     -11.189   0.421   0.821  0.00  0.00    +0.305 C 
BRANCH  12  13
ATOM     13  O   UNL     1     -11.558   0.654   2.182  0.00  0.00    -0.484 OA
BRANCH  13  18
ATOM     14  C   UNL     1     -17.061   1.093   3.301  0.00  0.00    +0.044 C 
ATOM     15  C   UNL     1     -15.588   0.975   3.001  0.00  0.00    -0.050 A 
ATOM     16  C   UNL     1     -14.665   1.093   4.024  0.00  0.00    +0.007 A 
ATOM     17  C   UNL     1     -13.314   0.986   3.752  0.00  0.00    +0.046 A 
ATOM     18  C   UNL     1     -12.886   0.760   2.452  0.00  0.00    +0.121 A 
ATOM     19  C   UNL     1     -13.814   0.648   1.427  0.00  0.00    +0.046 A 
ATOM     20  C   UNL     1     -15.163   0.750   1.705  0.00  0.00    +0.007 A 
ENDBRANCH  13  18
ENDBRANCH  12  13
ENDBRANCH   1  12
BRANCH   4  21
ATOM     21  S   UNL     1      -6.204  -1.428   0.710  0.00  0.00    -0.076 S 
BRANCH  21  22
ATOM     22  C   UNL     1      -4.918  -0.190   0.416  0.00  0.00    +0.173 C 
BRANCH  22  23
ATOM     23  C   UNL     1      -3.567  -0.859   0.412  0.00  0.00    +0.228 C 
ATOM     24  O   UNL     1      -3.483  -2.056   0.590  0.00  0.00    -0.275 OA
ATOM     25  N   UNL     1      -2.453  -0.128   0.210  0.00  0.00    -0.283 N 
ATOM     26  H   UNL     1      -2.513   0.838   0.144  0.00  0.00    +0.155 HD
BRANCH  25  27
ATOM     27  C   UNL     1      -1.211  -0.762   0.096  0.00  0.00    +0.064 A 
ATOM     28  C   UNL     1      -1.118  -2.005  -0.518  0.00  0.00    +0.025 A 
ATOM     29  C   UNL     1       0.109  -2.628  -0.629  0.00  0.00    +0.002 A 
ATOM     30  C   UNL     1       1.244  -2.017  -0.129  0.00  0.00    +0.002 A 
ATOM     31  C   UNL     1       1.156  -0.778   0.477  0.00  0.00    +0.034 A 
ATOM     32  C   UNL     1      -0.069  -0.151   0.596  0.00  0.00    +0.147 A 
BRANCH  32  33
ATOM     33  N   UNL     1      -0.164   1.173   1.251  0.00  0.00    +0.058 N 
ATOM     34  O   UNL     1       0.821   1.668   1.770  0.00  0.00    -0.126 OA
ATOM     35  O   UNL     1      -1.226   1.770   1.267  0.00  0.00    -0.126 OA
ENDBRANCH  32  33
ENDBRANCH  25  27
ENDBRANCH  22  23
ENDBRANCH  21  22
ENDBRANCH   4  21
TORSDOF 9
