REMARK  Name = ZINC13498734
REMARK  11 active torsions:
REMARK  status: ('A' for Active; 'I' for Inactive)
REMARK    1  A    between atoms: C_1  and  C_2
REMARK    2  A    between atoms: C_2  and  C_3
REMARK    3  A    between atoms: C_2  and  C_4
REMARK    4  A    between atoms: C_4  and  C_6
REMARK    5  A    between atoms: C_4  and  N_76
REMARK    6  A    between atoms: N_10  and  C_11
REMARK    7  A    between atoms: C_17  and  C_18
REMARK    8  A    between atoms: C_17  and  N_76
REMARK    9  A    between atoms: C_23  and  O_30
REMARK   10  A    between atoms: O_30  and  C_31
REMARK   11  A    between atoms: C_32  and  N_76
REMARK                            x       y       z     vdW  Elec       q    Type
REMARK                         _______ _______ _______ _____ _____    ______ ____
ROOT
ATOM      1  N   UNL     1       2.576   1.315   8.981  0.00  0.00    +0.391 N 
ATOM      2  H   UNL     1       3.158   1.361   8.136  0.00  0.00    -0.080 HD
ENDROOT
BRANCH   1   3
ATOM      3  C   UNL     1       2.454   2.672   9.554  0.00  0.00    -0.067 C 
ATOM      4  C   UNL     1       1.433   2.684  10.694  0.00  0.00    -0.015 C 
ATOM      5  C   UNL     1       1.323   4.099  11.265  0.00  0.00    -0.002 C 
ATOM      6  C   UNL     1       0.869   5.059  10.164  0.00  0.00    -0.000 C 
ATOM      7  C   UNL     1       1.890   5.048   9.025  0.00  0.00    -0.002 C 
ATOM      8  C   UNL     1       2.000   3.633   8.453  0.00  0.00    -0.015 C 
ENDBRANCH   1   3
BRANCH   1   9
ATOM      9  C   UNL     1       3.219   0.411   9.958  0.00  0.00    +0.006 C 
BRANCH   9  10
ATOM     10  C   UNL     1       4.341   1.142  10.649  0.00  0.00    +0.139 A 
ATOM     11  N   UNL     1       5.236   1.916  10.085  0.00  0.00    -0.115 NA
ATOM     12  N   UNL     1       6.022   2.354  11.007  0.00  0.00    -0.023 NA
ATOM     13  N   UNL     1       5.652   1.880  12.145  0.00  0.00    -0.044 NA
ATOM     14  N   UNL     1       4.615   1.132  11.967  0.00  0.00    -0.228 N 
BRANCH  14  15
ATOM     15  C   UNL     1       3.877   0.406  13.004  0.00  0.00    +0.111 C 
ATOM     16  C   UNL     1       3.326   1.400  14.028  0.00  0.00    +0.027 C 
ATOM     17  C   UNL     1       2.555   0.642  15.111  0.00  0.00    +0.002 C 
ATOM     18  C   UNL     1       3.495  -0.343  15.810  0.00  0.00    +0.000 C 
ATOM     19  C   UNL     1       4.046  -1.337  14.786  0.00  0.00    +0.002 C 
ATOM     20  C   UNL     1       4.817  -0.578  13.703  0.00  0.00    +0.027 C 
ENDBRANCH  14  15
ENDBRANCH   9  10
BRANCH   9  22
ATOM     21  C   UNL     1       4.739  -0.319   8.114  0.00  0.00    +0.006 C 
ATOM     22  C   UNL     1       3.784  -0.798   9.209  0.00  0.00    -0.024 C 
ATOM     23  C   UNL     1       4.540  -1.697  10.189  0.00  0.00    +0.006 C 
ENDBRANCH   9  22
ENDBRANCH   1   9
BRANCH   1  24
ATOM     24  C   UNL     1       1.240   0.798   8.617  0.00  0.00    -0.036 C 
BRANCH  24  25
ATOM     25  C   UNL     1       1.413  -0.364   7.674  0.00  0.00    +0.001 A 
ATOM     26  C   UNL     1       0.963  -1.595   8.027  0.00  0.00    +0.017 A 
ATOM     27  C   UNL     1       1.144  -2.702   7.089  0.00  0.00    -0.001 A 
ATOM     28  C   UNL     1       0.701  -3.993   7.400  0.00  0.00    +0.013 A 
ATOM     29  C   UNL     1       0.879  -5.005   6.503  0.00  0.00    +0.046 A 
ATOM     30  C   UNL     1       1.510  -4.767   5.283  0.00  0.00    +0.122 A 
ATOM     31  C   UNL     1       1.956  -3.498   4.957  0.00  0.00    +0.072 A 
ATOM     32  C   UNL     1       1.778  -2.454   5.856  0.00  0.00    +0.053 A 
ATOM     33  N   UNL     1       2.213  -1.180   5.557  0.00  0.00    -0.322 N 
ATOM     34  H   UNL     1       2.649  -1.010   4.707  0.00  0.00    +0.169 HD
ATOM     35  C   UNL     1       2.040  -0.169   6.426  0.00  0.00    +0.251 A 
ATOM     36  O   UNL     1       2.437   0.945   6.129  0.00  0.00    -0.268 OA
BRANCH  30  37
ATOM     37  O   UNL     1       1.683  -5.787   4.404  0.00  0.00    -0.495 OA
ATOM     38  C   UNL     1       1.201  -7.073   4.800  0.00  0.00    +0.277 C 
ENDBRANCH  30  37
ENDBRANCH  24  25
ENDBRANCH   1  24
TORSDOF 8
