REMARK  Name = ZINC13981009
REMARK  10 active torsions:
REMARK  status: ('A' for Active; 'I' for Inactive)
REMARK    1  A    between atoms: C_1  and  C_2
REMARK    2  A    between atoms: C_4  and  C_27
REMARK    3  A    between atoms: C_6  and  O_8
REMARK    4  A    between atoms: O_8  and  C_9
REMARK    5  A    between atoms: C_9  and  C_10
REMARK    6  A    between atoms: N_12  and  N_13
REMARK    7  A    between atoms: C_14  and  C_16
REMARK    8  A    between atoms: C_16  and  O_17
REMARK    9  A    between atoms: O_17  and  C_18
REMARK   10  A    between atoms: C_19  and  C_26
REMARK                            x       y       z     vdW  Elec       q    Type
REMARK                         _______ _______ _______ _____ _____    ______ ____
ROOT
ATOM      1  N   UNL     1       6.288   6.013  -0.028  0.00  0.00    -0.231 N 
ATOM      2  C   UNL     1       6.448   7.351  -0.023  0.00  0.00    +0.267 C 
ATOM      3  O   UNL     1       5.477   8.078  -0.010  0.00  0.00    -0.271 OA
ATOM      4  H   UNL     1       7.065   5.432  -0.039  0.00  0.00    +0.173 HD
ENDROOT
BRANCH   1   7
ATOM      5  C   UNL     1       4.841   4.123  -0.024  0.00  0.00    +0.267 C 
ATOM      6  O   UNL     1       5.812   3.397  -0.037  0.00  0.00    -0.271 OA
ATOM      7  N   UNL     1       5.000   5.461  -0.018  0.00  0.00    -0.231 N 
ATOM      8  H   UNL     1       4.224   6.043  -0.008  0.00  0.00    +0.173 HD
BRANCH   5   9
ATOM      9  C   UNL     1       3.456   3.530  -0.013  0.00  0.00    +0.326 C 
BRANCH   9  10
ATOM     10  O   UNL     1       3.548   2.104  -0.021  0.00  0.00    -0.483 OA
BRANCH  10  16
ATOM     11  C   UNL     1      -1.332   2.114   0.020  0.00  0.00    +0.044 C 
ATOM     12  C   UNL     1      -0.017   1.378   0.010  0.00  0.00    -0.047 A 
ATOM     13  C   UNL     1       0.002  -0.004   0.002  0.00  0.00    +0.007 A 
ATOM     14  C   UNL     1       1.207  -0.681  -0.013  0.00  0.00    -0.047 A 
ATOM     15  C   UNL     1       2.396   0.022  -0.020  0.00  0.00    +0.049 A 
ATOM     16  C   UNL     1       2.380   1.409  -0.013  0.00  0.00    +0.122 A 
ATOM     17  C   UNL     1       1.169   2.087   0.002  0.00  0.00    +0.049 A 
ATOM     18  C   UNL     1       1.224  -2.188  -0.020  0.00  0.00    +0.044 C 
ENDBRANCH  10  16
ENDBRANCH   9  10
ENDBRANCH   5   9
ENDBRANCH   1   7
BRANCH   2  19
ATOM     19  C   UNL     1       7.833   7.945  -0.034  0.00  0.00    +0.326 C 
BRANCH  19  20
ATOM     20  O   UNL     1       7.740   9.371  -0.025  0.00  0.00    -0.481 OA
BRANCH  20  21
ATOM     21  C   UNL     1       8.909  10.065  -0.033  0.00  0.00    +0.138 A 
ATOM     22  C   UNL     1       9.494  10.426  -1.238  0.00  0.00    -0.007 A 
ATOM     23  C   UNL     1      10.681  11.133  -1.244  0.00  0.00    +0.022 A 
ATOM     24  C   UNL     1      11.287  11.480  -0.050  0.00  0.00    +0.019 A 
ATOM     25  C   UNL     1      10.706  11.121   1.153  0.00  0.00    +0.034 A 
ATOM     26  C   UNL     1       9.515  10.419   1.164  0.00  0.00    +0.061 A 
ATOM     27 BR   UNL     1       8.716   9.936   2.808  0.00  0.00    -0.046 Br
ATOM     28 BR   UNL     1      12.912  12.447  -0.062  0.00  0.00    -0.050 Br
ATOM     29  C   UNL     1       8.836  10.048  -2.540  0.00  0.00    +0.047 C 
ENDBRANCH  20  21
ENDBRANCH  19  20
ENDBRANCH   2  19
TORSDOF 7
