REMARK  Name = ZINC64131736
REMARK  6 active torsions:
REMARK  status: ('A' for Active; 'I' for Inactive)
REMARK    1  A    between atoms: C_1  and  N_2
REMARK    2  A    between atoms: C_10  and  C_12
REMARK    3  A    between atoms: N_26  and  C_27
REMARK    4  A    between atoms: C_27  and  C_28
REMARK    5  A    between atoms: C_31  and  S_34
REMARK    6  A    between atoms: S_34  and  C_35
REMARK                            x       y       z     vdW  Elec       q    Type
REMARK                         _______ _______ _______ _____ _____    ______ ____
ROOT
ATOM      1  C   UNL     1      -1.227  -0.649   2.033  0.00  0.00    +0.122 C 
ATOM      2  C   UNL     1      -1.197  -1.577   3.250  0.00  0.00    +0.127 C 
ATOM      3  C   UNL     1      -2.545  -1.415   3.943  0.00  0.00    -0.036 C 
ATOM      4  C   UNL     1      -2.284  -1.107   5.205  0.00  0.00    -0.001 A 
ATOM      5  C   UNL     1      -3.161  -0.914   6.371  0.00  0.00    +0.010 A 
ATOM      6  C   UNL     1      -2.546  -0.583   7.537  0.00  0.00    +0.001 A 
ATOM      7  C   UNL     1      -1.162  -0.427   7.659  0.00  0.00    +0.002 A 
ATOM      8  C   UNL     1      -0.279  -0.591   6.641  0.00  0.00    +0.026 A 
ATOM      9  C   UNL     1      -0.806  -0.945   5.366  0.00  0.00    +0.043 A 
ATOM     10  N   UNL     1      -0.183  -1.188   4.229  0.00  0.00    -0.376 N 
ATOM     11  C   UNL     1      -3.844  -1.515   3.180  0.00  0.00    +0.049 C 
ATOM     12  C   UNL     1      -3.678  -0.632   1.930  0.00  0.00    +0.089 C 
ATOM     13  N   UNL     1      -2.427  -0.962   1.241  0.00  0.00    -0.289 NA
ATOM     14  H   UNL     1       0.770  -1.121   4.062  0.00  0.00    +0.160 HD
ENDROOT
BRANCH   1  24
ATOM     15  C   UNL     1      -0.778  -3.122   0.112  0.00  0.00    +0.131 C 
ATOM     16  N   UNL     1       0.172  -2.299   0.864  0.00  0.00    -0.312 N 
ATOM     17  C   UNL     1       1.392  -2.724   1.406  0.00  0.00    +0.052 A 
ATOM     18  C   UNL     1       2.004  -3.972   1.384  0.00  0.00    +0.025 A 
ATOM     19  C   UNL     1       3.228  -4.156   1.998  0.00  0.00    +0.002 A 
ATOM     20  C   UNL     1       3.849  -3.100   2.638  0.00  0.00    +0.002 A 
ATOM     21  C   UNL     1       3.249  -1.856   2.666  0.00  0.00    +0.025 A 
ATOM     22  C   UNL     1       2.018  -1.661   2.050  0.00  0.00    +0.050 A 
ATOM     23  N   UNL     1       1.224  -0.510   1.947  0.00  0.00    -0.323 N 
ATOM     24  C   UNL     1       0.025  -0.873   1.183  0.00  0.00    +0.178 C 
ATOM     25  H   UNL     1       1.431   0.365   2.310  0.00  0.00    +0.148 HD
ENDBRANCH   1  24
BRANCH  13  26
ATOM     26  C   UNL     1      -2.368  -0.322  -0.080  0.00  0.00    +0.123 C 
BRANCH  26  27
ATOM     27  C   UNL     1      -3.552  -0.759  -0.903  0.00  0.00    +0.003 A 
ATOM     28  C   UNL     1      -3.479  -1.888  -1.704  0.00  0.00    +0.120 A 
ATOM     29  N   UNL     1      -4.536  -2.245  -2.414  0.00  0.00    -0.230 NA
ATOM     30  C   UNL     1      -5.655  -1.536  -2.367  0.00  0.00    +0.188 A 
ATOM     31  N   UNL     1      -5.757  -0.451  -1.611  0.00  0.00    -0.230 NA
ATOM     32  C   UNL     1      -4.739  -0.044  -0.872  0.00  0.00    +0.120 A 
BRANCH  30  33
ATOM     33  S   UNL     1      -7.039  -2.046  -3.330  0.00  0.00    -0.089 S 
ATOM     34  C   UNL     1      -8.313  -0.809  -2.959  0.00  0.00    +0.093 C 
ENDBRANCH  30  33
ENDBRANCH  26  27
ENDBRANCH  13  26
TORSDOF 4
