REMARK  Name = ZINC36558774
REMARK  14 active torsions:
REMARK  status: ('A' for Active; 'I' for Inactive)
REMARK    1  A    between atoms: C_1  and  C_2
REMARK    2  A    between atoms: C_2  and  C_3
REMARK    3  A    between atoms: C_3  and  C_4
REMARK    4  A    between atoms: C_4  and  N_5
REMARK    5  A    between atoms: C_6  and  C_8
REMARK    6  A    between atoms: C_8  and  C_10
REMARK    7  A    between atoms: C_8  and  N_19
REMARK    8  A    between atoms: C_11  and  O_18
REMARK    9  A    between atoms: C_13  and  O_17
REMARK   10  A    between atoms: C_15  and  O_16
REMARK   11  A    between atoms: N_19  and  C_20
REMARK   12  A    between atoms: C_20  and  C_21
REMARK   13  A    between atoms: C_24  and  C_26
REMARK   14  A    between atoms: C_27  and  C_29
REMARK                            x       y       z     vdW  Elec       q    Type
REMARK                         _______ _______ _______ _____ _____    ______ ____
ROOT
ATOM      1  C   UNL     1      -5.651  -5.760   0.834  0.00  0.00    +0.200 C 
ENDROOT
BRANCH   1   2
ATOM      2  C   UNL     1      -7.062  -6.004   0.364  0.00  0.00    +0.065 A 
ATOM      3  C   UNL     1      -7.791  -7.065   0.880  0.00  0.00    +0.129 A 
ATOM      4  C   UNL     1      -9.089  -7.289   0.448  0.00  0.00    +0.091 A 
ATOM      5  C   UNL     1      -9.659  -6.453  -0.501  0.00  0.00    +0.124 A 
ATOM      6  C   UNL     1      -8.930  -5.392  -1.017  0.00  0.00    +0.091 A 
ATOM      7  C   UNL     1      -7.633  -5.165  -0.581  0.00  0.00    +0.129 A 
BRANCH   7   8
ATOM      8  O   UNL     1      -6.921  -4.122  -1.083  0.00  0.00    -0.506 OA
ATOM      9  H   UNL     1      -6.409  -4.340  -1.874  0.00  0.00    +0.292 HD
ENDBRANCH   7   8
BRANCH   5  10
ATOM     10  O   UNL     1     -10.931  -6.674  -0.925  0.00  0.00    -0.507 OA
ATOM     11  H   UNL     1     -11.604  -6.216  -0.405  0.00  0.00    +0.292 HD
ENDBRANCH   5  10
BRANCH   3  12
ATOM     12  O   UNL     1      -7.233  -7.884   1.810  0.00  0.00    -0.506 OA
ATOM     13  H   UNL     1      -7.312  -7.560   2.717  0.00  0.00    +0.292 HD
ENDBRANCH   3  12
ENDBRANCH   1   2
BRANCH   1  15
ATOM     14  N   UNL     1      -5.542  -3.320   1.226  0.00  0.00    -0.313 N 
ATOM     15  C   UNL     1      -5.224  -4.369   0.441  0.00  0.00    +0.238 C 
ATOM     16  O   UNL     1      -4.595  -4.193  -0.581  0.00  0.00    -0.273 OA
ATOM     17  H   UNL     1      -6.045  -3.461   2.043  0.00  0.00    +0.149 HD
BRANCH  14  18
ATOM     18  C   UNL     1      -5.128  -1.968   0.845  0.00  0.00    +0.104 C 
BRANCH  18  19
ATOM     19  C   UNL     1      -5.611  -0.970   1.898  0.00  0.00    +0.018 C 
BRANCH  19  21
ATOM     20  C   UNL     1      -5.662   1.441   2.554  0.00  0.00    +0.004 C 
ATOM     21  C   UNL     1      -5.178   0.443   1.500  0.00  0.00    -0.002 C 
ENDBRANCH  19  21
ENDBRANCH  18  19
ENDBRANCH  14  18
ENDBRANCH   1  15
BRANCH   1  22
ATOM     22  N   UNL     1      -4.754  -6.739   0.215  0.00  0.00    -0.274 N 
ATOM     23  C   UNL     1      -3.517  -6.930   0.715  0.00  0.00    +0.248 C 
ATOM     24  O   UNL     1      -2.636  -7.373   0.004  0.00  0.00    -0.270 OA
BRANCH  23  25
ATOM     25  C   UNL     1      -3.232  -6.600   2.127  0.00  0.00    +0.037 A 
ATOM     26  C   UNL     1      -3.724  -5.418   2.684  0.00  0.00    +0.014 A 
ATOM     27  C   UNL     1      -3.455  -5.116   4.002  0.00  0.00    +0.021 A 
ATOM     28  C   UNL     1      -2.697  -5.982   4.773  0.00  0.00    +0.041 A 
ATOM     29  C   UNL     1      -2.206  -7.156   4.226  0.00  0.00    +0.021 A 
ATOM     30  C   UNL     1      -2.474  -7.472   2.911  0.00  0.00    +0.014 A 
ATOM     31 CL   UNL     1      -2.362  -5.595   6.432  0.00  0.00    -0.084 Cl
ENDBRANCH  23  25
BRANCH  22  32
ATOM     32  C   UNL     1      -5.201  -7.510  -0.948  0.00  0.00    +0.183 C 
BRANCH  32  33
ATOM     33  C   UNL     1      -4.450  -7.053  -2.172  0.00  0.00    +0.122 A 
ATOM     34  C   UNL     1      -3.257  -7.520  -2.583  0.00  0.00    +0.046 A 
ATOM     35  C   UNL     1      -2.928  -6.819  -3.765  0.00  0.00    +0.045 A 
ATOM     36  C   UNL     1      -3.940  -5.966  -4.007  0.00  0.00    +0.102 A 
ATOM     37  O   UNL     1      -4.862  -6.116  -3.042  0.00  0.00    -0.463 OA
ATOM     38  C   UNL     1      -4.027  -5.008  -5.167  0.00  0.00    +0.086 C 
ENDBRANCH  32  33
ENDBRANCH  22  32
ENDBRANCH   1  22
TORSDOF 12
