REMARK  Name = ZINC09110020
REMARK  13 active torsions:
REMARK  status: ('A' for Active; 'I' for Inactive)
REMARK    1  A    between atoms: C_1  and  C_2
REMARK    2  A    between atoms: C_2  and  N_55
REMARK    3  A    between atoms: C_3  and  C_4
REMARK    4  A    between atoms: C_3  and  N_55
REMARK    5  A    between atoms: C_5  and  C_6
REMARK    6  A    between atoms: C_5  and  N_55
REMARK    7  A    between atoms: C_6  and  C_7
REMARK    8  A    between atoms: C_7  and  C_8
REMARK    9  A    between atoms: C_8  and  C_10
REMARK   10  A    between atoms: C_8  and  N_11
REMARK   11  A    between atoms: C_12  and  C_13
REMARK   12  A    between atoms: C_17  and  O_28
REMARK   13  A    between atoms: N_18  and  C_21
REMARK                            x       y       z     vdW  Elec       q    Type
REMARK                         _______ _______ _______ _____ _____    ______ ____
ROOT
ATOM      1  C   UNL     1       1.532   4.578   0.799  0.00  0.00    +0.204 C 
ATOM      2  C   UNL     1       2.484   3.473   1.037  0.00  0.00    +0.257 C 
ATOM      3  O   UNL     1       3.684   3.642   0.900  0.00  0.00    -0.272 OA
ATOM      4  N   UNL     1       1.995   2.278   1.408  0.00  0.00    -0.130 NA
ATOM      5  C   UNL     1       0.712   2.073   1.568  0.00  0.00    +0.285 C 
ATOM      6  N   UNL     1      -0.235   3.028   1.365  0.00  0.00    -0.195 N 
ATOM      7  C   UNL     1       0.103   4.280   0.990  0.00  0.00    +0.245 C 
ATOM      8  O   UNL     1      -0.746   5.134   0.814  0.00  0.00    -0.274 OA
ENDROOT
BRANCH   6   9
ATOM      9  C   UNL     1      -1.587   2.708   1.556  0.00  0.00    +0.045 A 
ATOM     10  C   UNL     1      -2.298   3.287   2.598  0.00  0.00    +0.025 A 
ATOM     11  C   UNL     1      -3.629   2.970   2.784  0.00  0.00    +0.017 A 
ATOM     12  C   UNL     1      -4.253   2.072   1.936  0.00  0.00    +0.018 A 
ATOM     13  C   UNL     1      -3.548   1.498   0.893  0.00  0.00    +0.017 A 
ATOM     14  C   UNL     1      -2.216   1.812   0.703  0.00  0.00    +0.025 A 
ATOM     15 BR   UNL     1      -6.073   1.634   2.199  0.00  0.00    -0.050 Br
ENDBRANCH   6   9
BRANCH   1  17
ATOM     16  N   UNL     1       1.090   6.859   0.358  0.00  0.00    -0.292 NA
ATOM     17  C   UNL     1       1.964   5.834   0.415  0.00  0.00    +0.100 C 
BRANCH  16  18
ATOM     18  C   UNL     1       1.547   8.190  -0.049  0.00  0.00    +0.102 C 
ATOM     19  C   UNL     1       1.536   8.288  -1.575  0.00  0.00    +0.032 C 
BRANCH  18  20
ATOM     20  C   UNL     1       0.614   9.251   0.538  0.00  0.00    +0.024 C 
BRANCH  20  21
ATOM     21  C   UNL     1       0.720   9.236   2.064  0.00  0.00    -0.017 C 
BRANCH  21  22
ATOM     22  C   UNL     1      -0.213  10.297   2.650  0.00  0.00    -0.079 C 
BRANCH  22  23
ATOM     23  N   UNL     1      -0.115  10.256   4.125  0.00  0.00    +0.379 N 
ATOM     24  H   UNL     1      -0.257   9.290   4.441  0.00  0.00    -0.082 HD
BRANCH  23  26
ATOM     25  C   UNL     1       1.512  12.115   4.021  0.00  0.00    -0.017 C 
ATOM     26  C   UNL     1       1.224  10.710   4.555  0.00  0.00    -0.082 C 
ENDBRANCH  23  26
BRANCH  23  27
ATOM     27  C   UNL     1      -1.157  11.116   4.724  0.00  0.00    -0.082 C 
ATOM     28  C   UNL     1      -1.141  10.927   6.242  0.00  0.00    -0.017 C 
ENDBRANCH  23  27
ENDBRANCH  22  23
ENDBRANCH  21  22
ENDBRANCH  20  21
ENDBRANCH  18  20
ENDBRANCH  16  18
ENDBRANCH   1  17
BRANCH   5  29
ATOM     29  O   UNL     1       0.306   0.845   1.947  0.00  0.00    -0.483 OA
ATOM     30  H   UNL     1       0.994   0.179   2.086  0.00  0.00    +0.295 HD
ENDBRANCH   5  29
TORSDOF 10
