REMARK  Name = ZINC03201802
REMARK  6 active torsions:
REMARK  status: ('A' for Active; 'I' for Inactive)
REMARK    1  A    between atoms: C_4  and  C_7
REMARK    2  A    between atoms: P_9  and  N_20
REMARK    3  A    between atoms: C_12  and  C_14
REMARK    4  A    between atoms: N_20  and  N_21
REMARK    5  A    between atoms: C_22  and  C_23
REMARK    6  A    between atoms: C_32  and  O_33
REMARK                            x       y       z     vdW  Elec       q    Type
REMARK                         _______ _______ _______ _____ _____    ______ ____
ROOT
ATOM      1  C   UNL     1       0.956   5.209   5.724  0.00  0.00    +0.141 C 
ATOM      2  C   UNL     1       0.060   4.246   5.479  0.00  0.00    +0.111 C 
ATOM      3  P   UNL     1      -0.008   3.636   3.757  0.00  0.00    +0.229 P 
ATOM      4  O   UNL     1      -1.224   4.142   3.082  0.00  0.00    -0.290 OA
ATOM      5  C   UNL     1       1.489   4.300   2.946  0.00  0.00    +0.111 C 
ATOM      6  C   UNL     1       2.146   5.253   3.622  0.00  0.00    +0.141 C 
ATOM      7  O   UNL     1       1.765   5.741   4.805  0.00  0.00    -0.454 OA
ENDROOT
BRANCH   1  11
ATOM      8  C   UNL     1       1.246   6.674   9.702  0.00  0.00    +0.000 A 
ATOM      9  C   UNL     1       2.063   7.195   8.715  0.00  0.00    +0.001 A 
ATOM     10  C   UNL     1       1.974   6.723   7.421  0.00  0.00    +0.011 A 
ATOM     11  C   UNL     1       1.057   5.719   7.110  0.00  0.00    +0.017 A 
ATOM     12  C   UNL     1       0.232   5.202   8.108  0.00  0.00    +0.011 A 
ATOM     13  C   UNL     1       0.335   5.678   9.400  0.00  0.00    +0.001 A 
ENDBRANCH   1  11
BRANCH   6  14
ATOM     14  C   UNL     1       3.376   5.806   3.013  0.00  0.00    +0.017 A 
ATOM     15  C   UNL     1       3.822   5.329   1.780  0.00  0.00    +0.011 A 
ATOM     16  C   UNL     1       4.967   5.853   1.214  0.00  0.00    +0.001 A 
ATOM     17  C   UNL     1       5.678   6.840   1.872  0.00  0.00    +0.000 A 
ATOM     18  C   UNL     1       5.243   7.314   3.097  0.00  0.00    +0.001 A 
ATOM     19  C   UNL     1       4.097   6.803   3.671  0.00  0.00    +0.011 A 
ENDBRANCH   6  14
BRANCH   3  20
ATOM     20  N   UNL     1       0.013   1.996   3.733  0.00  0.00    -0.210 N 
ATOM     21  H   UNL     1       0.028   1.500   4.566  0.00  0.00    +0.176 HD
BRANCH  20  22
ATOM     22  N   UNL     1       0.010   1.313   2.510  0.00  0.00    -0.188 NA
ATOM     23  C   UNL     1       0.026   0.014   2.492  0.00  0.00    +0.142 C 
BRANCH  23  24
ATOM     24  C   UNL     1       0.023  -0.703   1.208  0.00  0.00    +0.044 A 
ATOM     25  C   UNL     1       0.042  -2.164   1.169  0.00  0.00    -0.006 A 
ATOM     26  C   UNL     1       0.063  -2.926   2.344  0.00  0.00    +0.009 A 
ATOM     27  C   UNL     1       0.080  -4.286   2.264  0.00  0.00    +0.001 A 
ATOM     28  C   UNL     1       0.076  -4.930   1.028  0.00  0.00    +0.001 A 
ATOM     29  C   UNL     1       0.056  -4.220  -0.133  0.00  0.00    +0.008 A 
ATOM     30  C   UNL     1       0.039  -2.815  -0.089  0.00  0.00    -0.017 A 
ATOM     31  C   UNL     1       0.016  -2.048  -1.266  0.00  0.00    +0.012 A 
ATOM     32  C   UNL     1      -0.006  -0.690  -1.211  0.00  0.00    +0.046 A 
ATOM     33  C   UNL     1       0.002  -0.004   0.002  0.00  0.00    +0.126 A 
BRANCH  33  34
ATOM     34  O   UNL     1      -0.016   1.354   0.009  0.00  0.00    -0.506 OA
ATOM     35  H   UNL     1       0.862   1.759   0.003  0.00  0.00    +0.292 HD
ENDBRANCH  33  34
ENDBRANCH  23  24
ENDBRANCH  20  22
ENDBRANCH   3  20
TORSDOF 6
