REMARK  Name = ZINC61653323
REMARK  8 active torsions:
REMARK  status: ('A' for Active; 'I' for Inactive)
REMARK    1  A    between atoms: C_1  and  N_2
REMARK    2  A    between atoms: N_2  and  C_3
REMARK    3  A    between atoms: N_2  and  C_4
REMARK    4  A    between atoms: C_4  and  C_5
REMARK    5  A    between atoms: N_10  and  C_11
REMARK    6  A    between atoms: C_11  and  C_12
REMARK    7  A    between atoms: C_13  and  N_17
REMARK    8  A    between atoms: N_17  and  N_18
REMARK                            x       y       z     vdW  Elec       q    Type
REMARK                         _______ _______ _______ _____ _____    ______ ____
ROOT
ATOM      1  C   UNL     1      -1.122   1.367  -2.885  0.00  0.00    +0.144 C 
ENDROOT
BRANCH   1   6
ATOM      2  C   UNL     1      -1.995  -0.323  -1.379  0.00  0.00    +0.040 C 
ATOM      3  C   UNL     1      -3.490  -0.699  -1.322  0.00  0.00    +0.018 C 
ATOM      4  C   UNL     1      -4.181   0.657  -1.023  0.00  0.00    +0.017 C 
ATOM      5  C   UNL     1      -3.293   1.644  -1.821  0.00  0.00    +0.085 C 
ATOM      6  N   UNL     1      -1.915   1.120  -1.674  0.00  0.00    -0.295 NA
BRANCH   2   7
ATOM      7  C   UNL     1      -1.333  -0.616  -0.032  0.00  0.00    -0.061 C 
BRANCH   7   9
ATOM      8  C   UNL     1       0.650  -0.294   1.279  0.00  0.00    -0.097 C 
ATOM      9  N   UNL     1       0.060  -0.152  -0.059  0.00  0.00    +0.377 N 
ATOM     10  C   UNL     1       0.826  -0.956  -1.020  0.00  0.00    -0.097 C 
ATOM     11  H   UNL     1       0.086   0.818  -0.336  0.00  0.00    -0.083 HD
ENDBRANCH   7   9
ENDBRANCH   2   7
ENDBRANCH   1   6
BRANCH   1  12
ATOM     12  C   UNL     1      -0.855   2.844  -3.019  0.00  0.00    +0.108 A 
ATOM     13  C   UNL     1      -1.707   3.672  -3.693  0.00  0.00    +0.124 A 
ATOM     14  S   UNL     1      -0.944   5.161  -3.532  0.00  0.00    +0.053 S 
ATOM     15  N   UNL     1       0.388   4.676  -2.639  0.00  0.00    -0.108 NA
ATOM     16  N   UNL     1       0.207   3.407  -2.488  0.00  0.00    -0.143 NA
BRANCH  13  17
ATOM     17  N   UNL     1      -2.898   3.363  -4.345  0.00  0.00    -0.274 N 
ATOM     18  H   UNL     1      -3.220   2.448  -4.357  0.00  0.00    +0.167 HD
BRANCH  17  19
ATOM     19  N   UNL     1      -3.611   4.347  -4.967  0.00  0.00    -0.256 NA
ATOM     20  H   UNL     1      -3.043   4.831  -5.647  0.00  0.00    +0.140 HD
ATOM     21  H   UNL     1      -4.446   3.974  -5.393  0.00  0.00    +0.140 HD
ENDBRANCH  17  19
ENDBRANCH  13  17
ENDBRANCH   1  12
TORSDOF 6
