REMARK  Name = ZINC14160148
REMARK  7 active torsions:
REMARK  status: ('A' for Active; 'I' for Inactive)
REMARK    1  A    between atoms: C_6  and  C_7
REMARK    2  A    between atoms: C_10  and  S_15
REMARK    3  A    between atoms: N_11  and  C_12
REMARK    4  A    between atoms: S_15  and  C_16
REMARK    5  A    between atoms: C_16  and  C_17
REMARK    6  A    between atoms: N_19  and  C_20
REMARK    7  A    between atoms: C_21  and  C_28
REMARK                            x       y       z     vdW  Elec       q    Type
REMARK                         _______ _______ _______ _____ _____    ______ ____
ROOT
ATOM      1  S   UNL     1       0.425   4.276   0.793  0.00  0.00    -0.077 S 
ENDROOT
BRANCH   1   5
ATOM      2  C   UNL     1       2.498   1.184  -0.396  0.00  0.00    +0.165 A 
ATOM      3  N   UNL     1       3.431   2.063  -0.109  0.00  0.00    -0.128 NA
ATOM      4  N   UNL     1       2.893   3.153   0.307  0.00  0.00    -0.122 NA
ATOM      5  C   UNL     1       1.583   3.040   0.305  0.00  0.00    +0.193 A 
ATOM      6  N   UNL     1       1.286   1.786  -0.145  0.00  0.00    -0.299 N 
BRANCH   2  12
ATOM      7  C   UNL     1       1.694  -1.150  -0.816  0.00  0.00    +0.031 A 
ATOM      8  C   UNL     1       1.933  -2.418  -1.301  0.00  0.00    +0.111 A 
ATOM      9  N   UNL     1       3.102  -2.734  -1.826  0.00  0.00    -0.263 NA
ATOM     10  C   UNL     1       4.088  -1.861  -1.917  0.00  0.00    +0.111 A 
ATOM     11  C   UNL     1       3.934  -0.569  -1.462  0.00  0.00    +0.031 A 
ATOM     12  C   UNL     1       2.710  -0.189  -0.897  0.00  0.00    +0.022 A 
ENDBRANCH   2  12
BRANCH   6  13
ATOM     13  C   UNL     1      -0.046   1.200  -0.318  0.00  0.00    +0.091 C 
ATOM     14  C   UNL     1      -1.108   2.053  -1.012  0.00  0.00    +0.027 C 
ATOM     15  C   UNL     1      -0.488   0.860  -1.742  0.00  0.00    +0.027 C 
ENDBRANCH   6  13
ENDBRANCH   1   5
BRANCH   1  16
ATOM     16  C   UNL     1       1.563   5.609   1.246  0.00  0.00    +0.173 C 
BRANCH  16  17
ATOM     17  C   UNL     1       0.773   6.807   1.709  0.00  0.00    +0.228 C 
ATOM     18  O   UNL     1      -0.438   6.763   1.731  0.00  0.00    -0.275 OA
ATOM     19  N   UNL     1       1.415   7.926   2.099  0.00  0.00    -0.278 N 
ATOM     20  H   UNL     1       2.384   7.961   2.082  0.00  0.00    +0.155 HD
BRANCH  19  21
ATOM     21  C   UNL     1       0.688   9.029   2.525  0.00  0.00    +0.090 A 
ATOM     22  C   UNL     1       1.161  10.253   2.964  0.00  0.00    +0.084 A 
ATOM     23  C   UNL     1       0.175  11.259   3.357  0.00  0.00    -0.018 A 
ATOM     24  C   UNL     1      -1.109  10.871   3.255  0.00  0.00    -0.004 A 
ATOM     25  S   UNL     1      -1.030   9.205   2.643  0.00  0.00    -0.077 S 
ATOM     26  C   UNL     1      -2.062  11.956   3.678  0.00  0.00    +0.043 C 
ATOM     27  C   UNL     1      -1.214  13.247   3.658  0.00  0.00    +0.010 C 
ATOM     28  C   UNL     1       0.207  12.694   3.884  0.00  0.00    +0.037 C 
BRANCH  22  29
ATOM     29  C   UNL     1       2.565  10.526   3.028  0.00  0.00    +0.102 C 
ATOM     30  N   UNL     1       3.679  10.742   3.078  0.00  0.00    -0.191 NA
ENDBRANCH  22  29
ENDBRANCH  19  21
ENDBRANCH  16  17
ENDBRANCH   1  16
TORSDOF 7
