REMARK  Name = ZINC63634921
REMARK  9 active torsions:
REMARK  status: ('A' for Active; 'I' for Inactive)
REMARK    1  A    between atoms: C_1  and  C_2
REMARK    2  A    between atoms: C_2  and  O_3
REMARK    3  A    between atoms: O_3  and  C_4
REMARK    4  A    between atoms: C_4  and  C_6
REMARK    5  A    between atoms: C_7  and  C_30
REMARK    6  A    between atoms: C_9  and  C_29
REMARK    7  A    between atoms: C_10  and  S_12
REMARK    8  A    between atoms: S_12  and  N_15
REMARK    9  A    between atoms: C_18  and  C_21
REMARK                            x       y       z     vdW  Elec       q    Type
REMARK                         _______ _______ _______ _____ _____    ______ ____
ROOT
ATOM      1  S   UNL     1       3.483  -0.532  -3.055  0.00  0.00    +0.044 S 
ATOM      2  O   UNL     1       3.000   0.411  -2.109  0.00  0.00    -0.157 OA
ATOM      3  O   UNL     1       4.612  -1.342  -2.759  0.00  0.00    -0.157 OA
ENDROOT
BRANCH   1   8
ATOM      4  C   UNL     1       2.606  -2.526  -4.729  0.00  0.00    +0.088 C 
ATOM      5  C   UNL     1       1.910  -2.194  -5.842  0.00  0.00    +0.050 C 
ATOM      6  N   UNL     1       1.075  -1.170  -5.625  0.00  0.00    -0.258 NA
ATOM      7  C   UNL     1       1.106  -0.718  -4.413  0.00  0.00    +0.046 C 
ATOM      8  C   UNL     1       2.119  -1.561  -3.663  0.00  0.00    +0.230 C 
ATOM      9  C   UNL     1       0.291   0.420  -3.855  0.00  0.00    +0.063 C 
ATOM     10  C   UNL     1       2.058  -2.893  -7.168  0.00  0.00    +0.066 C 
BRANCH   4  11
ATOM     11  C   UNL     1       3.573  -3.553  -4.589  0.00  0.00    +0.339 C 
ATOM     12  O   UNL     1       3.862  -4.251  -5.542  0.00  0.00    -0.245 OA
BRANCH  11  13
ATOM     13  O   UNL     1       4.173  -3.756  -3.397  0.00  0.00    -0.462 OA
BRANCH  13  15
ATOM     14  C   UNL     1       5.706  -4.887  -1.909  0.00  0.00    +0.048 C 
ATOM     15  C   UNL     1       5.138  -4.809  -3.328  0.00  0.00    +0.229 C 
ENDBRANCH  13  15
ENDBRANCH  11  13
ENDBRANCH   4  11
ENDBRANCH   1   8
BRANCH   1  16
ATOM     16  N   UNL     1       3.945   0.377  -4.360  0.00  0.00    -0.180 NA
ATOM     17  C   UNL     1       4.894  -0.158  -5.346  0.00  0.00    +0.110 C 
ATOM     18  C   UNL     1       4.274  -0.039  -6.742  0.00  0.00    +0.030 C 
ATOM     19  C   UNL     1       3.860   1.413  -6.990  0.00  0.00    +0.078 C 
ATOM     20  C   UNL     1       2.810   1.830  -5.958  0.00  0.00    +0.030 C 
ATOM     21  C   UNL     1       3.409   1.731  -4.557  0.00  0.00    +0.110 C 
BRANCH  19  22
ATOM     22  C   UNL     1       3.280   1.540  -8.376  0.00  0.00    +0.219 C 
ATOM     23  O   UNL     1       2.107   1.300  -8.566  0.00  0.00    -0.275 OA
ATOM     24  N   UNL     1       4.066   1.921  -9.402  0.00  0.00    -0.297 N 
ATOM     25  C   UNL     1       5.516   2.098  -9.222  0.00  0.00    +0.136 C 
ATOM     26  C   UNL     1       6.239   1.316 -10.325  0.00  0.00    +0.179 C 
ATOM     27  O   UNL     1       5.707   1.694 -11.596  0.00  0.00    -0.377 OA
ATOM     28  C   UNL     1       4.321   1.385 -11.766  0.00  0.00    +0.179 C 
ATOM     29  C   UNL     1       3.501   2.165 -10.739  0.00  0.00    +0.136 C 
ENDBRANCH  19  22
ENDBRANCH   1  16
TORSDOF 6
