REMARK  Name = ZINC64651050
REMARK  7 active torsions:
REMARK  status: ('A' for Active; 'I' for Inactive)
REMARK    1  A    between atoms: C_1  and  C_2
REMARK    2  A    between atoms: C_5  and  C_34
REMARK    3  A    between atoms: C_6  and  C_8
REMARK    4  A    between atoms: C_15  and  C_18
REMARK    5  A    between atoms: C_18  and  N_19
REMARK    6  A    between atoms: C_20  and  C_22
REMARK    7  A    between atoms: C_24  and  C_33
REMARK                            x       y       z     vdW  Elec       q    Type
REMARK                         _______ _______ _______ _____ _____    ______ ____
ROOT
ATOM      1  C   UNL     1      -0.088  -3.157   2.120  0.00  0.00    +0.003 A 
ATOM      2  C   UNL     1      -0.780  -4.360   1.984  0.00  0.00    +0.013 A 
ATOM      3  C   UNL     1      -0.829  -5.254   3.030  0.00  0.00    +0.046 A 
ATOM      4  C   UNL     1      -0.188  -4.966   4.234  0.00  0.00    +0.124 A 
ATOM      5  C   UNL     1       0.494  -3.761   4.366  0.00  0.00    -0.002 A 
ATOM      6  C   UNL     1       0.556  -2.867   3.324  0.00  0.00    +0.017 A 
ATOM      7  C   UNL     1       1.057  -3.722   5.774  0.00  0.00    +0.085 C 
ATOM      8  C   UNL     1       0.259  -4.849   6.470  0.00  0.00    +0.195 C 
ATOM      9  O   UNL     1      -0.103  -5.706   5.373  0.00  0.00    -0.487 OA
ENDROOT
BRANCH   1  15
ATOM     10  C   UNL     1       2.463  -0.084  -0.692  0.00  0.00    +0.067 C 
ATOM     11  C   UNL     1       1.162  -0.751  -0.330  0.00  0.00    +0.057 A 
ATOM     12  C   UNL     1       0.015  -0.466  -1.051  0.00  0.00    +0.134 A 
ATOM     13  N   UNL     1      -1.130  -1.048  -0.739  0.00  0.00    -0.256 NA
ATOM     14  C   UNL     1      -1.185  -1.905   0.263  0.00  0.00    +0.064 A 
ATOM     15  C   UNL     1      -0.032  -2.196   0.993  0.00  0.00    +0.092 A 
ATOM     16  N   UNL     1       1.118  -1.611   0.671  0.00  0.00    -0.249 NA
ATOM     17  C   UNL     1      -2.491  -2.568   0.619  0.00  0.00    +0.068 C 
ENDBRANCH   1  15
BRANCH   8  18
ATOM     18  C   UNL     1       1.138  -5.593   7.477  0.00  0.00    +0.149 C 
BRANCH  18  19
ATOM     19  N   UNL     1       0.355  -6.653   8.118  0.00  0.00    -0.310 N 
ATOM     20  C   UNL     1       0.927  -7.444   9.048  0.00  0.00    +0.240 C 
ATOM     21  O   UNL     1       2.089  -7.279   9.353  0.00  0.00    -0.273 OA
ATOM     22  H   UNL     1      -0.574  -6.785   7.874  0.00  0.00    +0.149 HD
BRANCH  20  23
ATOM     23  C   UNL     1       0.122  -8.534   9.708  0.00  0.00    +0.193 C 
ATOM     24  C   UNL     1      -0.725  -7.957  10.820  0.00  0.00    -0.033 C 
ATOM     25  C   UNL     1      -0.319  -8.568  11.956  0.00  0.00    +0.001 A 
ATOM     26  C   UNL     1      -0.743  -8.447  13.356  0.00  0.00    +0.030 A 
ATOM     27  C   UNL     1      -0.135  -9.209  14.294  0.00  0.00    +0.042 A 
ATOM     28  C   UNL     1       0.888 -10.110  13.962  0.00  0.00    +0.022 A 
ATOM     29  C   UNL     1       1.332 -10.276  12.698  0.00  0.00    +0.027 A 
ATOM     30  C   UNL     1       0.763  -9.525  11.633  0.00  0.00    +0.043 A 
ATOM     31  N   UNL     1       1.016  -9.508  10.345  0.00  0.00    -0.370 N 
ATOM     32 CL   UNL     1      -0.634  -9.069  15.951  0.00  0.00    -0.084 Cl
ATOM     33  C   UNL     1      -1.802  -6.911  10.688  0.00  0.00    +0.042 C 
ATOM     34  H   UNL     1       1.682 -10.047   9.890  0.00  0.00    +0.161 HD
ENDBRANCH  20  23
ENDBRANCH  18  19
ENDBRANCH   8  18
TORSDOF 4
