REMARK  Name = ZINC63830694
REMARK  12 active torsions:
REMARK  status: ('A' for Active; 'I' for Inactive)
REMARK    1  A    between atoms: C_1  and  C_2
REMARK    2  A    between atoms: C_2  and  C_3
REMARK    3  A    between atoms: C_3  and  C_35
REMARK    4  A    between atoms: N_6  and  C_10
REMARK    5  A    between atoms: C_10  and  C_11
REMARK    6  A    between atoms: N_13  and  C_14
REMARK    7  A    between atoms: C_14  and  C_15
REMARK    8  A    between atoms: C_15  and  C_17
REMARK    9  A    between atoms: C_15  and  C_26
REMARK   10  A    between atoms: C_20  and  N_23
REMARK   11  A    between atoms: N_23  and  C_24
REMARK   12  A    between atoms: N_23  and  C_25
REMARK                            x       y       z     vdW  Elec       q    Type
REMARK                         _______ _______ _______ _____ _____    ______ ____
ROOT
ATOM      1  C   UNL     1       1.675  -7.260   5.664  0.00  0.00    +0.064 C 
ENDROOT
BRANCH   1   2
ATOM      2  C   UNL     1       0.469  -7.254   6.567  0.00  0.00    -0.033 C 
ATOM      3  C   UNL     1      -0.690  -7.925   6.380  0.00  0.00    -0.000 A 
ATOM      4  C   UNL     1      -1.157  -8.827   5.320  0.00  0.00    +0.010 A 
ATOM      5  C   UNL     1      -2.397  -9.359   5.410  0.00  0.00    +0.001 A 
ATOM      6  C   UNL     1      -3.247  -9.070   6.487  0.00  0.00    +0.002 A 
ATOM      7  C   UNL     1      -2.889  -8.251   7.498  0.00  0.00    +0.026 A 
ATOM      8  C   UNL     1      -1.606  -7.637   7.506  0.00  0.00    +0.043 A 
ATOM      9  N   UNL     1      -1.035  -6.819   8.357  0.00  0.00    -0.380 N 
ATOM     10  C   UNL     1       0.311  -6.500   7.869  0.00  0.00    +0.145 C 
ATOM     11  H   UNL     1      -1.435  -6.484   9.175  0.00  0.00    +0.160 HD
ENDBRANCH   1   2
BRANCH   1  12
ATOM     12  C   UNL     1       2.867  -7.786   6.422  0.00  0.00    -0.039 A 
ATOM     13  C   UNL     1       3.300  -7.137   7.563  0.00  0.00    +0.006 A 
ATOM     14  C   UNL     1       4.391  -7.616   8.260  0.00  0.00    +0.023 A 
ATOM     15  C   UNL     1       5.055  -8.752   7.814  0.00  0.00    +0.029 A 
ATOM     16  C   UNL     1       4.617  -9.402   6.667  0.00  0.00    +0.023 A 
ATOM     17  C   UNL     1       3.521  -8.920   5.978  0.00  0.00    +0.006 A 
BRANCH  15  18
ATOM     18  N   UNL     1       6.159  -9.239   8.516  0.00  0.00    -0.336 N 
ATOM     19  C   UNL     1       6.697  -8.485   9.651  0.00  0.00    +0.129 C 
ATOM     20  C   UNL     1       6.780 -10.505   8.117  0.00  0.00    +0.129 C 
ENDBRANCH  15  18
ENDBRANCH   1  12
BRANCH   1  21
ATOM     21  C   UNL     1       1.963  -5.835   5.187  0.00  0.00    +0.116 C 
BRANCH  21  24
ATOM     22  C   UNL     1       0.890  -4.131   3.815  0.00  0.00    +0.231 C 
ATOM     23  O   UNL     1       1.839  -3.405   4.026  0.00  0.00    -0.274 OA
ATOM     24  N   UNL     1       0.855  -5.367   4.350  0.00  0.00    -0.313 N 
ATOM     25  H   UNL     1       0.097  -5.947   4.181  0.00  0.00    +0.149 HD
BRANCH  22  26
ATOM     26  C   UNL     1      -0.249  -3.650   2.954  0.00  0.00    +0.213 C 
BRANCH  26  30
ATOM     27  C   UNL     1       0.729  -0.472   1.298  0.00  0.00    +0.110 C 
ATOM     28  C   UNL     1       0.680  -1.986   1.357  0.00  0.00    +0.247 C 
ATOM     29  O   UNL     1       1.135  -2.765   0.548  0.00  0.00    -0.273 OA
ATOM     30  N   UNL     1       0.026  -2.285   2.497  0.00  0.00    -0.215 N 
ATOM     31  C   UNL     1      -0.341  -1.182   3.160  0.00  0.00    +0.310 C 
ATOM     32  O   UNL     1      -0.944  -1.197   4.215  0.00  0.00    -0.252 OA
ATOM     33  N   UNL     1       0.031  -0.055   2.527  0.00  0.00    -0.285 N 
ATOM     34  C   UNL     1       2.176   0.024   1.306  0.00  0.00    +0.041 C 
ATOM     35  H   UNL     1      -0.128   0.855   2.823  0.00  0.00    +0.151 HD
BRANCH  27  37
ATOM     36  C   UNL     1      -0.037   1.572   0.083  0.00  0.00    +0.006 C 
ATOM     37  C   UNL     1      -0.008   0.043   0.060  0.00  0.00    +0.031 C 
ENDBRANCH  27  37
ENDBRANCH  26  30
ENDBRANCH  22  26
ENDBRANCH  21  24
ENDBRANCH   1  21
TORSDOF 8
