REMARK  Name = ZINC05439871
REMARK  5 active torsions:
REMARK  status: ('A' for Active; 'I' for Inactive)
REMARK    1  A    between atoms: C_3  and  C_9
REMARK    2  A    between atoms: C_5  and  C_7
REMARK    3  A    between atoms: C_9  and  N_56
REMARK    4  A    between atoms: C_18  and  C_25
REMARK    5  A    between atoms: C_26  and  C_27
REMARK                            x       y       z     vdW  Elec       q    Type
REMARK                         _______ _______ _______ _____ _____    ______ ____
ROOT
ATOM      1  C   UNL     1       1.483  -4.106  -1.465  0.00  0.00    -0.073 C 
ATOM      2  C   UNL     1       1.423  -4.619  -2.897  0.00  0.00    -0.007 C 
ATOM      3  C   UNL     1       2.383  -3.834  -3.795  0.00  0.00    +0.011 C 
ATOM      4  C   UNL     1       2.002  -2.353  -3.694  0.00  0.00    +0.020 C 
ATOM      5  C   UNL     1       2.190  -1.917  -2.231  0.00  0.00    -0.069 C 
ATOM      6  C   UNL     1       0.537  -2.191  -4.029  0.00  0.00    +0.030 A 
ATOM      7  C   UNL     1       0.129  -0.953  -4.502  0.00  0.00    -0.005 A 
ATOM      8  C   UNL     1      -1.229  -0.726  -4.814  0.00  0.00    +0.015 A 
ATOM      9  C   UNL     1      -2.119  -1.738  -4.623  0.00  0.00    +0.071 A 
ATOM     10  C   UNL     1      -1.665  -2.971  -4.136  0.00  0.00    +0.252 A 
ATOM     11  O   UNL     1      -2.468  -3.869  -3.940  0.00  0.00    -0.268 OA
ATOM     12  N   UNL     1      -0.351  -3.189  -3.879  0.00  0.00    -0.311 N 
ATOM     13  C   UNL     1       0.018  -4.544  -3.467  0.00  0.00    +0.126 C 
ATOM     14  N   UNL     1       1.197  -2.657  -1.419  0.00  0.00    +0.383 N 
ATOM     15  H   UNL     1       0.260  -2.490  -1.805  0.00  0.00    -0.081 HD
ENDROOT
BRANCH   7  16
ATOM     16  C   UNL     1       1.115   0.127  -4.679  0.00  0.00    +0.010 C 
ATOM     17  C   UNL     1       0.722   1.327  -5.137  0.00  0.00    +0.008 C 
BRANCH  17  18
ATOM     18  C   UNL     1       1.708   2.407  -5.314  0.00  0.00    -0.025 A 
ATOM     19  C   UNL     1       3.052   2.189  -5.002  0.00  0.00    +0.009 A 
ATOM     20  C   UNL     1       3.971   3.203  -5.176  0.00  0.00    +0.020 A 
ATOM     21  C   UNL     1       3.562   4.439  -5.648  0.00  0.00    +0.041 A 
ATOM     22  C   UNL     1       2.230   4.664  -5.955  0.00  0.00    +0.020 A 
ATOM     23  C   UNL     1       1.302   3.657  -5.791  0.00  0.00    +0.009 A 
ATOM     24 CL   UNL     1       4.723   5.712  -5.858  0.00  0.00    -0.084 Cl
ENDBRANCH  17  18
ENDBRANCH   7  16
BRANCH  14  25
ATOM     25  C   UNL     1       1.230  -2.181  -0.021  0.00  0.00    -0.043 C 
BRANCH  25  28
ATOM     26  C   UNL     1       2.385   1.417  -0.013  0.00  0.00    +0.001 A 
ATOM     27  C   UNL     1       2.396   0.034  -0.021  0.00  0.00    +0.002 A 
ATOM     28  C   UNL     1       1.208  -0.674  -0.013  0.00  0.00    -0.063 A 
ATOM     29  C   UNL     1       0.002  -0.004   0.002  0.00  0.00    +0.020 A 
ATOM     30  C   UNL     1      -0.017   1.392   0.010  0.00  0.00    +0.052 A 
ATOM     31  C   UNL     1       1.187   2.100   0.002  0.00  0.00    +0.019 A 
BRANCH  30  32
ATOM     32  C   UNL     1      -1.265   2.094   0.019  0.00  0.00    +0.099 C 
ATOM     33  N   UNL     1      -2.255   2.651   0.027  0.00  0.00    -0.191 NA
ENDBRANCH  30  32
ENDBRANCH  25  28
ENDBRANCH  14  25
TORSDOF 5
