REMARK  Name = ZINC39928554
REMARK  11 active torsions:
REMARK  status: ('A' for Active; 'I' for Inactive)
REMARK    1  A    between atoms: C_1  and  C_2
REMARK    2  A    between atoms: C_2  and  C_3
REMARK    3  A    between atoms: C_2  and  C_4
REMARK    4  A    between atoms: C_2  and  N_5
REMARK    5  A    between atoms: N_5  and  C_6
REMARK    6  A    between atoms: C_6  and  C_7
REMARK    7  A    between atoms: C_12  and  O_19
REMARK    8  A    between atoms: O_19  and  C_20
REMARK    9  A    between atoms: C_21  and  C_23
REMARK   10  A    between atoms: C_26  and  O_29
REMARK   11  A    between atoms: O_29  and  C_30
REMARK                            x       y       z     vdW  Elec       q    Type
REMARK                         _______ _______ _______ _____ _____    ______ ____
ROOT
ATOM      1  N   UNL     1      -2.541  -0.230  -2.027  0.00  0.00    -0.291 N 
ATOM      2  C   UNL     1      -3.772   0.278  -2.238  0.00  0.00    +0.247 C 
ATOM      3  O   UNL     1      -4.323   0.109  -3.309  0.00  0.00    -0.270 OA
ENDROOT
BRANCH   2   4
ATOM      4  C   UNL     1      -4.450   1.038  -1.171  0.00  0.00    +0.037 A 
ATOM      5  C   UNL     1      -3.802   1.266   0.047  0.00  0.00    +0.016 A 
ATOM      6  C   UNL     1      -4.438   1.977   1.040  0.00  0.00    +0.046 A 
ATOM      7  C   UNL     1      -5.722   2.467   0.834  0.00  0.00    +0.120 A 
ATOM      8  C   UNL     1      -6.370   2.243  -0.376  0.00  0.00    +0.046 A 
ATOM      9  C   UNL     1      -5.738   1.538  -1.377  0.00  0.00    +0.016 A 
BRANCH   7  10
ATOM     10  O   UNL     1      -6.346   3.166   1.815  0.00  0.00    -0.495 OA
ATOM     11  C   UNL     1      -7.664   3.641   1.536  0.00  0.00    +0.277 C 
ENDBRANCH   7  10
ENDBRANCH   2   4
BRANCH   1  13
ATOM     12  C   UNL     1      -1.815  -2.408  -1.184  0.00  0.00    +0.031 C 
ATOM     13  C   UNL     1      -2.264  -0.994  -0.808  0.00  0.00    +0.029 C 
ATOM     14  C   UNL     1      -3.531  -1.071   0.045  0.00  0.00    +0.031 C 
ATOM     15  C   UNL     1      -1.155  -0.301  -0.013  0.00  0.00    +0.031 C 
ENDBRANCH   1  13
BRANCH   1  16
ATOM     16  C   UNL     1      -1.481  -0.018  -3.016  0.00  0.00    +0.125 C 
BRANCH  16  17
ATOM     17  C   UNL     1      -1.753  -0.882  -4.248  0.00  0.00    +0.116 C 
ATOM     18  C   UNL     1      -1.944   0.044  -5.433  0.00  0.00    -0.003 C 
ATOM     19  C   UNL     1      -1.109  -0.121  -6.498  0.00  0.00    -0.004 A 
ATOM     20  C   UNL     1      -1.225   0.730  -7.682  0.00  0.00    +0.055 A 
ATOM     21  C   UNL     1      -0.369   0.528  -8.722  0.00  0.00    +0.121 A 
ATOM     22  C   UNL     1       0.609  -0.472  -8.674  0.00  0.00    +0.047 A 
ATOM     23  C   UNL     1       0.765  -1.292  -7.603  0.00  0.00    +0.027 A 
ATOM     24  C   UNL     1      -0.069  -1.165  -6.477  0.00  0.00    +0.041 A 
ATOM     25  N   UNL     1       0.096  -1.977  -5.432  0.00  0.00    -0.284 N 
ATOM     26  C   UNL     1      -0.652  -1.914  -4.344  0.00  0.00    +0.226 C 
ATOM     27  O   UNL     1      -0.453  -2.682  -3.422  0.00  0.00    -0.275 OA
ATOM     28  H   UNL     1       0.797  -2.646  -5.473  0.00  0.00    +0.155 HD
BRANCH  21  29
ATOM     29  O   UNL     1      -0.467   1.312  -9.828  0.00  0.00    -0.495 OA
ATOM     30  C   UNL     1       0.456   1.057 -10.888  0.00  0.00    +0.277 C 
ENDBRANCH  21  29
ENDBRANCH  16  17
ENDBRANCH   1  16
TORSDOF 6
