REMARK  Name = ZINC04874188
REMARK  8 active torsions:
REMARK  status: ('A' for Active; 'I' for Inactive)
REMARK    1  A    between atoms: C_1  and  C_2
REMARK    2  A    between atoms: C_8  and  N_10
REMARK    3  A    between atoms: C_11  and  C_13
REMARK    4  A    between atoms: C_13  and  C_15
REMARK    5  A    between atoms: C_13  and  N_22
REMARK    6  A    between atoms: C_15  and  C_16
REMARK    7  A    between atoms: N_22  and  S_23
REMARK    8  A    between atoms: S_23  and  C_26
REMARK                            x       y       z     vdW  Elec       q    Type
REMARK                         _______ _______ _______ _____ _____    ______ ____
ROOT
ATOM      1  C   UNL     1       0.168   0.483   4.731  0.00  0.00    +0.166 C 
ENDROOT
BRANCH   1   3
ATOM      2  N   UNL     1       0.622  -0.136   2.379  0.00  0.00    -0.311 N 
ATOM      3  C   UNL     1       1.063  -0.069   3.651  0.00  0.00    +0.232 C 
ATOM      4  O   UNL     1       2.180  -0.452   3.926  0.00  0.00    -0.274 OA
ATOM      5  H   UNL     1      -0.272   0.171   2.159  0.00  0.00    +0.149 HD
BRANCH   2  12
ATOM      6  C   UNL     1       1.190   1.426   0.007  0.00  0.00    +0.009 C 
ATOM      7  C   UNL     1       1.070  -0.099  -0.025  0.00  0.00    +0.006 C 
ATOM      8  C   UNL     1       1.978  -0.659  -1.121  0.00  0.00    +0.005 C 
ATOM      9  C   UNL     1       1.858  -2.184  -1.153  0.00  0.00    +0.000 C 
ATOM     10  C   UNL     1       2.279  -2.758   0.201  0.00  0.00    +0.002 C 
ATOM     11  C   UNL     1       1.371  -2.197   1.297  0.00  0.00    +0.022 C 
ATOM     12  C   UNL     1       1.491  -0.672   1.329  0.00  0.00    +0.076 C 
ENDBRANCH   2  12
ENDBRANCH   1   3
BRANCH   1  13
ATOM     13  N   UNL     1       0.874   0.450   6.014  0.00  0.00    -0.177 NA
ATOM     14  H   UNL     1       0.875  -0.361   6.546  0.00  0.00    +0.149 HD
BRANCH  13  15
ATOM     15  S   UNL     1       1.670   1.797   6.556  0.00  0.00    +0.065 S 
ATOM     16  O   UNL     1       2.224   1.460   7.821  0.00  0.00    -0.153 OA
ATOM     17  O   UNL     1       2.466   2.261   5.475  0.00  0.00    -0.153 OA
BRANCH  15  18
ATOM     18  C   UNL     1       0.454   3.036   6.855  0.00  0.00    +0.142 A 
ATOM     19  C   UNL     1      -0.171   3.358   8.014  0.00  0.00    +0.036 A 
ATOM     20  C   UNL     1      -1.102   4.380   8.012  0.00  0.00    +0.010 A 
ATOM     21  C   UNL     1      -1.363   5.029   6.852  0.00  0.00    +0.047 A 
ATOM     22  S   UNL     1      -0.271   4.199   5.710  0.00  0.00    -0.077 S 
ENDBRANCH  15  18
ENDBRANCH  13  15
ENDBRANCH   1  13
BRANCH   1  23
ATOM     23  C   UNL     1      -1.101  -0.365   4.824  0.00  0.00    +0.065 C 
BRANCH  23  24
ATOM     24  C   UNL     1      -2.056   0.266   5.804  0.00  0.00    -0.045 A 
ATOM     25  C   UNL     1      -1.954  -0.023   7.152  0.00  0.00    +0.004 A 
ATOM     26  C   UNL     1      -2.830   0.556   8.052  0.00  0.00    +0.000 A 
ATOM     27  C   UNL     1      -3.808   1.424   7.603  0.00  0.00    +0.000 A 
ATOM     28  C   UNL     1      -3.910   1.713   6.255  0.00  0.00    +0.000 A 
ATOM     29  C   UNL     1      -3.031   1.138   5.356  0.00  0.00    +0.004 A 
ENDBRANCH  23  24
ENDBRANCH   1  23
TORSDOF 7
