REMARK  Name = ZINC59894332
REMARK  8 active torsions:
REMARK  status: ('A' for Active; 'I' for Inactive)
REMARK    1  A    between atoms: C_1  and  N_2
REMARK    2  A    between atoms: N_2  and  C_3
REMARK    3  A    between atoms: C_8  and  C_9
REMARK    4  A    between atoms: N_11  and  C_12
REMARK    5  A    between atoms: C_12  and  C_13
REMARK    6  A    between atoms: C_13  and  C_15
REMARK    7  A    between atoms: C_13  and  N_22
REMARK    8  A    between atoms: C_27  and  C_29
REMARK                            x       y       z     vdW  Elec       q    Type
REMARK                         _______ _______ _______ _____ _____    ______ ____
ROOT
ATOM      1  C   UNL     1       2.274  -0.525   0.826  0.00  0.00    +0.246 C 
ATOM      2  O   UNL     1       2.085  -0.007  -0.258  0.00  0.00    -0.270 OA
ATOM      3  N   UNL     1       3.507  -0.949   1.164  0.00  0.00    -0.313 N 
ATOM      4  H   UNL     1       3.658  -1.363   2.029  0.00  0.00    +0.149 HD
ENDROOT
BRANCH   1  10
ATOM      5  C   UNL     1      -0.133  -0.250   1.422  0.00  0.00    +0.048 A 
ATOM      6  C   UNL     1      -1.182  -0.415   2.318  0.00  0.00    +0.024 A 
ATOM      7  C   UNL     1      -0.957  -1.005   3.545  0.00  0.00    +0.002 A 
ATOM      8  C   UNL     1       0.313  -1.435   3.894  0.00  0.00    +0.001 A 
ATOM      9  C   UNL     1       1.366  -1.279   3.019  0.00  0.00    +0.015 A 
ATOM     10  C   UNL     1       1.153  -0.690   1.770  0.00  0.00    +0.058 A 
BRANCH   5  12
ATOM     11  C   UNL     1      -0.222   1.795   0.032  0.00  0.00    +0.138 C 
ATOM     12  N   UNL     1      -0.358   0.344   0.184  0.00  0.00    -0.269 N 
ATOM     13  C   UNL     1      -0.701  -0.416  -0.875  0.00  0.00    +0.257 C 
ATOM     14  O   UNL     1      -0.806   0.089  -1.978  0.00  0.00    -0.269 OA
BRANCH  13  15
ATOM     15  C   UNL     1      -0.947  -1.849  -0.700  0.00  0.00    +0.074 A 
ATOM     16  C   UNL     1      -1.209  -2.815  -1.660  0.00  0.00    +0.021 A 
ATOM     17  C   UNL     1      -1.400  -4.091  -1.186  0.00  0.00    +0.008 A 
ATOM     18  C   UNL     1      -1.321  -4.317   0.148  0.00  0.00    +0.046 A 
ATOM     19  S   UNL     1      -0.979  -2.808   0.803  0.00  0.00    -0.092 S 
ENDBRANCH  13  15
ENDBRANCH   5  12
ENDBRANCH   1  10
BRANCH   3  20
ATOM     20  C   UNL     1       4.621  -0.785   0.227  0.00  0.00    +0.094 C 
BRANCH  20  21
ATOM     21  C   UNL     1       5.873  -1.454   0.799  0.00  0.00    -0.020 C 
BRANCH  21  22
ATOM     22  C   UNL     1       6.301  -0.729   2.049  0.00  0.00    -0.058 A 
ATOM     23  C   UNL     1       7.012   0.453   1.953  0.00  0.00    +0.002 A 
ATOM     24  C   UNL     1       7.405   1.119   3.099  0.00  0.00    +0.002 A 
ATOM     25  C   UNL     1       7.089   0.602   4.342  0.00  0.00    +0.020 A 
ATOM     26  C   UNL     1       6.379  -0.581   4.438  0.00  0.00    +0.041 A 
ATOM     27  C   UNL     1       5.979  -1.243   3.291  0.00  0.00    +0.022 A 
ATOM     28 CL   UNL     1       5.981  -1.230   5.999  0.00  0.00    -0.084 Cl
ENDBRANCH  21  22
BRANCH  21  29
ATOM     29  N   UNL     1       6.954  -1.400  -0.193  0.00  0.00    +0.385 N 
ATOM     30  C   UNL     1       8.120  -2.192   0.276  0.00  0.00    -0.078 C 
ATOM     31  C   UNL     1       8.886  -2.506  -1.034  0.00  0.00    -0.020 C 
ATOM     32  C   UNL     1       7.747  -2.748  -2.050  0.00  0.00    -0.020 C 
ATOM     33  C   UNL     1       6.519  -2.034  -1.457  0.00  0.00    -0.078 C 
ATOM     34  H   UNL     1       7.227  -0.443  -0.360  0.00  0.00    -0.081 HD
ENDBRANCH  21  29
ENDBRANCH  20  21
ENDBRANCH   3  20
TORSDOF 7
