REMARK  Name = ZINC24838749
REMARK  6 active torsions:
REMARK  status: ('A' for Active; 'I' for Inactive)
REMARK    1  A    between atoms: C_3  and  N_7
REMARK    2  A    between atoms: C_8  and  C_28
REMARK    3  A    between atoms: C_11  and  S_12
REMARK    4  A    between atoms: S_12  and  C_13
REMARK    5  A    between atoms: C_13  and  C_14
REMARK    6  A    between atoms: C_28  and  N_29
REMARK                            x       y       z     vdW  Elec       q    Type
REMARK                         _______ _______ _______ _____ _____    ______ ____
ROOT
ATOM      1  N   UNL     1      -7.836   4.704  -5.105  0.00  0.00    -0.271 N 
ATOM      2  C   UNL     1      -7.797   4.992  -6.444  0.00  0.00    +0.156 A 
ATOM      3  N   UNL     1      -6.743   4.405  -6.935  0.00  0.00    -0.132 NA
ATOM      4  N   UNL     1      -6.114   3.775  -6.008  0.00  0.00    -0.122 NA
ATOM      5  C   UNL     1      -6.737   3.927  -4.863  0.00  0.00    +0.197 A 
ENDROOT
BRANCH   1   8
ATOM      6  C   UNL     1      -9.440   6.362  -2.241  0.00  0.00    +0.022 A 
ATOM      7  C   UNL     1      -8.453   5.977  -3.134  0.00  0.00    +0.029 A 
ATOM      8  C   UNL     1      -8.800   5.122  -4.176  0.00  0.00    +0.068 A 
ATOM      9  C   UNL     1     -10.117   4.695  -4.286  0.00  0.00    +0.137 A 
ATOM     10  N   UNL     1     -11.024   5.080  -3.412  0.00  0.00    -0.261 NA
ATOM     11  C   UNL     1     -10.727   5.889  -2.413  0.00  0.00    +0.111 A 
ENDBRANCH   1   8
BRANCH   5  12
ATOM     12  S   UNL     1      -6.253   3.251  -3.309  0.00  0.00    -0.076 S 
BRANCH  12  13
ATOM     13  C   UNL     1      -4.752   2.369  -3.804  0.00  0.00    +0.173 C 
BRANCH  13  14
ATOM     14  C   UNL     1      -4.147   1.693  -2.600  0.00  0.00    +0.226 C 
ATOM     15  O   UNL     1      -4.679   1.797  -1.515  0.00  0.00    -0.275 OA
ATOM     16  N   UNL     1      -3.016   0.972  -2.730  0.00  0.00    -0.297 N 
ATOM     17  C   UNL     1      -2.415   0.740  -4.053  0.00  0.00    +0.108 C 
ATOM     18  C   UNL     1      -0.947   1.173  -4.020  0.00  0.00    +0.019 C 
ATOM     19  C   UNL     1      -0.227   0.473  -2.864  0.00  0.00    +0.007 C 
ATOM     20  C   UNL     1      -0.891   0.869  -1.546  0.00  0.00    +0.010 C 
ATOM     21  C   UNL     1      -2.349   0.399  -1.556  0.00  0.00    +0.079 C 
ATOM     22  C   UNL     1      -3.033   0.862  -0.270  0.00  0.00    +0.023 C 
ATOM     23  C   UNL     1      -2.314   0.239   0.930  0.00  0.00    +0.002 C 
ATOM     24  C   UNL     1      -0.844   0.669   0.938  0.00  0.00    +0.000 C 
ATOM     25  C   UNL     1      -0.168   0.227  -0.362  0.00  0.00    +0.005 C 
ENDBRANCH  13  14
ENDBRANCH  12  13
ENDBRANCH   5  12
BRANCH   2  26
ATOM     26  C   UNL     1      -8.793   5.826  -7.207  0.00  0.00    +0.184 C 
BRANCH  26  27
ATOM     27  N   UNL     1      -8.300   7.202  -7.310  0.00  0.00    -0.294 N 
ATOM     28  C   UNL     1      -8.562   8.156  -6.220  0.00  0.00    +0.108 C 
ATOM     29  C   UNL     1      -7.245   8.413  -5.474  0.00  0.00    +0.019 C 
ATOM     30  C   UNL     1      -6.458   9.528  -6.139  0.00  0.00    +0.002 C 
ATOM     31  C   UNL     1      -5.942   9.174  -7.521  0.00  0.00    +0.009 C 
ATOM     32  C   UNL     1      -7.101   9.002  -8.506  0.00  0.00    +0.096 C 
ATOM     33  C   UNL     1      -7.621   7.584  -8.393  0.00  0.00    +0.216 C 
ATOM     34  O   UNL     1      -7.419   6.793  -9.289  0.00  0.00    -0.276 OA
ENDBRANCH  26  27
ENDBRANCH   2  26
TORSDOF 6
