REMARK  Name = ZINC39853474
REMARK  5 active torsions:
REMARK  status: ('A' for Active; 'I' for Inactive)
REMARK    1  A    between atoms: C_1  and  C_2
REMARK    2  A    between atoms: N_4  and  C_5
REMARK    3  A    between atoms: C_6  and  C_14
REMARK    4  A    between atoms: C_14  and  C_16
REMARK    5  A    between atoms: C_14  and  N_23
REMARK                            x       y       z     vdW  Elec       q    Type
REMARK                         _______ _______ _______ _____ _____    ______ ____
ROOT
ATOM      1  C   UNL     1      -3.631  -2.396   0.178  0.00  0.00    +0.120 C 
ENDROOT
BRANCH   1   2
ATOM      2  N   UNL     1      -3.413  -1.118   0.870  0.00  0.00    -0.289 NA
ATOM      3  C   UNL     1      -4.581  -0.238   0.729  0.00  0.00    +0.104 C 
ATOM      4  C   UNL     1      -4.248   1.143   1.304  0.00  0.00    +0.122 C 
ATOM      5  N   UNL     1      -3.762   0.970   2.682  0.00  0.00    -0.314 N 
ATOM      6  C   UNL     1      -2.683   0.000   2.923  0.00  0.00    +0.122 C 
ATOM      7  C   UNL     1      -3.078  -1.336   2.284  0.00  0.00    +0.104 C 
ATOM      8  C   UNL     1      -4.309   1.704   3.728  0.00  0.00    +0.099 A 
ATOM      9  C   UNL     1      -3.728   1.642   4.991  0.00  0.00    +0.042 A 
ATOM     10  C   UNL     1      -4.282   2.377   6.023  0.00  0.00    +0.005 A 
ATOM     11  C   UNL     1      -5.402   3.153   5.757  0.00  0.00    +0.018 A 
ATOM     12  C   UNL     1      -5.927   3.168   4.480  0.00  0.00    +0.084 A 
ATOM     13  N   UNL     1      -5.374   2.461   3.513  0.00  0.00    -0.350 N 
ATOM     14  H   UNL     1      -5.760   2.492   2.624  0.00  0.00    +0.166 HD
ENDBRANCH   1   2
BRANCH   1  16
ATOM     15  C   UNL     1      -1.171  -2.741   0.240  0.00  0.00    +0.077 A 
ATOM     16  C   UNL     1      -2.418  -3.273   0.351  0.00  0.00    +0.006 A 
ATOM     17  C   UNL     1      -2.571  -4.633   0.625  0.00  0.00    -0.030 A 
ATOM     18  C   UNL     1      -1.430  -5.358   0.767  0.00  0.00    -0.005 A 
ATOM     19  S   UNL     1      -0.137  -4.171   0.517  0.00  0.00    -0.078 S 
ATOM     20  C   UNL     1      -1.309  -6.818   1.063  0.00  0.00    +0.043 C 
ATOM     21  C   UNL     1      -2.675  -7.327   1.548  0.00  0.00    +0.005 C 
ATOM     22  C   UNL     1      -3.757  -6.815   0.593  0.00  0.00    +0.005 C 
ATOM     23  C   UNL     1      -3.934  -5.306   0.763  0.00  0.00    +0.036 C 
BRANCH  15  27
ATOM     24  C   UNL     1       0.903   0.305  -0.524  0.00  0.00    +0.109 C 
ATOM     25  C   UNL     1       0.499  -1.118  -0.236  0.00  0.00    +0.214 C 
ATOM     26  O   UNL     1       1.341  -1.990  -0.191  0.00  0.00    -0.276 OA
ATOM     27  N   UNL     1      -0.797  -1.422  -0.027  0.00  0.00    -0.280 N 
ATOM     28  H   UNL     1      -1.471  -0.725  -0.063  0.00  0.00    +0.155 HD
ENDBRANCH  15  27
ENDBRANCH   1  16
BRANCH   1  29
ATOM     29  C   UNL     1      -3.861  -2.139  -1.289  0.00  0.00    -0.026 A 
ATOM     30  C   UNL     1      -3.202  -1.102  -1.921  0.00  0.00    +0.008 A 
ATOM     31  C   UNL     1      -3.412  -0.866  -3.266  0.00  0.00    +0.038 A 
ATOM     32  C   UNL     1      -4.284  -1.670  -3.981  0.00  0.00    +0.123 A 
ATOM     33  C   UNL     1      -4.944  -2.709  -3.347  0.00  0.00    +0.038 A 
ATOM     34  C   UNL     1      -4.728  -2.946  -2.003  0.00  0.00    +0.008 A 
ATOM     35  F   UNL     1      -4.490  -1.440  -5.296  0.00  0.00    -0.205 F 
ENDBRANCH   1  29
TORSDOF 4
