REMARK  Name = ZINC60066135
REMARK  5 active torsions:
REMARK  status: ('A' for Active; 'I' for Inactive)
REMARK    1  A    between atoms: C_1  and  C_2
REMARK    2  A    between atoms: C_2  and  O_3
REMARK    3  A    between atoms: O_3  and  C_4
REMARK    4  A    between atoms: N_9  and  S_11
REMARK    5  A    between atoms: S_11  and  C_14
REMARK                            x       y       z     vdW  Elec       q    Type
REMARK                         _______ _______ _______ _____ _____    ______ ____
ROOT
ATOM      1  C   UNL     1      -4.827  -4.857  -2.209  0.00  0.00    +0.127 A 
ATOM      2  C   UNL     1      -5.385  -4.307  -3.350  0.00  0.00    +0.077 A 
ATOM      3  C   UNL     1      -6.748  -4.398  -3.564  0.00  0.00    +0.144 A 
ATOM      4  C   UNL     1      -7.557  -5.043  -2.629  0.00  0.00    +0.077 A 
ATOM      5  C   UNL     1      -6.995  -5.592  -1.489  0.00  0.00    +0.049 A 
ATOM      6  C   UNL     1      -5.628  -5.503  -1.284  0.00  0.00    +0.069 A 
ATOM      7 CL   UNL     1      -4.919  -6.197   0.140  0.00  0.00    -0.081 Cl
ATOM      8  N   UNL     1      -8.938  -5.126  -2.858  0.00  0.00    -0.280 N 
ATOM      9  C   UNL     1      -9.412  -4.872  -4.097  0.00  0.00    +0.255 C 
ATOM     10  O   UNL     1     -10.605  -4.908  -4.311  0.00  0.00    -0.272 OA
ATOM     11  C   UNL     1      -8.453  -4.543  -5.212  0.00  0.00    +0.325 C 
ATOM     12  O   UNL     1      -7.312  -3.863  -4.680  0.00  0.00    -0.481 OA
ATOM     13  H   UNL     1      -9.543  -5.363  -2.138  0.00  0.00    +0.155 HD
ENDROOT
BRANCH   1  14
ATOM     14  S   UNL     1      -3.091  -4.742  -1.937  0.00  0.00    +0.062 S 
ATOM     15  O   UNL     1      -2.556  -4.010  -3.032  0.00  0.00    -0.153 OA
ATOM     16  O   UNL     1      -2.644  -6.049  -1.604  0.00  0.00    -0.153 OA
BRANCH  14  21
ATOM     17  C   UNL     1      -1.432  -1.925   0.005  0.00  0.00    +0.134 C 
ATOM     18  C   UNL     1      -1.453  -2.442   1.446  0.00  0.00    +0.034 C 
ATOM     19  C   UNL     1      -1.520  -3.971   1.439  0.00  0.00    +0.020 C 
ATOM     20  C   UNL     1      -2.811  -4.419   0.746  0.00  0.00    +0.109 C 
ATOM     21  N   UNL     1      -2.867  -3.807  -0.589  0.00  0.00    -0.174 NA
ATOM     22  C   UNL     1      -2.721  -2.349  -0.705  0.00  0.00    +0.141 C 
BRANCH  17  23
ATOM     23  O   UNL     1      -1.339  -0.499   0.012  0.00  0.00    -0.376 OA
BRANCH  23  25
ATOM     24  C   UNL     1      -0.019   1.526   0.010  0.00  0.00    +0.034 C 
ATOM     25  C   UNL     1       0.002  -0.004   0.002  0.00  0.00    +0.157 C 
ENDBRANCH  23  25
ENDBRANCH  17  23
ENDBRANCH  14  21
ENDBRANCH   1  14
TORSDOF 4
