REMARK  Name = ZINC49794802
REMARK  9 active torsions:
REMARK  status: ('A' for Active; 'I' for Inactive)
REMARK    1  A    between atoms: C_1  and  N_2
REMARK    2  A    between atoms: N_2  and  C_3
REMARK    3  A    between atoms: N_2  and  C_4
REMARK    4  A    between atoms: C_4  and  C_6
REMARK    5  A    between atoms: C_4  and  C_13
REMARK    6  A    between atoms: C_6  and  C_7
REMARK    7  A    between atoms: C_13  and  N_14
REMARK    8  A    between atoms: N_17  and  C_18
REMARK    9  A    between atoms: N_17  and  C_19
REMARK                            x       y       z     vdW  Elec       q    Type
REMARK                         _______ _______ _______ _____ _____    ______ ____
ROOT
ATOM      1  N   UNL     1      -0.662  -2.563   0.881  0.00  0.00    -0.301 N 
ATOM      2  C   UNL     1      -0.542  -3.899   0.745  0.00  0.00    +0.302 C 
ATOM      3  O   UNL     1      -1.018  -4.457  -0.224  0.00  0.00    -0.253 OA
ATOM      4  N   UNL     1       0.107  -4.616   1.684  0.00  0.00    -0.282 N 
ATOM      5  C   UNL     1       0.682  -3.944   2.852  0.00  0.00    +0.134 C 
ATOM      6  H   UNL     1      -0.282  -2.118   1.655  0.00  0.00    +0.150 HD
ENDROOT
BRANCH   4   7
ATOM      7  C   UNL     1       0.239  -6.067   1.536  0.00  0.00    +0.108 C 
ATOM      8  C   UNL     1      -0.395  -6.788   2.745  0.00  0.00    +0.032 C 
ATOM      9  C   UNL     1       0.808  -6.957   3.697  0.00  0.00    +0.037 C 
ATOM     10  C   UNL     1       2.026  -6.979   2.799  0.00  0.00    -0.042 A 
ATOM     11  C   UNL     1       1.699  -6.467   1.554  0.00  0.00    -0.024 A 
ATOM     12  C   UNL     1       2.662  -6.390   0.562  0.00  0.00    +0.006 A 
ATOM     13  C   UNL     1       3.951  -6.822   0.810  0.00  0.00    +0.000 A 
ATOM     14  C   UNL     1       4.280  -7.333   2.052  0.00  0.00    +0.000 A 
ATOM     15  C   UNL     1       3.317  -7.411   3.047  0.00  0.00    +0.004 A 
ENDBRANCH   4   7
BRANCH   1  16
ATOM     16  C   UNL     1      -1.368  -1.784  -0.139  0.00  0.00    +0.091 C 
BRANCH  16  17
ATOM     17  C   UNL     1      -1.197  -0.291   0.151  0.00  0.00    -0.048 C 
BRANCH  17  19
ATOM     18  C   UNL     1       1.038  -0.564   0.979  0.00  0.00    -0.096 C 
ATOM     19  N   UNL     1       0.209   0.087  -0.044  0.00  0.00    +0.379 N 
ATOM     20  C   UNL     1       0.651  -0.341  -1.378  0.00  0.00    -0.096 C 
ATOM     21  H   UNL     1       0.302   1.089   0.035  0.00  0.00    -0.082 HD
ENDBRANCH  17  19
BRANCH  17  22
ATOM     22  C   UNL     1      -2.080   0.517  -0.801  0.00  0.00    +0.021 C 
BRANCH  22  23
ATOM     23  C   UNL     1      -2.006   1.978  -0.437  0.00  0.00    -0.049 A 
ATOM     24  C   UNL     1      -2.826   2.486   0.553  0.00  0.00    +0.003 A 
ATOM     25  C   UNL     1      -2.758   3.825   0.887  0.00  0.00    +0.000 A 
ATOM     26  C   UNL     1      -1.869   4.657   0.232  0.00  0.00    +0.000 A 
ATOM     27  C   UNL     1      -1.048   4.149  -0.757  0.00  0.00    +0.000 A 
ATOM     28  C   UNL     1      -1.113   2.808  -1.089  0.00  0.00    +0.003 A 
ENDBRANCH  22  23
ENDBRANCH  17  22
ENDBRANCH  16  17
ENDBRANCH   1  16
TORSDOF 6
