REMARK  Name = ZINC43737021
REMARK  9 active torsions:
REMARK  status: ('A' for Active; 'I' for Inactive)
REMARK    1  A    between atoms: C_1  and  C_2
REMARK    2  A    between atoms: C_2  and  C_4
REMARK    3  A    between atoms: C_10  and  C_38
REMARK    4  A    between atoms: C_20  and  C_37
REMARK    5  A    between atoms: C_23  and  O_26
REMARK    6  A    between atoms: O_26  and  C_27
REMARK    7  A    between atoms: C_27  and  C_29
REMARK    8  A    between atoms: C_29  and  C_30
REMARK    9  A    between atoms: C_30  and  N_31
REMARK                            x       y       z     vdW  Elec       q    Type
REMARK                         _______ _______ _______ _____ _____    ______ ____
ROOT
ATOM      1  C   UNL     1      -0.000  -0.750  -1.307  0.00  0.00    +0.061 C 
ATOM      2  C   UNL     1       1.442  -0.932  -1.815  0.00  0.00    +0.012 C 
ATOM      3  C   UNL     1       1.677  -2.455  -1.943  0.00  0.00    +0.005 C 
ATOM      4  C   UNL     1       0.254  -3.026  -2.086  0.00  0.00    -0.001 C 
ATOM      5  C   UNL     1      -0.576  -2.178  -1.106  0.00  0.00    -0.019 C 
ATOM      6  C   UNL     1      -0.267  -2.575   0.340  0.00  0.00    +0.008 C 
ATOM      7  C   UNL     1      -0.481  -4.072   0.540  0.00  0.00    +0.005 C 
ATOM      8  C   UNL     1       0.502  -4.837  -0.355  0.00  0.00    +0.003 C 
ATOM      9  C   UNL     1       0.192  -4.507  -1.794  0.00  0.00    +0.000 C 
ATOM     10  C   UNL     1       1.210  -5.247  -2.670  0.00  0.00    +0.031 C 
ATOM     11  C   UNL     1       1.174  -6.711  -2.343  0.00  0.00    -0.027 C 
ATOM     12  C   UNL     1       0.802  -7.170  -1.185  0.00  0.00    -0.064 C 
ATOM     13  C   UNL     1       0.358  -6.327  -0.094  0.00  0.00    -0.008 C 
ATOM     14  C   UNL     1       1.143  -6.720   1.161  0.00  0.00    +0.015 C 
ATOM     15  C   UNL     1       0.993  -8.224   1.402  0.00  0.00    +0.046 C 
ATOM     16  C   UNL     1       1.598  -8.998   0.230  0.00  0.00    +0.180 C 
ATOM     17  C   UNL     1       0.817  -8.673  -0.965  0.00  0.00    +0.075 C 
ATOM     18  C   UNL     1      -1.119  -6.624   0.176  0.00  0.00    +0.016 C 
ATOM     19  C   UNL     1      -2.072  -2.242  -1.418  0.00  0.00    +0.012 C 
ENDROOT
BRANCH   1  21
ATOM     20  C   UNL     1      -1.225   0.753   0.440  0.00  0.00    +0.086 C 
ATOM     21  C   UNL     1       0.002  -0.004   0.002  0.00  0.00    +0.134 C 
ATOM     22  O   UNL     1       0.987  -0.013   0.700  0.00  0.00    -0.297 OA
ENDBRANCH   1  21
BRANCH  16  23
ATOM     23  O   UNL     1       2.963  -8.612   0.058  0.00  0.00    -0.461 OA
BRANCH  23  24
ATOM     24  C   UNL     1       3.800  -9.537  -0.438  0.00  0.00    +0.306 C 
ATOM     25  O   UNL     1       3.387 -10.638  -0.718  0.00  0.00    -0.251 OA
BRANCH  24  26
ATOM     26  C   UNL     1       5.255  -9.202  -0.647  0.00  0.00    +0.102 C 
BRANCH  26  27
ATOM     27  C   UNL     1       5.981 -10.421  -1.219  0.00  0.00    -0.068 C 
BRANCH  27  28
ATOM     28  N   UNL     1       7.399 -10.095  -1.422  0.00  0.00    +0.380 N 
ATOM     29  C   UNL     1       7.517  -9.048  -2.444  0.00  0.00    -0.079 C 
ATOM     30  C   UNL     1       8.985  -8.647  -2.602  0.00  0.00    -0.019 C 
ATOM     31  C   UNL     1       9.800  -9.872  -3.028  0.00  0.00    -0.004 C 
ATOM     32  C   UNL     1       9.611 -10.984  -1.992  0.00  0.00    -0.019 C 
ATOM     33  C   UNL     1       8.119 -11.298  -1.857  0.00  0.00    -0.079 C 
ATOM     34  H   UNL     1       7.795  -9.762  -0.556  0.00  0.00    -0.082 HD
ENDBRANCH  27  28
ENDBRANCH  26  27
ENDBRANCH  24  26
ENDBRANCH  23  24
ENDBRANCH  16  23
TORSDOF 6
