REMARK  Name = ZINC49377793
REMARK  5 active torsions:
REMARK  status: ('A' for Active; 'I' for Inactive)
REMARK    1  A    between atoms: C_6  and  C_7
REMARK    2  A    between atoms: C_10  and  C_12
REMARK    3  A    between atoms: N_15  and  C_18
REMARK    4  A    between atoms: C_18  and  C_19
REMARK    5  A    between atoms: C_19  and  C_21
REMARK                            x       y       z     vdW  Elec       q    Type
REMARK                         _______ _______ _______ _____ _____    ______ ____
ROOT
ATOM      1  C   UNL     1      -3.360  -3.721   0.022  0.00  0.00    +0.073 C 
ATOM      2  C   UNL     1      -4.248  -3.870  -1.217  0.00  0.00    -0.006 C 
ATOM      3  C   UNL     1      -4.960  -5.223  -1.167  0.00  0.00    -0.077 C 
ATOM      4  N   UNL     1      -5.789  -5.300   0.043  0.00  0.00    +0.385 N 
ATOM      5  C   UNL     1      -4.936  -5.229   1.236  0.00  0.00    -0.077 C 
ATOM      6  C   UNL     1      -4.222  -3.876   1.278  0.00  0.00    -0.006 C 
ATOM      7  H   UNL     1      -6.441  -4.530   0.051  0.00  0.00    -0.081 HD
ENDROOT
BRANCH   1  11
ATOM      8  C   UNL     1      -1.266  -0.763   0.011  0.00  0.00    +0.248 A 
ATOM      9  N   UNL     1      -2.477  -0.256   0.019  0.00  0.00    -0.107 NA
ATOM     10  N   UNL     1      -3.337  -1.213   0.024  0.00  0.00    -0.112 NA
ATOM     11  C   UNL     1      -2.715  -2.358   0.018  0.00  0.00    +0.221 A 
ATOM     12  O   UNL     1      -1.395  -2.105   0.005  0.00  0.00    -0.420 OA
BRANCH   8  18
ATOM     13  C   UNL     1      -0.017   1.392   0.010  0.00  0.00    +0.016 A 
ATOM     14  C   UNL     1       1.169   2.095   0.002  0.00  0.00    +0.039 A 
ATOM     15  C   UNL     1       2.379   1.418  -0.013  0.00  0.00    +0.123 A 
ATOM     16  C   UNL     1       2.403   0.033  -0.021  0.00  0.00    +0.039 A 
ATOM     17  C   UNL     1       1.223  -0.680  -0.014  0.00  0.00    +0.016 A 
ATOM     18  C   UNL     1       0.002  -0.004   0.002  0.00  0.00    +0.039 A 
ATOM     19  F   UNL     1       3.538   2.112  -0.022  0.00  0.00    -0.205 F 
ENDBRANCH   8  18
ENDBRANCH   1  11
BRANCH   4  20
ATOM     20  C   UNL     1      -6.530  -6.567   0.048  0.00  0.00    +0.002 C 
BRANCH  20  21
ATOM     21  C   UNL     1      -7.472  -6.594   1.224  0.00  0.00    +0.147 C 
ATOM     22  O   UNL     1      -7.521  -5.650   1.983  0.00  0.00    -0.294 OA
BRANCH  21  23
ATOM     23  C   UNL     1      -8.333  -7.765   1.450  0.00  0.00    +0.016 A 
ATOM     24  C   UNL     1      -8.275  -8.859   0.580  0.00  0.00    +0.013 A 
ATOM     25  C   UNL     1      -9.084  -9.953   0.799  0.00  0.00    +0.020 A 
ATOM     26  C   UNL     1      -9.953  -9.972   1.878  0.00  0.00    +0.041 A 
ATOM     27  C   UNL     1     -10.015  -8.892   2.744  0.00  0.00    +0.020 A 
ATOM     28  C   UNL     1      -9.208  -7.793   2.541  0.00  0.00    +0.013 A 
ATOM     29 CL   UNL     1     -10.969 -11.354   2.145  0.00  0.00    -0.084 Cl
ENDBRANCH  21  23
ENDBRANCH  20  21
ENDBRANCH   4  20
TORSDOF 5
