REMARK  Name = ZINC66080681
REMARK  7 active torsions:
REMARK  status: ('A' for Active; 'I' for Inactive)
REMARK    1  A    between atoms: C_1  and  C_2
REMARK    2  A    between atoms: C_5  and  N_8
REMARK    3  A    between atoms: N_11  and  C_15
REMARK    4  A    between atoms: C_15  and  N_16
REMARK    5  A    between atoms: C_20  and  C_23
REMARK    6  A    between atoms: C_23  and  C_24
REMARK    7  A    between atoms: C_24  and  C_25
REMARK                            x       y       z     vdW  Elec       q    Type
REMARK                         _______ _______ _______ _____ _____    ______ ____
ROOT
ATOM      1  N   UNL     1       0.057  -4.168  -0.021  0.00  0.00    -0.292 N 
ATOM      2  C   UNL     1       0.177  -4.867   1.173  0.00  0.00    +0.185 A 
ATOM      3  N   UNL     1       0.306  -6.155   1.363  0.00  0.00    -0.146 NA
ATOM      4  N   UNL     1       0.412  -6.666   2.636  0.00  0.00    -0.234 N 
ATOM      5  C   UNL     1       0.380  -5.807   3.686  0.00  0.00    +0.146 A 
ATOM      6  S   UNL     1       0.487  -6.135   5.363  0.00  0.00    -0.023 S 
ATOM      7  S   UNL     1       0.203  -4.241   2.845  0.00  0.00    -0.026 S 
ATOM      8  H   UNL     1      -0.017  -4.650  -0.860  0.00  0.00    +0.154 HD
ENDROOT
BRANCH   1  13
ATOM      9  C   UNL     1       0.004   1.503   0.007  0.00  0.00    +0.044 C 
ATOM     10  C   UNL     1       0.018  -0.004  -0.000  0.00  0.00    -0.050 A 
ATOM     11  C   UNL     1       0.778  -0.691   0.928  0.00  0.00    +0.005 A 
ATOM     12  C   UNL     1       0.793  -2.072   0.924  0.00  0.00    +0.023 A 
ATOM     13  C   UNL     1       0.044  -2.771  -0.014  0.00  0.00    +0.033 A 
ATOM     14  C   UNL     1      -0.719  -2.077  -0.945  0.00  0.00    +0.023 A 
ATOM     15  C   UNL     1      -0.734  -0.696  -0.932  0.00  0.00    +0.005 A 
ENDBRANCH   1  13
BRANCH   4  16
ATOM     16  C   UNL     1       0.557  -8.107   2.854  0.00  0.00    +0.232 C 
BRANCH  16  17
ATOM     17  N   UNL     1       1.925  -8.520   2.512  0.00  0.00    -0.283 NA
ATOM     18  C   UNL     1       2.075  -8.691   1.061  0.00  0.00    +0.086 C 
ATOM     19  C   UNL     1       3.542  -8.977   0.730  0.00  0.00    +0.016 C 
ATOM     20  C   UNL     1       3.988 -10.246   1.462  0.00  0.00    +0.006 C 
ATOM     21  C   UNL     1       3.775 -10.059   2.967  0.00  0.00    +0.004 C 
ATOM     22  C   UNL     1       2.302  -9.742   3.233  0.00  0.00    +0.089 C 
BRANCH  21  23
ATOM     23  C   UNL     1       4.162 -11.344   3.701  0.00  0.00    +0.014 C 
BRANCH  23  24
ATOM     24  C   UNL     1       5.662 -11.595   3.533  0.00  0.00    +0.096 C 
BRANCH  24  25
ATOM     25  C   UNL     1       6.044 -12.861   4.256  0.00  0.00    +0.210 C 
ATOM     26  O   UNL     1       5.200 -13.499   4.848  0.00  0.00    -0.276 OA
ATOM     27  N   UNL     1       7.324 -13.283   4.246  0.00  0.00    -0.329 N 
ATOM     28  H   UNL     1       7.999 -12.772   3.772  0.00  0.00    +0.145 HD
ATOM     29  H   UNL     1       7.570 -14.098   4.711  0.00  0.00    +0.145 HD
ENDBRANCH  24  25
ENDBRANCH  23  24
ENDBRANCH  21  23
ENDBRANCH  16  17
ENDBRANCH   4  16
TORSDOF 6
