REMARK  Name = ZINC39663832
REMARK  11 active torsions:
REMARK  status: ('A' for Active; 'I' for Inactive)
REMARK    1  A    between atoms: C_1  and  N_2
REMARK    2  A    between atoms: C_6  and  C_7
REMARK    3  A    between atoms: C_11  and  C_20
REMARK    4  A    between atoms: N_22  and  C_23
REMARK    5  A    between atoms: C_23  and  C_24
REMARK    6  A    between atoms: C_24  and  C_26
REMARK    7  A    between atoms: C_24  and  N_34
REMARK    8  A    between atoms: C_29  and  O_32
REMARK    9  A    between atoms: O_32  and  C_33
REMARK   10  A    between atoms: N_34  and  C_35
REMARK   11  A    between atoms: N_34  and  C_36
REMARK                            x       y       z     vdW  Elec       q    Type
REMARK                         _______ _______ _______ _____ _____    ______ ____
ROOT
ATOM      1  C   UNL     1      -0.086  -0.242   2.370  0.00  0.00    +0.263 C 
ATOM      2  O   UNL     1       0.045  -1.001   3.312  0.00  0.00    -0.268 OA
ATOM      3  N   UNL     1      -0.289   1.073   2.587  0.00  0.00    -0.295 N 
ATOM      4  C   UNL     1      -0.612   2.119   1.587  0.00  0.00    +0.121 C 
ATOM      5  C   UNL     1      -1.646   3.025   2.291  0.00  0.00    +0.100 C 
ATOM      6  C   UNL     1      -1.397   2.813   3.794  0.00  0.00    -0.004 C 
ATOM      7  C   UNL     1      -0.247   1.798   3.879  0.00  0.00    +0.115 C 
ATOM      8  C   UNL     1      -2.645   2.243   4.462  0.00  0.00    -0.010 C 
ATOM      9  C   UNL     1      -2.391   2.094   5.964  0.00  0.00    -0.082 C 
ATOM     10  N   UNL     1      -2.058   3.404   6.538  0.00  0.00    +0.379 N 
ATOM     11  C   UNL     1      -0.805   3.902   5.957  0.00  0.00    -0.082 C 
ATOM     12  C   UNL     1      -0.992   4.127   4.454  0.00  0.00    -0.010 C 
ATOM     13  H   UNL     1      -2.802   4.056   6.340  0.00  0.00    -0.086 HD
ATOM     14  H   UNL     1      -1.951   3.314   7.538  0.00  0.00    -0.086 HD
ENDROOT
BRANCH   1  20
ATOM     15  C   UNL     1       0.030  -3.226   1.546  0.00  0.00    +0.149 C 
ATOM     16  N   UNL     1       0.030  -2.083   0.629  0.00  0.00    -0.346 N 
ATOM     17  C   UNL     1       0.075  -2.155  -0.723  0.00  0.00    +0.086 A 
ATOM     18  C   UNL     1       0.058  -0.898  -1.229  0.00  0.00    +0.020 A 
ATOM     19  C   UNL     1       0.001  -0.004  -0.156  0.00  0.00    +0.032 A 
ATOM     20  C   UNL     1      -0.022  -0.758   0.999  0.00  0.00    +0.104 A 
ENDBRANCH   1  20
BRANCH   5  21
ATOM     21  C   UNL     1      -3.047   2.606   1.925  0.00  0.00    +0.218 C 
ATOM     22  O   UNL     1      -3.267   1.464   1.582  0.00  0.00    -0.275 OA
ATOM     23  N   UNL     1      -4.054   3.499   1.980  0.00  0.00    -0.316 N 
ATOM     24  H   UNL     1      -3.877   4.413   2.254  0.00  0.00    +0.149 HD
BRANCH  23  25
ATOM     25  C   UNL     1      -5.415   3.091   1.624  0.00  0.00    +0.093 C 
BRANCH  25  26
ATOM     26  C   UNL     1      -6.336   4.313   1.647  0.00  0.00    -0.021 C 
BRANCH  26  27
ATOM     27  C   UNL     1      -5.909   5.285   0.578  0.00  0.00    -0.059 A 
ATOM     28  C   UNL     1      -6.287   5.075  -0.736  0.00  0.00    +0.005 A 
ATOM     29  C   UNL     1      -5.896   5.965  -1.718  0.00  0.00    +0.046 A 
ATOM     30  C   UNL     1      -5.125   7.069  -1.386  0.00  0.00    +0.120 A 
ATOM     31  C   UNL     1      -4.749   7.277  -0.067  0.00  0.00    +0.046 A 
ATOM     32  C   UNL     1      -5.146   6.388   0.913  0.00  0.00    +0.005 A 
BRANCH  30  33
ATOM     33  O   UNL     1      -4.740   7.945  -2.350  0.00  0.00    -0.495 OA
ATOM     34  C   UNL     1      -3.947   9.060  -1.935  0.00  0.00    +0.277 C 
ENDBRANCH  30  33
ENDBRANCH  26  27
BRANCH  26  35
ATOM     35  N   UNL     1      -7.720   3.888   1.399  0.00  0.00    +0.382 N 
ATOM     36  C   UNL     1      -8.175   3.030   2.502  0.00  0.00    -0.096 C 
ATOM     37  C   UNL     1      -8.587   5.070   1.308  0.00  0.00    -0.096 C 
ATOM     38  H   UNL     1      -7.763   3.372   0.532  0.00  0.00    -0.082 HD
ENDBRANCH  26  35
ENDBRANCH  25  26
ENDBRANCH  23  25
ENDBRANCH   5  21
TORSDOF 7
