REMARK  Name = ZINC09627193
REMARK  11 active torsions:
REMARK  status: ('A' for Active; 'I' for Inactive)
REMARK    1  A    between atoms: C_1  and  C_2
REMARK    2  A    between atoms: C_4  and  C_33
REMARK    3  A    between atoms: C_5  and  S_9
REMARK    4  A    between atoms: C_6  and  C_8
REMARK    5  A    between atoms: S_9  and  N_12
REMARK    6  A    between atoms: C_15  and  C_18
REMARK    7  A    between atoms: C_18  and  O_20
REMARK    8  A    between atoms: O_20  and  C_21
REMARK    9  A    between atoms: C_21  and  C_22
REMARK   10  A    between atoms: N_24  and  N_25
REMARK   11  A    between atoms: C_26  and  C_28
REMARK                            x       y       z     vdW  Elec       q    Type
REMARK                         _______ _______ _______ _____ _____    ______ ____
ROOT
ATOM      1  N   UNL     1     -11.626   2.168  -1.040  0.00  0.00    -0.177 NA
ATOM      2  C   UNL     1     -11.970   2.827   0.228  0.00  0.00    +0.110 C 
ATOM      3  C   UNL     1     -11.094   4.073   0.390  0.00  0.00    +0.032 C 
ATOM      4  C   UNL     1      -9.621   3.675   0.268  0.00  0.00    +0.100 C 
ATOM      5  C   UNL     1      -9.364   3.080  -1.119  0.00  0.00    +0.032 C 
ATOM      6  C   UNL     1     -10.221   1.823  -1.298  0.00  0.00    +0.110 C 
ENDROOT
BRANCH   1   7
ATOM      7  S   UNL     1     -12.799   1.819  -2.155  0.00  0.00    +0.061 S 
ATOM      8  O   UNL     1     -12.369   0.655  -2.847  0.00  0.00    -0.153 OA
ATOM      9  O   UNL     1     -14.042   1.883  -1.471  0.00  0.00    -0.153 OA
BRANCH   7  14
ATOM     10  C   UNL     1     -12.816   6.310  -6.185  0.00  0.00    +0.044 C 
ATOM     11  C   UNL     1     -12.812   5.188  -5.179  0.00  0.00    -0.050 A 
ATOM     12  C   UNL     1     -13.447   5.350  -3.962  0.00  0.00    +0.008 A 
ATOM     13  C   UNL     1     -13.443   4.321  -3.038  0.00  0.00    -0.024 A 
ATOM     14  C   UNL     1     -12.804   3.131  -3.332  0.00  0.00    +0.111 A 
ATOM     15  C   UNL     1     -12.165   2.971  -4.548  0.00  0.00    -0.024 A 
ATOM     16  C   UNL     1     -12.173   3.998  -5.473  0.00  0.00    +0.008 A 
ATOM     17  C   UNL     1     -11.463   1.676  -4.865  0.00  0.00    +0.046 C 
ATOM     18  C   UNL     1     -14.135   4.497  -1.711  0.00  0.00    +0.046 C 
ENDBRANCH   7  14
ENDBRANCH   1   7
BRANCH   4  19
ATOM     19  C   UNL     1      -8.754   4.893   0.461  0.00  0.00    +0.311 C 
ATOM     20  O   UNL     1      -9.262   5.968   0.673  0.00  0.00    -0.251 OA
BRANCH  19  21
ATOM     21  O   UNL     1      -7.418   4.782   0.396  0.00  0.00    -0.455 OA
BRANCH  21  22
ATOM     22  C   UNL     1      -6.646   5.997   0.591  0.00  0.00    +0.329 C 
BRANCH  22  23
ATOM     23  C   UNL     1      -5.177   5.681   0.484  0.00  0.00    +0.267 C 
ATOM     24  O   UNL     1      -4.815   4.544   0.265  0.00  0.00    -0.271 OA
ATOM     25  N   UNL     1      -4.264   6.661   0.632  0.00  0.00    -0.231 N 
ATOM     26  H   UNL     1      -4.553   7.570   0.807  0.00  0.00    +0.173 HD
BRANCH  25  27
ATOM     27  N   UNL     1      -2.898   6.367   0.533  0.00  0.00    -0.230 N 
ATOM     28  C   UNL     1      -1.985   7.348   0.681  0.00  0.00    +0.267 C 
ATOM     29  O   UNL     1      -2.348   8.489   0.900  0.00  0.00    -0.268 OA
ATOM     30  H   UNL     1      -2.609   5.458   0.358  0.00  0.00    +0.173 HD
BRANCH  28  31
ATOM     31  C   UNL     1      -0.555   7.040   0.577  0.00  0.00    +0.075 A 
ATOM     32  C   UNL     1       0.532   7.892   0.690  0.00  0.00    +0.021 A 
ATOM     33  C   UNL     1       1.779   7.337   0.543  0.00  0.00    +0.008 A 
ATOM     34  C   UNL     1       1.887   6.005   0.299  0.00  0.00    +0.046 A 
ATOM     35  S   UNL     1       0.238   5.473   0.265  0.00  0.00    -0.092 S 
ENDBRANCH  28  31
ENDBRANCH  25  27
ENDBRANCH  22  23
ENDBRANCH  21  22
ENDBRANCH  19  21
ENDBRANCH   4  19
TORSDOF 8
