REMARK  Name = ZINC64074425
REMARK  5 active torsions:
REMARK  status: ('A' for Active; 'I' for Inactive)
REMARK    1  A    between atoms: C_1  and  C_2
REMARK    2  A    between atoms: C_5  and  S_7
REMARK    3  A    between atoms: S_7  and  C_8
REMARK    4  A    between atoms: C_8  and  C_9
REMARK    5  A    between atoms: C_24  and  C_26
REMARK                            x       y       z     vdW  Elec       q    Type
REMARK                         _______ _______ _______ _____ _____    ______ ____
ROOT
ATOM      1  C   UNL     1       0.298  -6.713  -0.480  0.00  0.00    +0.226 C 
ATOM      2  O   UNL     1       0.286  -7.117   0.663  0.00  0.00    -0.275 OA
ATOM      3  N   UNL     1       0.218  -7.586  -1.504  0.00  0.00    -0.295 N 
ATOM      4  C   UNL     1       0.126  -7.085  -2.879  0.00  0.00    +0.112 C 
ATOM      5  C   UNL     1      -1.155  -7.629  -3.538  0.00  0.00    +0.052 C 
ATOM      6  C   UNL     1      -1.221  -9.099  -3.206  0.00  0.00    -0.035 C 
ATOM      7  C   UNL     1      -1.379 -10.168  -3.977  0.00  0.00    -0.001 A 
ATOM      8  C   UNL     1      -1.656 -10.305  -5.416  0.00  0.00    +0.010 A 
ATOM      9  C   UNL     1      -1.739 -11.575  -5.893  0.00  0.00    +0.001 A 
ATOM     10  C   UNL     1      -1.576 -12.709  -5.091  0.00  0.00    +0.002 A 
ATOM     11  C   UNL     1      -1.328 -12.677  -3.757  0.00  0.00    +0.026 A 
ATOM     12  C   UNL     1      -1.227 -11.396  -3.140  0.00  0.00    +0.043 A 
ATOM     13  N   UNL     1      -1.022 -11.076  -1.896  0.00  0.00    -0.376 N 
ATOM     14  C   UNL     1      -1.080  -9.618  -1.780  0.00  0.00    +0.127 C 
ATOM     15  C   UNL     1       0.231  -9.032  -1.231  0.00  0.00    +0.105 C 
ATOM     16  H   UNL     1      -0.858 -11.697  -1.170  0.00  0.00    +0.160 HD
ENDROOT
BRANCH  15  17
ATOM     17  C   UNL     1       0.318  -9.274   0.277  0.00  0.00    +0.012 C 
ATOM     18  C   UNL     1       0.702 -10.731   0.539  0.00  0.00    +0.005 C 
ATOM     19  C   UNL     1       0.790 -10.973   2.047  0.00  0.00    +0.000 C 
ATOM     20  C   UNL     1      -0.567 -10.680   2.690  0.00  0.00    +0.000 C 
ATOM     21  C   UNL     1      -0.952  -9.222   2.428  0.00  0.00    +0.000 C 
ATOM     22  C   UNL     1      -1.039  -8.981   0.920  0.00  0.00    +0.005 C 
ENDBRANCH  15  17
BRANCH   1  23
ATOM     23  C   UNL     1       0.403  -5.236  -0.756  0.00  0.00    +0.172 C 
BRANCH  23  24
ATOM     24  S   UNL     1       0.493  -4.332   0.814  0.00  0.00    -0.088 S 
BRANCH  24  29
ATOM     25  C   UNL     1       0.908   1.490  -0.045  0.00  0.00    +0.075 C 
ATOM     26  C   UNL     1       0.798  -0.013  -0.045  0.00  0.00    +0.100 A 
ATOM     27  N   UNL     1       0.720  -0.856  -1.054  0.00  0.00    -0.146 NA
ATOM     28  N   UNL     1       0.631  -2.102  -0.884  0.00  0.00    -0.135 NA
ATOM     29  C   UNL     1       0.610  -2.643   0.328  0.00  0.00    +0.159 A 
ATOM     30  S   UNL     1       0.743  -1.163   1.327  0.00  0.00    -0.044 S 
ENDBRANCH  24  29
ENDBRANCH  23  24
ENDBRANCH   1  23
TORSDOF 4
