REMARK  Name = ZINC64336404
REMARK  8 active torsions:
REMARK  status: ('A' for Active; 'I' for Inactive)
REMARK    1  A    between atoms: C_1  and  C_2
REMARK    2  A    between atoms: C_2  and  C_3
REMARK    3  A    between atoms: C_2  and  N_16
REMARK    4  A    between atoms: N_5  and  C_6
REMARK    5  A    between atoms: C_6  and  C_7
REMARK    6  A    between atoms: N_13  and  C_14
REMARK    7  A    between atoms: N_13  and  C_15
REMARK    8  A    between atoms: C_17  and  C_22
REMARK                            x       y       z     vdW  Elec       q    Type
REMARK                         _______ _______ _______ _____ _____    ______ ____
ROOT
ATOM      1  C   UNL     1       1.486  -1.320   1.771  0.00  0.00    +0.236 C 
ATOM      2  O   UNL     1       2.542  -1.913   1.836  0.00  0.00    -0.274 OA
ATOM      3  N   UNL     1       0.897  -0.867   2.896  0.00  0.00    -0.309 N 
ATOM      4  H   UNL     1       0.052  -0.393   2.845  0.00  0.00    +0.149 HD
ENDROOT
BRANCH   1   6
ATOM      5  C   UNL     1       0.680   0.415   0.193  0.00  0.00    +0.041 C 
ATOM      6  C   UNL     1       0.832  -1.088   0.433  0.00  0.00    +0.174 C 
BRANCH   6   7
ATOM      7  N   UNL     1       1.663  -1.671  -0.623  0.00  0.00    -0.289 N 
ATOM      8  C   UNL     1       1.303  -2.654  -1.518  0.00  0.00    +0.172 A 
ATOM      9  N   UNL     1       2.347  -2.875  -2.286  0.00  0.00    -0.128 NA
ATOM     10  N   UNL     1       3.318  -2.109  -1.938  0.00  0.00    -0.121 NA
ATOM     11  C   UNL     1       2.955  -1.347  -0.931  0.00  0.00    +0.203 A 
ATOM     12  S   UNL     1       3.950  -0.138  -0.124  0.00  0.00    -0.009 SA
BRANCH   8  13
ATOM     13  C   UNL     1      -0.002  -3.330  -1.598  0.00  0.00    +0.056 A 
ATOM     14  C   UNL     1      -0.514  -4.104  -2.609  0.00  0.00    +0.019 A 
ATOM     15  C   UNL     1      -1.774  -4.638  -2.458  0.00  0.00    +0.008 A 
ATOM     16  C   UNL     1      -2.469  -4.385  -1.319  0.00  0.00    +0.046 A 
ATOM     17  S   UNL     1      -1.327  -3.364  -0.402  0.00  0.00    -0.094 S 
ENDBRANCH   8  13
ENDBRANCH   6   7
ENDBRANCH   1   6
BRANCH   3  18
ATOM     18  C   UNL     1       1.532  -1.092   4.197  0.00  0.00    +0.141 C 
BRANCH  18  19
ATOM     19  C   UNL     1       0.678  -0.493   5.284  0.00  0.00    -0.014 A 
ATOM     20  C   UNL     1       0.866   0.826   5.677  0.00  0.00    +0.010 A 
ATOM     21  C   UNL     1       0.060   1.337   6.678  0.00  0.00    +0.042 A 
ATOM     22  C   UNL     1      -0.906   0.518   7.255  0.00  0.00    +0.098 A 
ATOM     23  N   UNL     1      -1.054  -0.735   6.852  0.00  0.00    -0.349 N 
ATOM     24  C   UNL     1      -0.304  -1.247   5.895  0.00  0.00    +0.089 A 
ATOM     25  N   UNL     1      -1.722   1.018   8.262  0.00  0.00    -0.323 N 
ATOM     26  C   UNL     1      -1.461   2.346   8.824  0.00  0.00    +0.130 C 
ATOM     27  C   UNL     1      -2.843   0.219   8.762  0.00  0.00    +0.130 C 
ATOM     28  H   UNL     1      -1.734  -1.288   7.268  0.00  0.00    +0.167 HD
ENDBRANCH  18  19
ENDBRANCH   3  18
TORSDOF 5
