REMARK  Name = ZINC20673180
REMARK  10 active torsions:
REMARK  status: ('A' for Active; 'I' for Inactive)
REMARK    1  A    between atoms: C_1  and  C_2
REMARK    2  A    between atoms: C_2  and  O_3
REMARK    3  A    between atoms: O_3  and  C_4
REMARK    4  A    between atoms: C_13  and  C_14
REMARK    5  A    between atoms: C_21  and  C_25
REMARK    6  A    between atoms: C_22  and  C_24
REMARK    7  A    between atoms: C_25  and  C_26
REMARK    8  A    between atoms: C_26  and  C_27
REMARK    9  A    between atoms: C_27  and  C_28
REMARK   10  A    between atoms: C_27  and  C_29
REMARK                            x       y       z     vdW  Elec       q    Type
REMARK                         _______ _______ _______ _____ _____    ______ ____
ROOT
ATOM      1  C   UNL     1       5.799  -4.847  -0.078  0.00  0.00    +0.146 A 
ATOM      2  C   UNL     1       5.746  -6.213  -0.084  0.00  0.00    +0.048 A 
ATOM      3  C   UNL     1       4.526  -6.883  -0.076  0.00  0.00    +0.004 A 
ATOM      4  C   UNL     1       3.348  -6.198  -0.061  0.00  0.00    +0.012 A 
ATOM      5  C   UNL     1       3.362  -4.795  -0.054  0.00  0.00    +0.025 A 
ATOM      6  C   UNL     1       4.602  -4.107  -0.062  0.00  0.00    +0.118 A 
ATOM      7  N   UNL     1       4.596  -2.769  -0.061  0.00  0.00    -0.210 NA
ATOM      8  C   UNL     1       3.454  -2.111  -0.041  0.00  0.00    +0.223 A 
ATOM      9  N   UNL     1       2.272  -2.724  -0.033  0.00  0.00    -0.219 NA
ATOM     10  C   UNL     1       2.176  -4.037  -0.039  0.00  0.00    +0.051 A 
ATOM     11  C   UNL     1       0.829  -4.712  -0.029  0.00  0.00    +0.066 C 
ATOM     12  N   UNL     1       3.485  -0.723  -0.035  0.00  0.00    -0.254 N 
ATOM     13  C   UNL     1       2.312  -0.011  -0.020  0.00  0.00    +0.202 A 
ATOM     14  N   UNL     1       2.355   1.349  -0.013  0.00  0.00    -0.295 N 
ATOM     15  H   UNL     1       3.325   1.868  -0.020  0.00  0.00    +0.172 HD
ATOM     16  C   UNL     1       1.206   2.056   0.002  0.00  0.00    +0.256 A 
ATOM     17  O   UNL     1       1.226   3.276   0.007  0.00  0.00    -0.267 OA
ATOM     18  C   UNL     1      -0.016   1.360   0.009  0.00  0.00    +0.038 A 
ATOM     19  C   UNL     1       0.002  -0.004   0.002  0.00  0.00    +0.050 A 
ATOM     20  N   UNL     1       1.163  -0.656  -0.013  0.00  0.00    -0.221 NA
ATOM     21  C   UNL     1      -1.293  -0.774   0.011  0.00  0.00    +0.066 C 
ATOM     22  H   UNL     1       4.449  -0.195  -0.041  0.00  0.00    +0.158 HD
ENDROOT
BRANCH   1  23
ATOM     23  O   UNL     1       6.998  -4.208  -0.086  0.00  0.00    -0.490 OA
BRANCH  23  25
ATOM     24  C   UNL     1       9.414  -4.137  -0.109  0.00  0.00    +0.048 C 
ATOM     25  C   UNL     1       8.169  -5.027  -0.102  0.00  0.00    +0.226 C 
ENDBRANCH  23  25
ENDBRANCH   1  23
BRANCH  18  26
ATOM     26  C   UNL     1      -1.324   2.109   0.020  0.00  0.00    +0.042 C 
BRANCH  26  27
ATOM     27  C   UNL     1      -1.698   2.463   1.461  0.00  0.00    +0.008 C 
BRANCH  27  28
ATOM     28  C   UNL     1      -3.026   3.223   1.471  0.00  0.00    -0.017 C 
ATOM     29  C   UNL     1      -4.144   2.303   0.978  0.00  0.00    +0.007 C 
ATOM     30  C   UNL     1      -3.337   3.686   2.896  0.00  0.00    +0.007 C 
ENDBRANCH  27  28
ENDBRANCH  26  27
ENDBRANCH  18  26
TORSDOF 5
