REMARK  Name = ZINC09015681
REMARK  6 active torsions:
REMARK  status: ('A' for Active; 'I' for Inactive)
REMARK    1  A    between atoms: C_1  and  C_2
REMARK    2  A    between atoms: C_2  and  C_4
REMARK    3  A    between atoms: C_6  and  C_33
REMARK    4  A    between atoms: C_33  and  C_35
REMARK    5  A    between atoms: C_38  and  O_41
REMARK    6  A    between atoms: O_41  and  C_42
REMARK                            x       y       z     vdW  Elec       q    Type
REMARK                         _______ _______ _______ _____ _____    ______ ____
ROOT
ATOM      1  C   UNL     1      -1.913   2.902   0.732  0.00  0.00    +0.152 C 
ATOM      2  C   UNL     1      -0.730   2.041   1.261  0.00  0.00    +0.109 C 
ATOM      3  C   UNL     1      -0.054   1.488  -0.010  0.00  0.00    +0.108 C 
ATOM      4  C   UNL     1      -0.059  -0.003  -0.033  0.00  0.00    -0.008 A 
ATOM      5  C   UNL     1      -1.087  -0.921  -0.015  0.00  0.00    +0.006 A 
ATOM      6  C   UNL     1      -0.734  -2.266  -0.050  0.00  0.00    +0.000 A 
ATOM      7  C   UNL     1       0.587  -2.661  -0.099  0.00  0.00    +0.002 A 
ATOM      8  C   UNL     1       1.627  -1.745  -0.116  0.00  0.00    +0.023 A 
ATOM      9  C   UNL     1       1.287  -0.392  -0.083  0.00  0.00    +0.038 A 
ATOM     10  N   UNL     1       2.110   0.722  -0.090  0.00  0.00    -0.284 N 
ATOM     11  C   UNL     1       1.403   1.873  -0.049  0.00  0.00    +0.231 C 
ATOM     12  O   UNL     1       1.854   2.999  -0.045  0.00  0.00    -0.274 OA
ATOM     13  C   UNL     1      -0.832   2.096  -1.168  0.00  0.00    +0.117 C 
ATOM     14  N   UNL     1      -2.185   2.329  -0.591  0.00  0.00    -0.311 N 
ATOM     15  C   UNL     1      -2.952   3.039  -1.481  0.00  0.00    +0.039 A 
ATOM     16  C   UNL     1      -3.763   4.109  -1.110  0.00  0.00    +0.024 A 
ATOM     17  C   UNL     1      -4.504   4.781  -2.033  0.00  0.00    +0.010 A 
ATOM     18  C   UNL     1      -4.465   4.406  -3.389  0.00  0.00    -0.017 A 
ATOM     19  C   UNL     1      -5.225   5.090  -4.352  0.00  0.00    +0.008 A 
ATOM     20  C   UNL     1      -5.166   4.705  -5.657  0.00  0.00    +0.001 A 
ATOM     21  C   UNL     1      -4.362   3.639  -6.053  0.00  0.00    +0.001 A 
ATOM     22  C   UNL     1      -3.612   2.954  -5.147  0.00  0.00    +0.009 A 
ATOM     23  C   UNL     1      -3.647   3.321  -3.794  0.00  0.00    -0.009 A 
ATOM     24  C   UNL     1      -2.888   2.634  -2.824  0.00  0.00    +0.004 A 
ATOM     25  C   UNL     1      -2.023   1.491  -3.183  0.00  0.00    +0.008 C 
ATOM     26  C   UNL     1      -0.988   1.209  -2.367  0.00  0.00    -0.003 C 
ATOM     27  H   UNL     1       3.078   0.680  -0.121  0.00  0.00    +0.155 HD
ENDROOT
BRANCH   1  29
ATOM     28  C   UNL     1      -1.378   5.197   1.854  0.00  0.00    +0.088 C 
ATOM     29  C   UNL     1      -1.508   4.348   0.615  0.00  0.00    +0.151 C 
ATOM     30  O   UNL     1      -1.287   4.828  -0.471  0.00  0.00    -0.296 OA
ENDBRANCH   1  29
BRANCH   2  31
ATOM     31  C   UNL     1      -1.242   0.913   2.118  0.00  0.00    +0.170 C 
ATOM     32  O   UNL     1      -2.388   0.534   2.000  0.00  0.00    -0.292 OA
BRANCH  31  33
ATOM     33  C   UNL     1      -0.354   0.272   3.096  0.00  0.00    +0.018 A 
ATOM     34  C   UNL     1       0.972   0.703   3.230  0.00  0.00    +0.015 A 
ATOM     35  C   UNL     1       1.796   0.105   4.148  0.00  0.00    +0.046 A 
ATOM     36  C   UNL     1       1.321  -0.936   4.938  0.00  0.00    +0.120 A 
ATOM     37  C   UNL     1       0.007  -1.373   4.805  0.00  0.00    +0.046 A 
ATOM     38  C   UNL     1      -0.827  -0.777   3.894  0.00  0.00    +0.015 A 
BRANCH  36  39
ATOM     39  O   UNL     1       2.141  -1.529   5.841  0.00  0.00    -0.495 OA
ATOM     40  C   UNL     1       3.479  -1.032   5.926  0.00  0.00    +0.277 C 
ENDBRANCH  36  39
ENDBRANCH  31  33
ENDBRANCH   2  31
TORSDOF 4
