REMARK  Name = ZINC36597531
REMARK  17 active torsions:
REMARK  status: ('A' for Active; 'I' for Inactive)
REMARK    1  A    between atoms: C_1  and  C_2
REMARK    2  A    between atoms: C_5  and  C_7
REMARK    3  A    between atoms: C_7  and  N_8
REMARK    4  A    between atoms: N_8  and  C_9
REMARK    5  A    between atoms: C_9  and  C_11
REMARK    6  A    between atoms: C_9  and  C_17
REMARK    7  A    between atoms: N_19  and  C_20
REMARK    8  A    between atoms: C_20  and  C_21
REMARK    9  A    between atoms: C_20  and  C_22
REMARK   10  A    between atoms: C_20  and  C_23
REMARK   11  A    between atoms: C_23  and  C_24
REMARK   12  A    between atoms: C_24  and  C_25
REMARK   13  A    between atoms: C_24  and  C_26
REMARK   14  A    between atoms: C_24  and  C_27
REMARK   15  A    between atoms: C_28  and  C_30
REMARK   16  A    between atoms: C_31  and  O_37
REMARK   17  A    between atoms: C_35  and  O_36
REMARK                            x       y       z     vdW  Elec       q    Type
REMARK                         _______ _______ _______ _____ _____    ______ ____
ROOT
ATOM      1  N   UNL     1       1.230  -1.495  -1.329  0.00  0.00    -0.274 N 
ATOM      2  C   UNL     1       0.663  -2.627  -0.866  0.00  0.00    +0.255 C 
ATOM      3  O   UNL     1       1.278  -3.676  -0.906  0.00  0.00    -0.270 OA
ENDROOT
BRANCH   2   4
ATOM      4  C   UNL     1      -0.701  -2.595  -0.312  0.00  0.00    +0.119 A 
ATOM      5  C   UNL     1      -1.807  -2.808  -1.147  0.00  0.00    +0.133 A 
ATOM      6  C   UNL     1      -3.086  -2.776  -0.615  0.00  0.00    +0.046 A 
ATOM      7  C   UNL     1      -3.274  -2.534   0.733  0.00  0.00    +0.007 A 
ATOM      8  C   UNL     1      -2.190  -2.321   1.565  0.00  0.00    +0.046 A 
ATOM      9  C   UNL     1      -0.902  -2.355   1.055  0.00  0.00    +0.133 A 
BRANCH   9  10
ATOM     10  O   UNL     1       0.160  -2.153   1.875  0.00  0.00    -0.506 OA
ATOM     11  H   UNL     1       0.424  -1.226   1.954  0.00  0.00    +0.292 HD
ENDBRANCH   9  10
BRANCH   5  12
ATOM     12  O   UNL     1      -1.626  -3.045  -2.470  0.00  0.00    -0.506 OA
ATOM     13  H   UNL     1      -1.528  -3.981  -2.692  0.00  0.00    +0.292 HD
ENDBRANCH   5  12
ENDBRANCH   2   4
BRANCH   1  14
ATOM     14  C   UNL     1       0.489  -0.233  -1.280  0.00  0.00    +0.183 C 
BRANCH  14  19
ATOM     15  C   UNL     1      -0.377   1.323  -6.000  0.00  0.00    +0.086 C 
ATOM     16  C   UNL     1      -0.574   0.674  -4.654  0.00  0.00    +0.102 A 
ATOM     17  C   UNL     1      -1.671   0.004  -4.257  0.00  0.00    +0.045 A 
ATOM     18  C   UNL     1      -1.429  -0.431  -2.934  0.00  0.00    +0.046 A 
ATOM     19  C   UNL     1      -0.198  -0.002  -2.602  0.00  0.00    +0.122 A 
ATOM     20  O   UNL     1       0.317   0.662  -3.650  0.00  0.00    -0.463 OA
ENDBRANCH  14  19
ENDBRANCH   1  14
BRANCH   1  21
ATOM     21  C   UNL     1       2.587  -1.528  -1.879  0.00  0.00    +0.193 C 
BRANCH  21  22
ATOM     22  C   UNL     1       3.570  -1.829  -0.777  0.00  0.00    -0.018 A 
ATOM     23  C   UNL     1       3.465  -1.178   0.438  0.00  0.00    +0.006 A 
ATOM     24  C   UNL     1       4.367  -1.454   1.449  0.00  0.00    +0.000 A 
ATOM     25  C   UNL     1       5.372  -2.380   1.245  0.00  0.00    +0.000 A 
ATOM     26  C   UNL     1       5.476  -3.031   0.030  0.00  0.00    +0.000 A 
ATOM     27  C   UNL     1       4.572  -2.759  -0.980  0.00  0.00    +0.006 A 
ENDBRANCH  21  22
BRANCH  21  28
ATOM     28  C   UNL     1       2.913  -0.190  -2.492  0.00  0.00    +0.239 C 
ATOM     29  O   UNL     1       2.124   0.727  -2.401  0.00  0.00    -0.273 OA
ATOM     30  N   UNL     1       4.081  -0.012  -3.140  0.00  0.00    -0.308 N 
ATOM     31  H   UNL     1       4.712  -0.745  -3.213  0.00  0.00    +0.149 HD
BRANCH  30  32
ATOM     32  C   UNL     1       4.398   1.288  -3.735  0.00  0.00    +0.030 C 
ATOM     33  C   UNL     1       3.443   1.563  -4.899  0.00  0.00    +0.031 C 
ATOM     34  C   UNL     1       4.242   2.384  -2.679  0.00  0.00    +0.031 C 
BRANCH  32  35
ATOM     35  C   UNL     1       5.839   1.277  -4.250  0.00  0.00    +0.031 C 
BRANCH  35  36
ATOM     36  C   UNL     1       6.720   0.489  -3.279  0.00  0.00    -0.036 C 
ATOM     37  C   UNL     1       6.669  -0.998  -3.635  0.00  0.00    +0.010 C 
ATOM     38  C   UNL     1       8.163   0.988  -3.380  0.00  0.00    +0.010 C 
ATOM     39  C   UNL     1       6.210   0.688  -1.850  0.00  0.00    +0.010 C 
ENDBRANCH  35  36
ENDBRANCH  32  35
ENDBRANCH  30  32
ENDBRANCH  21  28
ENDBRANCH   1  21
TORSDOF 11
