REMARK  Name = ZINC10214524
REMARK  8 active torsions:
REMARK  status: ('A' for Active; 'I' for Inactive)
REMARK    1  A    between atoms: C_1  and  C_2
REMARK    2  A    between atoms: C_2  and  N_62
REMARK    3  A    between atoms: C_12  and  C_14
REMARK    4  A    between atoms: C_16  and  C_21
REMARK    5  A    between atoms: C_19  and  O_20
REMARK    6  A    between atoms: C_26  and  O_29
REMARK    7  A    between atoms: O_29  and  C_30
REMARK    8  A    between atoms: C_30  and  C_31
REMARK                            x       y       z     vdW  Elec       q    Type
REMARK                         _______ _______ _______ _____ _____    ______ ____
ROOT
ATOM      1  C   UNL     1      -0.754   1.593  -1.231  0.00  0.00    -0.073 C 
ATOM      2  C   UNL     1      -0.013   1.086   0.008  0.00  0.00    +0.052 C 
ATOM      3  C   UNL     1      -0.729   1.579   1.264  0.00  0.00    +0.190 C 
ATOM      4  C   UNL     1      -0.821   3.104   1.242  0.00  0.00    +0.052 C 
ATOM      5  C   UNL     1      -1.538   3.550  -0.035  0.00  0.00    -0.073 C 
ATOM      6  N   UNL     1      -2.071   0.996   1.337  0.00  0.00    -0.207 N 
ATOM      7  C   UNL     1      -2.932   1.225   2.521  0.00  0.00    +0.136 C 
ATOM      8  C   UNL     1      -4.005   0.138   2.374  0.00  0.00    +0.086 C 
ATOM      9  C   UNL     1      -3.795  -0.384   0.967  0.00  0.00    +0.072 C 
ATOM     10  N   UNL     1      -2.730   0.149   0.465  0.00  0.00    -0.184 NA
ATOM     11  C   UNL     1      -2.062   1.001   3.730  0.00  0.00    +0.020 A 
ATOM     12  C   UNL     1      -2.658   0.794   4.962  0.00  0.00    +0.009 A 
ATOM     13  C   UNL     1      -1.885   0.603   6.090  0.00  0.00    +0.004 A 
ATOM     14  C   UNL     1      -0.506   0.622   5.988  0.00  0.00    +0.049 A 
ATOM     15  C   UNL     1       0.095   0.821   4.760  0.00  0.00    +0.162 A 
ATOM     16  C   UNL     1      -0.682   1.004   3.611  0.00  0.00    +0.170 A 
ATOM     17  O   UNL     1      -0.026   1.146   2.430  0.00  0.00    -0.463 OA
ATOM     18  N   UNL     1      -0.773   3.072  -1.206  0.00  0.00    +0.380 N 
ATOM     19  H   UNL     1       0.192   3.416  -1.136  0.00  0.00    -0.082 HD
ENDROOT
BRANCH   9  20
ATOM     20  C   UNL     1      -4.671  -1.349   0.278  0.00  0.00    +0.039 A 
ATOM     21  C   UNL     1      -5.800  -1.859   0.923  0.00  0.00    +0.016 A 
ATOM     22  C   UNL     1      -6.615  -2.761   0.272  0.00  0.00    -0.050 A 
ATOM     23  C   UNL     1      -6.319  -3.164  -1.018  0.00  0.00    +0.007 A 
ATOM     24  C   UNL     1      -5.204  -2.667  -1.668  0.00  0.00    +0.046 A 
ATOM     25  C   UNL     1      -4.378  -1.756  -1.031  0.00  0.00    +0.126 A 
ATOM     26  C   UNL     1      -7.833  -3.310   0.969  0.00  0.00    +0.044 C 
BRANCH  25  27
ATOM     27  O   UNL     1      -3.287  -1.262  -1.671  0.00  0.00    -0.506 OA
ATOM     28  H   UNL     1      -2.484  -1.785  -1.540  0.00  0.00    +0.292 HD
ENDBRANCH  25  27
ENDBRANCH   9  20
BRANCH  18  30
ATOM     29  C   UNL     1      -1.642   5.089  -2.293  0.00  0.00    -0.017 C 
ATOM     30  C   UNL     1      -1.378   3.590  -2.450  0.00  0.00    -0.082 C 
ENDBRANCH  18  30
BRANCH  15  31
ATOM     31  O   UNL     1       1.452   0.839   4.667  0.00  0.00    -0.489 OA
BRANCH  31  32
ATOM     32  C   UNL     1       2.187   0.646   5.877  0.00  0.00    +0.226 C 
ATOM     33  C   UNL     1       3.686   0.698   5.576  0.00  0.00    +0.048 C 
ENDBRANCH  31  32
ENDBRANCH  15  31
TORSDOF 5
