REMARK  Name = ZINC14358097
REMARK  9 active torsions:
REMARK  status: ('A' for Active; 'I' for Inactive)
REMARK    1  A    between atoms: C_1  and  C_2
REMARK    2  A    between atoms: C_2  and  C_3
REMARK    3  A    between atoms: C_7  and  C_14
REMARK    4  A    between atoms: C_14  and  S_15
REMARK    5  A    between atoms: S_15  and  C_16
REMARK    6  A    between atoms: C_19  and  C_29
REMARK    7  A    between atoms: C_20  and  C_22
REMARK    8  A    between atoms: C_25  and  C_28
REMARK    9  A    between atoms: C_32  and  C_35
REMARK                            x       y       z     vdW  Elec       q    Type
REMARK                         _______ _______ _______ _____ _____    ______ ____
ROOT
ATOM      1  C   UNL     1      -2.609  -2.803  -1.403  0.00  0.00    +0.168 A 
ATOM      2  N   UNL     1      -2.646  -3.759  -2.373  0.00  0.00    -0.332 N 
ATOM      3  H   UNL     1      -2.658  -3.603  -3.360  0.00  0.00    +0.168 HD
ATOM      4  C   UNL     1      -2.662  -4.986  -1.735  0.00  0.00    +0.075 A 
ATOM      5  C   UNL     1      -2.643  -4.720  -0.380  0.00  0.00    +0.098 A 
ATOM      6  N   UNL     1      -2.611  -3.382  -0.226  0.00  0.00    -0.221 NA
ENDROOT
BRANCH   5   7
ATOM      7  C   UNL     1      -2.657  -5.726   0.707  0.00  0.00    +0.002 A 
ATOM      8  C   UNL     1      -3.383  -6.907   0.560  0.00  0.00    +0.010 A 
ATOM      9  C   UNL     1      -3.387  -7.843   1.574  0.00  0.00    +0.004 A 
ATOM     10  C   UNL     1      -2.682  -7.605   2.741  0.00  0.00    -0.050 A 
ATOM     11  C   UNL     1      -1.965  -6.432   2.896  0.00  0.00    +0.004 A 
ATOM     12  C   UNL     1      -1.948  -5.492   1.886  0.00  0.00    +0.010 A 
ATOM     13  C   UNL     1      -2.695  -8.628   3.847  0.00  0.00    +0.044 C 
ENDBRANCH   5   7
BRANCH   4  14
ATOM     14  C   UNL     1      -2.698  -6.315  -2.376  0.00  0.00    +0.000 A 
ATOM     15  C   UNL     1      -1.858  -7.335  -1.923  0.00  0.00    +0.010 A 
ATOM     16  C   UNL     1      -1.901  -8.576  -2.523  0.00  0.00    +0.004 A 
ATOM     17  C   UNL     1      -2.765  -8.809  -3.578  0.00  0.00    -0.050 A 
ATOM     18  C   UNL     1      -3.596  -7.801  -4.036  0.00  0.00    +0.004 A 
ATOM     19  C   UNL     1      -3.568  -6.557  -3.442  0.00  0.00    +0.010 A 
ATOM     20  C   UNL     1      -2.800 -10.166  -4.233  0.00  0.00    +0.044 C 
ENDBRANCH   4  14
BRANCH   1  21
ATOM     21  S   UNL     1      -2.571  -1.064  -1.685  0.00  0.00    -0.083 S 
BRANCH  21  22
ATOM     22  C   UNL     1      -2.541  -0.469   0.024  0.00  0.00    +0.113 C 
BRANCH  22  27
ATOM     23  C   UNL     1       1.150   3.166   0.008  0.00  0.00    -0.044 A 
ATOM     24  C   UNL     1       1.160   1.778   0.001  0.00  0.00    +0.004 A 
ATOM     25  C   UNL     1      -0.013   1.076   0.008  0.00  0.00    +0.012 A 
ATOM     26  C   UNL     1      -1.231   1.761   0.017  0.00  0.00    +0.022 A 
ATOM     27  C   UNL     1      -2.506   1.038   0.031  0.00  0.00    -0.020 A 
ATOM     28  C   UNL     1      -3.654   1.761   0.045  0.00  0.00    +0.097 A 
ATOM     29  C   UNL     1      -3.594   3.172   0.052  0.00  0.00    +0.338 A 
ATOM     30  O   UNL     1      -4.631   3.810   0.065  0.00  0.00    -0.245 OA
ATOM     31  O   UNL     1      -2.423   3.827   0.045  0.00  0.00    -0.422 OA
ATOM     32  C   UNL     1      -1.246   3.167   0.030  0.00  0.00    +0.140 A 
ATOM     33  C   UNL     1      -0.042   3.860   0.023  0.00  0.00    +0.050 A 
BRANCH  23  35
ATOM     34  C   UNL     1       2.881   4.184  -1.446  0.00  0.00    +0.009 C 
ATOM     35  C   UNL     1       2.454   3.921  -0.001  0.00  0.00    +0.032 C 
ENDBRANCH  23  35
ENDBRANCH  22  27
ENDBRANCH  21  22
ENDBRANCH   1  21
TORSDOF 6
