REMARK  Name = ZINC00818720
REMARK  7 active torsions:
REMARK  status: ('A' for Active; 'I' for Inactive)
REMARK    1  A    between atoms: C_1  and  C_2
REMARK    2  A    between atoms: C_2  and  C_30
REMARK    3  A    between atoms: C_6  and  C_14
REMARK    4  A    between atoms: C_8  and  C_12
REMARK    5  A    between atoms: C_9  and  N_11
REMARK    6  A    between atoms: N_16  and  C_23
REMARK    7  A    between atoms: C_23  and  C_24
REMARK                            x       y       z     vdW  Elec       q    Type
REMARK                         _______ _______ _______ _____ _____    ______ ____
ROOT
ATOM      1  C   UNL     1       1.141   5.905   2.867  0.00  0.00    +0.012 C 
ATOM      2  C   UNL     1       2.351   6.562   3.534  0.00  0.00    -0.021 C 
ATOM      3  C   UNL     1       3.013   5.569   4.491  0.00  0.00    +0.081 C 
ATOM      4  C   UNL     1       3.490   4.361   3.720  0.00  0.00    +0.115 C 
ATOM      5  C   UNL     1       3.892   4.478   2.441  0.00  0.00    +0.046 C 
ATOM      6  C   UNL     1       4.382   3.271   1.677  0.00  0.00    +0.103 C 
ATOM      7  C   UNL     1       4.747   2.171   2.633  0.00  0.00    +0.098 C 
ATOM      8  C   UNL     1       4.290   2.184   3.905  0.00  0.00    +0.198 C 
ATOM      9  O   UNL     1       3.497   3.172   4.351  0.00  0.00    -0.445 OA
ATOM     10  C   UNL     1       3.869   5.719   1.777  0.00  0.00    +0.164 C 
ATOM     11  O   UNL     1       4.255   5.788   0.627  0.00  0.00    -0.292 OA
ATOM     12  C   UNL     1       3.373   6.962   2.465  0.00  0.00    +0.086 C 
ATOM     13  C   UNL     1       1.900   7.802   4.309  0.00  0.00    +0.012 C 
ENDROOT
BRANCH   6  14
ATOM     14  C   UNL     1       3.293   2.790   0.752  0.00  0.00    -0.009 A 
ATOM     15  C   UNL     1       2.068   2.373   1.110  0.00  0.00    +0.092 A 
ATOM     16  N   UNL     1       1.356   2.010  -0.000  0.00  0.00    -0.338 N 
ATOM     17  C   UNL     1       2.121   2.197  -1.129  0.00  0.00    +0.050 A 
ATOM     18  C   UNL     1       3.368   2.695  -0.707  0.00  0.00    +0.004 A 
ATOM     19  C   UNL     1       4.358   2.982  -1.649  0.00  0.00    +0.010 A 
ATOM     20  C   UNL     1       4.111   2.778  -2.977  0.00  0.00    +0.001 A 
ATOM     21  C   UNL     1       2.882   2.288  -3.398  0.00  0.00    +0.002 A 
ATOM     22  C   UNL     1       1.891   1.998  -2.486  0.00  0.00    +0.026 A 
BRANCH  16  23
ATOM     23  C   UNL     1      -0.018   1.503   0.010  0.00  0.00    +0.217 C 
BRANCH  23  24
ATOM     24  C   UNL     1       0.002  -0.004   0.002  0.00  0.00    +0.230 C 
ATOM     25  O   UNL     1       1.060  -0.596  -0.011  0.00  0.00    -0.274 OA
ATOM     26  N   UNL     1      -1.156  -0.694   0.009  0.00  0.00    -0.328 N 
ATOM     27  H   UNL     1      -2.002  -0.220   0.020  0.00  0.00    +0.145 HD
ATOM     28  H   UNL     1      -1.143  -1.664   0.004  0.00  0.00    +0.145 HD
ENDBRANCH  23  24
ENDBRANCH  16  23
ENDBRANCH   6  14
BRANCH   8  29
ATOM     29  N   UNL     1       4.642   1.169   4.759  0.00  0.00    -0.328 N 
ATOM     30  H   UNL     1       4.318   1.169   5.673  0.00  0.00    +0.145 HD
ATOM     31  H   UNL     1       5.214   0.450   4.447  0.00  0.00    +0.145 HD
ENDBRANCH   8  29
BRANCH   7  32
ATOM     32  C   UNL     1       5.587   1.097   2.194  0.00  0.00    +0.101 C 
ATOM     33  N   UNL     1       6.253   0.244   1.846  0.00  0.00    -0.191 NA
ENDBRANCH   7  32
TORSDOF 5
