REMARK  Name = ZINC38965898
REMARK  4 active torsions:
REMARK  status: ('A' for Active; 'I' for Inactive)
REMARK    1  A    between atoms: C_5  and  C_7
REMARK    2  A    between atoms: N_13  and  N_14
REMARK    3  A    between atoms: C_15  and  C_16
REMARK    4  A    between atoms: C_20  and  N_22
REMARK                            x       y       z     vdW  Elec       q    Type
REMARK                         _______ _______ _______ _____ _____    ______ ____
ROOT
ATOM      1  C   UNL     1       1.252  -2.364   0.087  0.00  0.00    +0.280 C 
ATOM      2  N   UNL     1       2.404  -2.759  -0.738  0.00  0.00    -0.188 NA
ATOM      3  N   UNL     1       1.976  -3.223  -1.798  0.00  0.00    -0.219 N 
ATOM      4  C   UNL     1       0.619  -3.227  -1.877  0.00  0.00    +0.174 C 
ATOM      5  S   UNL     1      -0.285  -3.803  -3.212  0.00  0.00    -0.015 S 
ATOM      6  N   UNL     1       0.084  -2.711  -0.744  0.00  0.00    -0.171 N 
ATOM      7  H   UNL     1       2.552  -3.552  -2.506  0.00  0.00    +0.176 HD
ENDROOT
BRANCH   1  12
ATOM      8  C   UNL     1       0.136   1.178   0.730  0.00  0.00    +0.003 A 
ATOM      9  C   UNL     1       1.374   1.788   0.867  0.00  0.00    +0.017 A 
ATOM     10  C   UNL     1       2.518   1.023   0.745  0.00  0.00    +0.083 A 
ATOM     11  N   UNL     1       2.442  -0.271   0.502  0.00  0.00    -0.361 N 
ATOM     12  C   UNL     1       1.283  -0.884   0.365  0.00  0.00    +0.062 A 
ATOM     13  C   UNL     1       0.096  -0.184   0.474  0.00  0.00    +0.025 A 
ATOM     14  H   UNL     1       3.261  -0.784   0.420  0.00  0.00    +0.165 HD
ENDBRANCH   1  12
BRANCH   6  15
ATOM     15  N   UNL     1      -1.272  -2.542  -0.431  0.00  0.00    -0.183 NA
ATOM     16  C   UNL     1      -2.185  -3.004  -1.231  0.00  0.00    +0.138 C 
BRANCH  16  17
ATOM     17  C   UNL     1      -3.608  -2.736  -0.957  0.00  0.00    -0.003 A 
ATOM     18  C   UNL     1      -3.978  -1.980   0.159  0.00  0.00    +0.011 A 
ATOM     19  C   UNL     1      -5.311  -1.733   0.410  0.00  0.00    +0.023 A 
ATOM     20  C   UNL     1      -6.283  -2.233  -0.442  0.00  0.00    +0.071 A 
ATOM     21  C   UNL     1      -5.923  -2.983  -1.549  0.00  0.00    +0.145 A 
ATOM     22  C   UNL     1      -4.593  -3.231  -1.815  0.00  0.00    +0.043 A 
ATOM     23 CL   UNL     1      -7.959  -1.918  -0.119  0.00  0.00    -0.081 Cl
BRANCH  21  24
ATOM     24  N   UNL     1      -6.969  -3.513  -2.453  0.00  0.00    +0.058 N 
ATOM     25  O   UNL     1      -6.656  -4.168  -3.420  0.00  0.00    -0.126 OA
ATOM     26  O   UNL     1      -8.135  -3.291  -2.224  0.00  0.00    -0.126 OA
ENDBRANCH  21  24
ENDBRANCH  16  17
ENDBRANCH   6  15
TORSDOF 4
