REMARK  Name = ZINC36742783
REMARK  6 active torsions:
REMARK  status: ('A' for Active; 'I' for Inactive)
REMARK    1  A    between atoms: C_5  and  S_7
REMARK    2  A    between atoms: S_7  and  N_10
REMARK    3  A    between atoms: N_10  and  C_11
REMARK    4  A    between atoms: C_11  and  C_12
REMARK    5  A    between atoms: C_14  and  N_19
REMARK    6  A    between atoms: C_17  and  O_18
REMARK                            x       y       z     vdW  Elec       q    Type
REMARK                         _______ _______ _______ _____ _____    ______ ____
ROOT
ATOM      1  N   UNL     1       1.893  -2.913  -1.466  0.00  0.00    -0.185 NA
ATOM      2  H   UNL     1       1.354  -3.400  -2.110  0.00  0.00    +0.148 HD
ENDROOT
BRANCH   1   3
ATOM      3  S   UNL     1       1.232  -2.441  -0.023  0.00  0.00    +0.060 S 
ATOM      4  O   UNL     1       2.144  -2.841   0.991  0.00  0.00    -0.153 OA
ATOM      5  O   UNL     1      -0.124  -2.865  -0.039  0.00  0.00    -0.153 OA
BRANCH   3  10
ATOM      6  C   UNL     1      -0.017   1.378   0.010  0.00  0.00    +0.002 A 
ATOM      7  C   UNL     1       1.171   2.086   0.002  0.00  0.00    +0.002 A 
ATOM      8  C   UNL     1       2.377   1.412  -0.013  0.00  0.00    +0.022 A 
ATOM      9  C   UNL     1       2.397   0.029  -0.021  0.00  0.00    +0.067 A 
ATOM     10  C   UNL     1       1.208  -0.679  -0.013  0.00  0.00    +0.123 A 
ATOM     11  C   UNL     1       0.002  -0.004   0.002  0.00  0.00    +0.030 A 
ATOM     12 CL   UNL     1       3.912  -0.818  -0.041  0.00  0.00    -0.082 Cl
ENDBRANCH   3  10
ENDBRANCH   1   3
BRANCH   1  13
ATOM     13  C   UNL     1       3.290  -2.597  -1.771  0.00  0.00    +0.144 C 
BRANCH  13  14
ATOM     14  C   UNL     1       3.751  -3.430  -2.939  0.00  0.00    +0.011 A 
ATOM     15  C   UNL     1       3.901  -2.849  -4.184  0.00  0.00    +0.031 A 
ATOM     16  C   UNL     1       4.326  -3.617  -5.260  0.00  0.00    +0.025 A 
ATOM     17  C   UNL     1       4.599  -4.967  -5.085  0.00  0.00    +0.026 A 
ATOM     18  C   UNL     1       4.448  -5.545  -3.840  0.00  0.00    +0.047 A 
ATOM     19  C   UNL     1       4.029  -4.777  -2.764  0.00  0.00    +0.121 A 
BRANCH  16  20
ATOM     20  N   UNL     1       4.478  -3.030  -6.521  0.00  0.00    -0.358 N 
ATOM     21  H   UNL     1       4.287  -2.087  -6.644  0.00  0.00    +0.142 HD
ATOM     22  H   UNL     1       4.775  -3.566  -7.273  0.00  0.00    +0.142 HD
ENDBRANCH  16  20
BRANCH  19  23
ATOM     23  O   UNL     1       3.885  -5.346  -1.537  0.00  0.00    -0.506 OA
ATOM     24  H   UNL     1       3.004  -5.709  -1.373  0.00  0.00    +0.292 HD
ENDBRANCH  19  23
ENDBRANCH  13  14
ENDBRANCH   1  13
TORSDOF 6
