REMARK  Name = ZINC40337338
REMARK  4 active torsions:
REMARK  status: ('A' for Active; 'I' for Inactive)
REMARK    1  A    between atoms: C_2  and  S_8
REMARK    2  A    between atoms: S_8  and  N_11
REMARK    3  A    between atoms: C_14  and  C_17
REMARK    4  A    between atoms: C_17  and  N_18
REMARK                            x       y       z     vdW  Elec       q    Type
REMARK                         _______ _______ _______ _____ _____    ______ ____
ROOT
ATOM      1  N   UNL     1       2.592   3.718   1.431  0.00  0.00    -0.176 NA
ATOM      2  C   UNL     1       1.864   4.169   2.625  0.00  0.00    +0.109 C 
ATOM      3  C   UNL     1       2.168   3.210   3.780  0.00  0.00    +0.019 C 
ATOM      4  C   UNL     1       3.683   3.108   3.968  0.00  0.00    -0.025 C 
ATOM      5  C   UNL     1       4.321   2.549   2.695  0.00  0.00    +0.019 C 
ATOM      6  C   UNL     1       4.041   3.495   1.529  0.00  0.00    +0.109 C 
ENDROOT
BRANCH   1   7
ATOM      7  S   UNL     1       1.793   3.459   0.004  0.00  0.00    +0.066 S 
ATOM      8  O   UNL     1       2.759   3.584  -1.031  0.00  0.00    -0.153 OA
ATOM      9  O   UNL     1       0.616   4.254   0.047  0.00  0.00    -0.153 OA
BRANCH   7  11
ATOM     10  C   UNL     1      -0.016   1.345   0.009  0.00  0.00    +0.135 A 
ATOM     11  C   UNL     1       1.265   1.778  -0.001  0.00  0.00    +0.164 A 
ATOM     12  C   UNL     1       2.101   0.649  -0.015  0.00  0.00    +0.164 A 
ATOM     13  N   UNL     1       1.339  -0.420  -0.013  0.00  0.00    -0.157 NA
ATOM     14  N   UNL     1       0.002  -0.004   0.002  0.00  0.00    -0.281 N 
ATOM     15  H   UNL     1      -0.775  -0.585   0.007  0.00  0.00    +0.188 HD
ATOM     16  N   UNL     1       3.500   0.662  -0.029  0.00  0.00    -0.340 N 
ATOM     17  H   UNL     1       3.978   1.506  -0.029  0.00  0.00    +0.144 HD
ATOM     18  H   UNL     1       3.993  -0.174  -0.038  0.00  0.00    +0.144 HD
ENDBRANCH   7  11
ENDBRANCH   1   7
BRANCH   4  19
ATOM     19  C   UNL     1       3.989   2.177   5.143  0.00  0.00    -0.075 C 
BRANCH  19  20
ATOM     20  N   UNL     1       5.436   2.173   5.401  0.00  0.00    +0.380 N 
ATOM     21  C   UNL     1       5.865   3.492   5.932  0.00  0.00    -0.079 C 
ATOM     22  C   UNL     1       7.195   3.166   6.656  0.00  0.00    -0.020 C 
ATOM     23  C   UNL     1       6.917   1.781   7.284  0.00  0.00    -0.020 C 
ATOM     24  C   UNL     1       5.763   1.188   6.454  0.00  0.00    -0.079 C 
ATOM     25  H   UNL     1       5.939   1.957   4.553  0.00  0.00    -0.082 HD
ENDBRANCH  19  20
ENDBRANCH   4  19
TORSDOF 4
