REMARK  Name = ZINC09459030
REMARK  14 active torsions:
REMARK  status: ('A' for Active; 'I' for Inactive)
REMARK    1  A    between atoms: C_1  and  C_2
REMARK    2  A    between atoms: C_2  and  N_66
REMARK    3  A    between atoms: C_3  and  C_4
REMARK    4  A    between atoms: C_3  and  N_66
REMARK    5  A    between atoms: C_5  and  C_6
REMARK    6  A    between atoms: C_5  and  N_66
REMARK    7  A    between atoms: C_6  and  C_7
REMARK    8  A    between atoms: C_7  and  N_8
REMARK    9  A    between atoms: C_9  and  C_29
REMARK   10  A    between atoms: C_11  and  C_16
REMARK   11  A    between atoms: C_12  and  O_15
REMARK   12  A    between atoms: C_16  and  C_18
REMARK   13  A    between atoms: C_25  and  C_28
REMARK   14  A    between atoms: C_32  and  O_35
REMARK                            x       y       z     vdW  Elec       q    Type
REMARK                         _______ _______ _______ _____ _____    ______ ____
ROOT
ATOM      1  N   UNL     1       3.897   1.852   0.026  0.00  0.00    -0.284 N 
ATOM      2  C   UNL     1       3.033   3.038   0.065  0.00  0.00    +0.144 C 
ATOM      3  C   UNL     1       1.612   2.525   0.063  0.00  0.00    +0.071 C 
ATOM      4  C   UNL     1       1.685   1.175   0.025  0.00  0.00    +0.188 C 
ATOM      5  C   UNL     1       3.105   0.765   0.008  0.00  0.00    +0.282 C 
ATOM      6  O   UNL     1       3.498  -0.384  -0.020  0.00  0.00    -0.267 OA
ENDROOT
BRANCH   2   7
ATOM      7  C   UNL     1       3.296   3.829   1.321  0.00  0.00    -0.022 A 
ATOM      8  C   UNL     1       3.376   3.182   2.540  0.00  0.00    +0.009 A 
ATOM      9  C   UNL     1       3.623   3.904   3.692  0.00  0.00    +0.046 A 
ATOM     10  C   UNL     1       3.779   5.281   3.625  0.00  0.00    +0.117 A 
ATOM     11  C   UNL     1       3.693   5.929   2.402  0.00  0.00    +0.046 A 
ATOM     12  C   UNL     1       3.452   5.201   1.252  0.00  0.00    +0.009 A 
BRANCH  10  13
ATOM     13  O   UNL     1       4.016   5.994   4.758  0.00  0.00    -0.507 OA
ATOM     14  H   UNL     1       3.214   6.305   5.202  0.00  0.00    +0.292 HD
ENDBRANCH  10  13
ENDBRANCH   2   7
BRANCH   4  15
ATOM     15  O   UNL     1       0.625   0.333   0.011  0.00  0.00    -0.502 OA
ATOM     16  H   UNL     1       0.951  -0.612  -0.018  0.00  0.00    +0.292 HD
ENDBRANCH   4  15
BRANCH   3  17
ATOM     17  C   UNL     1       0.390   3.335   0.095  0.00  0.00    +0.195 C 
ATOM     18  O   UNL     1      -0.406   3.200   1.005  0.00  0.00    -0.287 OA
BRANCH  17  19
ATOM     19  C   UNL     1       0.125   4.314  -0.978  0.00  0.00    +0.023 A 
ATOM     20  C   UNL     1       0.978   4.397  -2.083  0.00  0.00    +0.015 A 
ATOM     21  C   UNL     1       0.729   5.308  -3.081  0.00  0.00    +0.046 A 
ATOM     22  C   UNL     1      -0.369   6.167  -2.998  0.00  0.00    +0.124 A 
ATOM     23  C   UNL     1      -1.215   6.079  -1.895  0.00  0.00    -0.002 A 
ATOM     24  C   UNL     1      -0.978   5.170  -0.894  0.00  0.00    +0.019 A 
ATOM     25  C   UNL     1      -2.309   7.112  -2.092  0.00  0.00    +0.083 C 
ATOM     26  C   UNL     1      -2.157   7.453  -3.594  0.00  0.00    +0.175 C 
ATOM     27  O   UNL     1      -0.779   7.139  -3.855  0.00  0.00    -0.488 OA
ATOM     28  C   UNL     1      -3.083   6.581  -4.444  0.00  0.00    +0.052 C 
ENDBRANCH  17  19
ENDBRANCH   3  17
BRANCH   1  29
ATOM     29  C   UNL     1       5.362   1.852   0.015  0.00  0.00    +0.107 C 
BRANCH  29  30
ATOM     30  C   UNL     1       5.883   1.812   1.453  0.00  0.00    +0.000 C 
BRANCH  30  31
ATOM     31  C   UNL     1       7.412   1.812   1.441  0.00  0.00    -0.077 C 
BRANCH  31  32
ATOM     32  N   UNL     1       7.900   1.794   2.836  0.00  0.00    +0.379 N 
ATOM     33  H   UNL     1       7.441   2.550   3.359  0.00  0.00    -0.082 HD
BRANCH  32  35
ATOM     34  C   UNL     1       8.285  -0.646   2.758  0.00  0.00    -0.017 C 
ATOM     35  C   UNL     1       7.568   0.502   3.471  0.00  0.00    -0.082 C 
ENDBRANCH  32  35
BRANCH  32  36
ATOM     36  C   UNL     1       9.362   2.010   2.863  0.00  0.00    -0.082 C 
ATOM     37  C   UNL     1       9.784   2.336   4.297  0.00  0.00    -0.017 C 
ENDBRANCH  32  36
ENDBRANCH  31  32
ENDBRANCH  30  31
ENDBRANCH  29  30
ENDBRANCH   1  29
TORSDOF 11
