REMARK  Name = ZINC59286738
REMARK  12 active torsions:
REMARK  status: ('A' for Active; 'I' for Inactive)
REMARK    1  A    between atoms: C_1  and  C_2
REMARK    2  A    between atoms: C_4  and  C_37
REMARK    3  A    between atoms: C_9  and  C_36
REMARK    4  A    between atoms: C_10  and  C_14
REMARK    5  A    between atoms: C_11  and  C_13
REMARK    6  A    between atoms: C_14  and  C_15
REMARK    7  A    between atoms: N_17  and  C_18
REMARK    8  A    between atoms: C_18  and  C_19
REMARK    9  A    between atoms: C_24  and  C_25
REMARK   10  A    between atoms: C_25  and  N_26
REMARK   11  A    between atoms: C_28  and  C_35
REMARK   12  A    between atoms: C_31  and  C_34
REMARK                            x       y       z     vdW  Elec       q    Type
REMARK                         _______ _______ _______ _____ _____    ______ ____
ROOT
ATOM      1  C   UNL     1      -2.158  -3.006   6.462  0.00  0.00    +0.218 C 
ATOM      2  O   UNL     1      -3.207  -3.036   5.855  0.00  0.00    -0.275 OA
ATOM      3  N   UNL     1      -2.159  -2.876   7.803  0.00  0.00    -0.311 N 
ATOM      4  H   UNL     1      -1.320  -2.852   8.289  0.00  0.00    +0.149 HD
ENDROOT
BRANCH   1   5
ATOM      5  C   UNL     1      -0.853  -3.113   5.717  0.00  0.00    +0.134 C 
BRANCH   5  15
ATOM      6  C   UNL     1      -1.698   1.455  -0.124  0.00  0.00    +0.066 C 
ATOM      7  C   UNL     1      -1.776  -0.050  -0.150  0.00  0.00    +0.044 A 
ATOM      8  C   UNL     1      -2.026  -0.719  -1.338  0.00  0.00    +0.046 A 
ATOM      9  C   UNL     1      -2.090  -2.104  -1.316  0.00  0.00    +0.044 A 
ATOM     10  N   UNL     1      -1.909  -2.740  -0.171  0.00  0.00    -0.216 NA
ATOM     11  C   UNL     1      -1.672  -2.070   0.945  0.00  0.00    +0.252 A 
ATOM     12  N   UNL     1      -1.600  -0.748   0.959  0.00  0.00    -0.216 NA
ATOM     13  N   UNL     1      -1.487  -2.773   2.135  0.00  0.00    -0.202 N 
ATOM     14  C   UNL     1      -1.242  -2.231   3.357  0.00  0.00    +0.049 A 
ATOM     15  C   UNL     1      -1.127  -3.248   4.241  0.00  0.00    +0.005 A 
ATOM     16  C   UNL     1      -1.306  -4.449   3.543  0.00  0.00    +0.064 A 
ATOM     17  N   UNL     1      -1.527  -4.166   2.286  0.00  0.00    -0.169 NA
ATOM     18  C   UNL     1      -1.259  -5.831   4.141  0.00  0.00    +0.068 C 
ATOM     19  C   UNL     1      -1.119  -0.762   3.670  0.00  0.00    +0.066 C 
ATOM     20  C   UNL     1      -2.360  -2.875  -2.583  0.00  0.00    +0.066 C 
ENDBRANCH   5  15
ENDBRANCH   1   5
BRANCH   3  21
ATOM     21  C   UNL     1      -3.428  -2.772   8.528  0.00  0.00    +0.139 C 
BRANCH  21  22
ATOM     22  C   UNL     1      -3.155  -2.662  10.006  0.00  0.00    -0.029 A 
ATOM     23  C   UNL     1      -3.230  -3.786  10.808  0.00  0.00    +0.005 A 
ATOM     24  C   UNL     1      -2.980  -3.685  12.164  0.00  0.00    +0.000 A 
ATOM     25  C   UNL     1      -2.654  -2.461  12.717  0.00  0.00    +0.000 A 
ATOM     26  C   UNL     1      -2.578  -1.338  11.915  0.00  0.00    +0.002 A 
ATOM     27  C   UNL     1      -2.825  -1.439  10.559  0.00  0.00    -0.059 A 
BRANCH  27  28
ATOM     28  C   UNL     1      -2.737  -0.216   9.684  0.00  0.00    -0.043 C 
BRANCH  28  29
ATOM     29  N   UNL     1      -1.422  -0.174   9.030  0.00  0.00    +0.383 N 
ATOM     30  C   UNL     1      -0.378   0.005  10.046  0.00  0.00    -0.075 C 
ATOM     31  C   UNL     1       0.999  -0.032   9.380  0.00  0.00    -0.031 C 
ATOM     32  C   UNL     1       1.091   1.095   8.348  0.00  0.00    +0.003 C 
ATOM     33  C   UNL     1      -0.047   0.940   7.335  0.00  0.00    -0.031 C 
ATOM     34  C   UNL     1      -1.385   0.942   8.077  0.00  0.00    -0.075 C 
ATOM     35  C   UNL     1      -0.011   2.105   6.344  0.00  0.00    +0.005 C 
ATOM     36  C   UNL     1       1.194  -1.381   8.685  0.00  0.00    +0.005 C 
ATOM     37  H   UNL     1      -1.264  -1.041   8.538  0.00  0.00    -0.081 HD
ENDBRANCH  28  29
ENDBRANCH  27  28
ENDBRANCH  21  22
ENDBRANCH   3  21
TORSDOF 6
