REMARK  Name = ZINC62159034
REMARK  5 active torsions:
REMARK  status: ('A' for Active; 'I' for Inactive)
REMARK    1  A    between atoms: C_1  and  C_2
REMARK    2  A    between atoms: N_14  and  S_15
REMARK    3  A    between atoms: S_15  and  C_18
REMARK    4  A    between atoms: C_18  and  C_19
REMARK    5  A    between atoms: C_19  and  C_20
REMARK                            x       y       z     vdW  Elec       q    Type
REMARK                         _______ _______ _______ _____ _____    ______ ____
ROOT
ATOM      1  C   UNL     1      -0.018   1.503   0.010  0.00  0.00    +0.049 C 
ATOM      2  C   UNL     1       0.002  -0.004   0.002  0.00  0.00    +0.014 A 
ATOM      3  C   UNL     1      -1.188  -0.707   0.004  0.00  0.00    +0.018 A 
ATOM      4  C   UNL     1      -1.153  -2.110  -0.004  0.00  0.00    -0.001 A 
ATOM      5  C   UNL     1      -2.348  -2.860  -0.003  0.00  0.00    +0.012 A 
ATOM      6  C   UNL     1      -2.300  -4.213  -0.012  0.00  0.00    +0.030 A 
ATOM      7  C   UNL     1      -1.054  -4.885  -0.021  0.00  0.00    +0.087 A 
ATOM      8  C   UNL     1       0.144  -4.151  -0.022  0.00  0.00    +0.055 A 
ATOM      9  C   UNL     1       0.100  -2.772  -0.014  0.00  0.00    +0.051 A 
ATOM     10  N   UNL     1       1.262  -2.031  -0.016  0.00  0.00    -0.322 N 
ATOM     11  H   UNL     1       2.121  -2.482  -0.023  0.00  0.00    +0.169 HD
ATOM     12  C   UNL     1       1.213  -0.676  -0.013  0.00  0.00    +0.252 A 
ATOM     13  O   UNL     1       2.363   0.030  -0.020  0.00  0.00    -0.268 OA
ATOM     14  N   UNL     1      -1.018  -6.218  -0.029  0.00  0.00    -0.134 NA
ENDROOT
BRANCH  14  15
ATOM     15  S   UNL     1      -2.429  -7.085  -0.028  0.00  0.00    +0.070 S 
ATOM     16  O   UNL     1      -3.047  -6.769   1.212  0.00  0.00    -0.152 OA
ATOM     17  O   UNL     1      -3.059  -6.755  -1.258  0.00  0.00    -0.152 OA
BRANCH  15  18
ATOM     18  C   UNL     1      -1.908  -8.823  -0.040  0.00  0.00    +0.197 C 
BRANCH  18  19
ATOM     19  C   UNL     1      -3.143  -9.726  -0.040  0.00  0.00    +0.060 C 
BRANCH  19  20
ATOM     20  C   UNL     1      -2.711 -11.169  -0.050  0.00  0.00    -0.046 A 
ATOM     21  C   UNL     1      -2.513 -11.823  -1.252  0.00  0.00    +0.004 A 
ATOM     22  C   UNL     1      -2.116 -13.147  -1.261  0.00  0.00    +0.000 A 
ATOM     23  C   UNL     1      -1.917 -13.817  -0.069  0.00  0.00    +0.000 A 
ATOM     24  C   UNL     1      -2.115 -13.163   1.133  0.00  0.00    +0.000 A 
ATOM     25  C   UNL     1      -2.507 -11.838   1.143  0.00  0.00    +0.004 A 
ENDBRANCH  19  20
ENDBRANCH  18  19
ENDBRANCH  15  18
ENDBRANCH  14  15
TORSDOF 4
