REMARK  Name = ZINC35226514
REMARK  10 active torsions:
REMARK  status: ('A' for Active; 'I' for Inactive)
REMARK    1  A    between atoms: C_1  and  C_2
REMARK    2  A    between atoms: C_7  and  C_10
REMARK    3  A    between atoms: C_11  and  C_13
REMARK    4  A    between atoms: C_16  and  C_18
REMARK    5  A    between atoms: C_18  and  N_19
REMARK    6  A    between atoms: N_19  and  C_20
REMARK    7  A    between atoms: N_19  and  C_28
REMARK    8  A    between atoms: C_20  and  C_21
REMARK    9  A    between atoms: C_28  and  C_29
REMARK   10  A    between atoms: C_28  and  C_30
REMARK                            x       y       z     vdW  Elec       q    Type
REMARK                         _______ _______ _______ _____ _____    ______ ____
ROOT
ATOM      1  C   UNL     1      -3.324  -8.252   1.294  0.00  0.00    +0.190 A 
ATOM      2  C   UNL     1      -3.135  -9.296   0.434  0.00  0.00    +0.055 A 
ATOM      3  C   UNL     1      -1.750  -9.414   0.241  0.00  0.00    +0.043 A 
ATOM      4  C   UNL     1      -1.161  -8.450   0.983  0.00  0.00    +0.090 A 
ATOM      5  O   UNL     1      -2.114  -7.748   1.611  0.00  0.00    -0.457 OA
ENDROOT
BRANCH   1  14
ATOM      6  C   UNL     1      -6.995  -4.040   3.776  0.00  0.00    +0.039 C 
ATOM      7  C   UNL     1      -5.752  -4.700   3.176  0.00  0.00    +0.133 C 
ATOM      8  C   UNL     1      -5.934  -6.222   3.167  0.00  0.00    +0.139 C 
ATOM      9  N   UNL     1      -4.661  -6.839   2.763  0.00  0.00    -0.290 N 
ATOM     10  C   UNL     1      -3.437  -6.421   3.465  0.00  0.00    +0.139 C 
ATOM     11  C   UNL     1      -3.376  -4.889   3.459  0.00  0.00    +0.133 C 
ATOM     12  O   UNL     1      -4.607  -4.367   3.965  0.00  0.00    -0.371 OA
ATOM     13  C   UNL     1      -3.159  -4.391   2.029  0.00  0.00    +0.039 C 
ATOM     14  C   UNL     1      -4.617  -7.761   1.781  0.00  0.00    +0.282 C 
ATOM     15  O   UNL     1      -5.651  -8.185   1.299  0.00  0.00    -0.267 OA
ENDBRANCH   1  14
BRANCH   4  16
ATOM     16  C   UNL     1       0.322  -8.201   1.082  0.00  0.00    -0.002 C 
BRANCH  16  17
ATOM     17  N   UNL     1       0.750  -7.346  -0.033  0.00  0.00    +0.389 N 
ATOM     18  H   UNL     1       0.440  -7.748  -0.904  0.00  0.00    -0.080 HD
BRANCH  17  19
ATOM     19  C   UNL     1       0.165  -6.007   0.124  0.00  0.00    -0.074 C 
ATOM     20  C   UNL     1      -1.220  -5.977  -0.524  0.00  0.00    -0.013 C 
ATOM     21  C   UNL     1       0.039  -5.677   1.613  0.00  0.00    -0.013 C 
ENDBRANCH  17  19
BRANCH  17  22
ATOM     22  C   UNL     1       2.216  -7.242  -0.035  0.00  0.00    -0.041 C 
BRANCH  22  23
ATOM     23  C   UNL     1       2.673  -6.617  -1.327  0.00  0.00    -0.046 A 
ATOM     24  C   UNL     1       2.740  -7.378  -2.478  0.00  0.00    +0.003 A 
ATOM     25  C   UNL     1       3.160  -6.805  -3.664  0.00  0.00    +0.000 A 
ATOM     26  C   UNL     1       3.513  -5.468  -3.699  0.00  0.00    +0.001 A 
ATOM     27  C   UNL     1       3.446  -4.705  -2.548  0.00  0.00    +0.020 A 
ATOM     28  C   UNL     1       3.021  -5.278  -1.363  0.00  0.00    +0.042 A 
ATOM     29 CL   UNL     1       2.931  -4.319   0.082  0.00  0.00    -0.083 Cl
ENDBRANCH  22  23
ENDBRANCH  17  22
ENDBRANCH  16  17
ENDBRANCH   4  16
TORSDOF 6
