REMARK  Name = ZINC38673064
REMARK  13 active torsions:
REMARK  status: ('A' for Active; 'I' for Inactive)
REMARK    1  A    between atoms: C_1  and  C_2
REMARK    2  A    between atoms: C_2  and  N_3
REMARK    3  A    between atoms: N_3  and  C_4
REMARK    4  A    between atoms: N_3  and  S_6
REMARK    5  A    between atoms: C_4  and  C_5
REMARK    6  A    between atoms: S_6  and  C_9
REMARK    7  A    between atoms: C_12  and  C_15
REMARK    8  A    between atoms: N_17  and  C_18
REMARK    9  A    between atoms: C_18  and  C_19
REMARK   10  A    between atoms: C_19  and  C_21
REMARK   11  A    between atoms: C_19  and  N_32
REMARK   12  A    between atoms: N_30  and  C_31
REMARK   13  A    between atoms: N_35  and  C_38
REMARK                            x       y       z     vdW  Elec       q    Type
REMARK                         _______ _______ _______ _____ _____    ______ ____
ROOT
ATOM      1  C   UNL     1       1.343   5.750  -8.520  0.00  0.00    +0.104 C 
ENDROOT
BRANCH   1   2
ATOM      2  C   UNL     1       0.372   6.436  -9.446  0.00  0.00    -0.028 A 
ATOM      3  C   UNL     1      -0.690   5.728  -9.979  0.00  0.00    +0.007 A 
ATOM      4  C   UNL     1      -1.579   6.357 -10.828  0.00  0.00    +0.024 A 
ATOM      5  C   UNL     1      -1.407   7.700 -11.146  0.00  0.00    +0.033 A 
ATOM      6  C   UNL     1      -0.344   8.409 -10.608  0.00  0.00    -0.026 A 
ATOM      7  C   UNL     1       0.541   7.771  -9.755  0.00  0.00    +0.010 A 
ATOM      8  C   UNL     1      -0.132   9.867 -10.922  0.00  0.00    +0.038 C 
ATOM      9  C   UNL     1      -0.860  10.248 -12.210  0.00  0.00    +0.024 C 
ATOM     10  C   UNL     1      -2.319   9.782 -12.113  0.00  0.00    +0.105 C 
ATOM     11  N   UNL     1      -2.316   8.316 -12.012  0.00  0.00    -0.333 N 
ATOM     12  C   UNL     1      -3.249   7.514 -12.806  0.00  0.00    +0.129 C 
ENDBRANCH   1   2
BRANCH   1  13
ATOM     13  N   UNL     1       2.211   4.854  -9.297  0.00  0.00    -0.297 NA
ATOM     14  C   UNL     1       3.159   5.620 -10.118  0.00  0.00    +0.066 C 
ATOM     15  C   UNL     1       4.081   4.653 -10.864  0.00  0.00    -0.064 C 
ATOM     16  N   UNL     1       3.275   3.766 -11.714  0.00  0.00    +0.379 N 
ATOM     17  C   UNL     1       2.350   2.990 -10.878  0.00  0.00    -0.064 C 
ATOM     18  C   UNL     1       1.414   3.944 -10.132  0.00  0.00    +0.066 C 
ATOM     19  C   UNL     1       4.162   2.850 -12.443  0.00  0.00    -0.096 C 
ATOM     20  H   UNL     1       2.749   4.320 -12.373  0.00  0.00    -0.082 HD
ENDBRANCH   1  13
BRANCH   1  21
ATOM     21  C   UNL     1       0.570   4.936  -7.481  0.00  0.00    +0.128 C 
BRANCH  21  24
ATOM     22  C   UNL     1       1.061   3.486  -5.586  0.00  0.00    +0.244 C 
ATOM     23  O   UNL     1      -0.129   3.451  -5.341  0.00  0.00    -0.270 OA
ATOM     24  N   UNL     1       1.513   4.201  -6.635  0.00  0.00    -0.310 N 
ATOM     25  H   UNL     1       2.463   4.228  -6.831  0.00  0.00    +0.149 HD
BRANCH  22  29
ATOM     26  C   UNL     1       3.797   1.353  -3.134  0.00  0.00    +0.106 A 
ATOM     27  C   UNL     1       2.443   1.311  -2.853  0.00  0.00    +0.029 A 
ATOM     28  C   UNL     1       1.549   2.002  -3.645  0.00  0.00    +0.015 A 
ATOM     29  C   UNL     1       2.013   2.744  -4.732  0.00  0.00    +0.037 A 
ATOM     30  C   UNL     1       3.381   2.781  -5.011  0.00  0.00    +0.015 A 
ATOM     31  C   UNL     1       4.264   2.090  -4.207  0.00  0.00    +0.029 A 
BRANCH  26  32
ATOM     32  S   UNL     1       4.931   0.468  -2.118  0.00  0.00    +0.061 S 
ATOM     33  O   UNL     1       6.086   0.229  -2.910  0.00  0.00    -0.153 OA
ATOM     34  O   UNL     1       4.195  -0.584  -1.508  0.00  0.00    -0.153 OA
BRANCH  32  35
ATOM     35  N   UNL     1       5.396   1.488  -0.899  0.00  0.00    -0.177 NA
BRANCH  35  37
ATOM     36  C   UNL     1       3.609   2.656   0.294  0.00  0.00    +0.022 C 
ATOM     37  C   UNL     1       4.638   1.526   0.354  0.00  0.00    +0.106 C 
ENDBRANCH  35  37
BRANCH  35  38
ATOM     38  C   UNL     1       6.565   2.354  -1.075  0.00  0.00    +0.106 C 
ATOM     39  C   UNL     1       7.798   1.672  -0.479  0.00  0.00    +0.022 C 
ENDBRANCH  35  38
ENDBRANCH  32  35
ENDBRANCH  26  32
ENDBRANCH  22  29
ENDBRANCH  21  24
ENDBRANCH   1  21
TORSDOF 9
