REMARK  Name = ZINC59256179
REMARK  5 active torsions:
REMARK  status: ('A' for Active; 'I' for Inactive)
REMARK    1  A    between atoms: C_1  and  C_2
REMARK    2  A    between atoms: C_2  and  C_4
REMARK    3  A    between atoms: C_4  and  N_5
REMARK    4  A    between atoms: C_19  and  C_22
REMARK    5  A    between atoms: C_22  and  C_23
REMARK                            x       y       z     vdW  Elec       q    Type
REMARK                         _______ _______ _______ _____ _____    ______ ____
ROOT
ATOM      1  N   UNL     1      -1.379  -0.906  -1.778  0.00  0.00    -0.265 N 
ATOM      2  C   UNL     1      -2.196  -1.991  -1.451  0.00  0.00    +0.042 A 
ATOM      3  C   UNL     1      -1.948  -3.113  -0.663  0.00  0.00    +0.024 A 
ATOM      4  C   UNL     1      -2.929  -4.065  -0.483  0.00  0.00    +0.002 A 
ATOM      5  C   UNL     1      -4.166  -3.915  -1.083  0.00  0.00    +0.000 A 
ATOM      6  C   UNL     1      -4.421  -2.804  -1.868  0.00  0.00    +0.008 A 
ATOM      7  C   UNL     1      -3.445  -1.850  -2.050  0.00  0.00    +0.004 A 
ATOM      8  C   UNL     1      -3.389  -0.560  -2.817  0.00  0.00    +0.136 C 
ATOM      9  C   UNL     1      -2.007  -0.018  -2.572  0.00  0.00    +0.246 C 
ATOM     10  O   UNL     1      -1.547   1.017  -3.007  0.00  0.00    -0.273 OA
ATOM     11  C   UNL     1      -4.464   0.425  -2.342  0.00  0.00    +0.123 C 
ATOM     12  C   UNL     1      -4.900   1.177  -3.631  0.00  0.00    +0.108 C 
ATOM     13  C   UNL     1      -4.023   0.583  -4.753  0.00  0.00    +0.072 C 
ATOM     14  N   UNL     1      -3.641  -0.772  -4.254  0.00  0.00    -0.295 NA
ATOM     15  C   UNL     1      -6.337   0.745  -3.818  0.00  0.00    +0.233 C 
ATOM     16  O   UNL     1      -7.062   1.098  -4.723  0.00  0.00    -0.274 OA
ATOM     17  N   UNL     1      -6.682  -0.089  -2.830  0.00  0.00    -0.187 N 
ATOM     18  C   UNL     1      -5.704  -0.336  -1.929  0.00  0.00    +0.234 C 
ATOM     19  O   UNL     1      -5.795  -1.050  -0.954  0.00  0.00    -0.274 OA
ATOM     20  C   UNL     1      -7.952  -0.654  -2.731  0.00  0.00    +0.174 A 
ATOM     21  N   UNL     1      -8.412  -1.475  -1.813  0.00  0.00    -0.233 NA
ATOM     22  C   UNL     1      -9.651  -1.927  -1.859  0.00  0.00    +0.120 A 
ATOM     23  C   UNL     1     -10.422  -1.506  -2.893  0.00  0.00    +0.068 A 
ATOM     24  S   UNL     1      -9.273  -0.446  -3.755  0.00  0.00    -0.060 S 
ATOM     25  H   UNL     1      -2.811  -1.104  -4.722  0.00  0.00    +0.124 HD
ENDROOT
BRANCH   1  26
ATOM     26  C   UNL     1      -0.000  -0.750  -1.307  0.00  0.00    +0.143 C 
BRANCH  26  28
ATOM     27  C   UNL     1      -0.018   1.503   0.010  0.00  0.00    +0.040 C 
ATOM     28  C   UNL     1       0.002  -0.004   0.002  0.00  0.00    -0.062 C 
ATOM     29  C   UNL     1       0.022  -0.665   1.133  0.00  0.00    +0.009 C 
ENDBRANCH  26  28
ENDBRANCH   1  26
BRANCH  13  30
ATOM     30  C   UNL     1      -4.830   0.452  -6.046  0.00  0.00    +0.054 C 
BRANCH  30  31
ATOM     31  C   UNL     1      -3.925  -0.013  -7.158  0.00  0.00    -0.046 A 
ATOM     32  C   UNL     1      -3.254   0.912  -7.936  0.00  0.00    +0.004 A 
ATOM     33  C   UNL     1      -2.424   0.486  -8.956  0.00  0.00    +0.000 A 
ATOM     34  C   UNL     1      -2.264  -0.866  -9.197  0.00  0.00    +0.000 A 
ATOM     35  C   UNL     1      -2.934  -1.791  -8.418  0.00  0.00    +0.000 A 
ATOM     36  C   UNL     1      -3.760  -1.365  -7.396  0.00  0.00    +0.004 A 
ENDBRANCH  30  31
ENDBRANCH  13  30
TORSDOF 4
