REMARK  Name = ZINC40010324
REMARK  8 active torsions:
REMARK  status: ('A' for Active; 'I' for Inactive)
REMARK    1  A    between atoms: C_1  and  C_2
REMARK    2  A    between atoms: C_9  and  O_31
REMARK    3  A    between atoms: C_10  and  O_29
REMARK    4  A    between atoms: C_13  and  C_15
REMARK    5  A    between atoms: C_20  and  O_27
REMARK    6  A    between atoms: O_27  and  C_28
REMARK    7  A    between atoms: O_29  and  C_30
REMARK    8  A    between atoms: O_31  and  C_32
REMARK                            x       y       z     vdW  Elec       q    Type
REMARK                         _______ _______ _______ _____ _____    ______ ____
ROOT
ATOM      1  C   UNL     1       0.406   1.341   0.057  0.00  0.00    +0.109 C 
ATOM      2  C   UNL     1       0.248  -0.157   0.007  0.00  0.00    +0.213 C 
ATOM      3  O   UNL     1       1.228  -0.868  -0.070  0.00  0.00    -0.276 OA
ATOM      4  N   UNL     1      -0.982  -0.707   0.048  0.00  0.00    -0.293 N 
ATOM      5  C   UNL     1      -2.191   0.129   0.135  0.00  0.00    +0.113 C 
ATOM      6  C   UNL     1      -2.999  -0.080  -1.145  0.00  0.00    +0.054 C 
ATOM      7  C   UNL     1      -3.134  -1.546  -1.461  0.00  0.00    -0.037 A 
ATOM      8  C   UNL     1      -4.165  -1.927  -2.313  0.00  0.00    +0.053 A 
ATOM      9  C   UNL     1      -4.342  -3.255  -2.653  0.00  0.00    +0.162 A 
ATOM     10  C   UNL     1      -3.480  -4.219  -2.139  0.00  0.00    +0.162 A 
ATOM     11  C   UNL     1      -2.458  -3.837  -1.289  0.00  0.00    +0.055 A 
ATOM     12  C   UNL     1      -2.288  -2.502  -0.946  0.00  0.00    -0.019 A 
ATOM     13  C   UNL     1      -1.170  -2.160   0.002  0.00  0.00    +0.122 C 
ENDROOT
BRANCH  13  14
ATOM     14  C   UNL     1      -1.519  -2.673   1.400  0.00  0.00    +0.123 C 
ATOM     15  C   UNL     1      -2.916  -2.191   1.737  0.00  0.00    -0.002 C 
ATOM     16  C   UNL     1      -3.061  -1.430   2.859  0.00  0.00    -0.003 A 
ATOM     17  C   UNL     1      -4.375  -0.923   3.256  0.00  0.00    +0.055 A 
ATOM     18  C   UNL     1      -4.472  -0.165   4.384  0.00  0.00    +0.121 A 
ATOM     19  C   UNL     1      -3.345   0.131   5.160  0.00  0.00    +0.047 A 
ATOM     20  C   UNL     1      -2.102  -0.310   4.841  0.00  0.00    +0.027 A 
ATOM     21  C   UNL     1      -1.894  -1.100   3.695  0.00  0.00    +0.041 A 
ATOM     22  N   UNL     1      -0.667  -1.527   3.395  0.00  0.00    -0.284 N 
ATOM     23  C   UNL     1      -0.401  -2.270   2.335  0.00  0.00    +0.226 C 
ATOM     24  O   UNL     1       0.740  -2.629   2.112  0.00  0.00    -0.275 OA
ATOM     25  H   UNL     1       0.065  -1.280   3.982  0.00  0.00    +0.155 HD
BRANCH  18  26
ATOM     26  O   UNL     1      -5.687   0.311   4.764  0.00  0.00    -0.495 OA
ATOM     27  C   UNL     1      -5.731   1.100   5.955  0.00  0.00    +0.277 C 
ENDBRANCH  18  26
ENDBRANCH  13  14
BRANCH  10  28
ATOM     28  O   UNL     1      -3.641  -5.528  -2.470  0.00  0.00    -0.491 OA
ATOM     29  C   UNL     1      -2.718  -6.460  -1.903  0.00  0.00    +0.277 C 
ENDBRANCH  10  28
BRANCH   9  30
ATOM     30  O   UNL     1      -5.354  -3.618  -3.486  0.00  0.00    -0.491 OA
ATOM     31  C   UNL     1      -6.199  -2.573  -3.974  0.00  0.00    +0.277 C 
ENDBRANCH   9  30
TORSDOF 4
