REMARK  Name = ZINC59506544
REMARK  10 active torsions:
REMARK  status: ('A' for Active; 'I' for Inactive)
REMARK    1  A    between atoms: C_4  and  O_7
REMARK    2  A    between atoms: O_7  and  C_8
REMARK    3  A    between atoms: C_8  and  C_9
REMARK    4  A    between atoms: C_9  and  N_10
REMARK    5  A    between atoms: C_11  and  C_13
REMARK    6  A    between atoms: C_13  and  S_14
REMARK    7  A    between atoms: S_14  and  C_15
REMARK    8  A    between atoms: C_20  and  N_24
REMARK    9  A    between atoms: C_25  and  C_26
REMARK   10  A    between atoms: C_35  and  O_36
REMARK                            x       y       z     vdW  Elec       q    Type
REMARK                         _______ _______ _______ _____ _____    ______ ____
ROOT
ATOM      1  C   UNL     1       9.974  -2.458   4.200  0.00  0.00    +0.136 A 
ATOM      2  N   UNL     1       9.407  -1.763   5.162  0.00  0.00    -0.233 NA
ATOM      3  C   UNL     1      10.053  -1.444   6.304  0.00  0.00    +0.080 A 
ATOM      4  C   UNL     1       9.558  -0.707   7.407  0.00  0.00    +0.031 A 
ATOM      5  C   UNL     1      10.335  -0.465   8.493  0.00  0.00    +0.030 A 
ATOM      6  C   UNL     1      11.653  -0.933   8.568  0.00  0.00    +0.065 A 
ATOM      7  C   UNL     1      12.174  -1.665   7.496  0.00  0.00    +0.045 A 
ATOM      8  C   UNL     1      11.386  -1.907   6.403  0.00  0.00    +0.042 A 
ATOM      9  S   UNL     1      11.606  -2.764   4.862  0.00  0.00    -0.061 S 
ENDROOT
BRANCH   6  10
ATOM     10  N   UNL     1      12.419  -0.677   9.671  0.00  0.00    -0.255 NA
ATOM     11  C   UNL     1      12.435   0.520  10.192  0.00  0.00    +0.123 C 
BRANCH  11  12
ATOM     12  C   UNL     1      13.255   0.794  11.374  0.00  0.00    +0.042 A 
ATOM     13  C   UNL     1      13.280   2.129  11.975  0.00  0.00    -0.006 A 
ATOM     14  C   UNL     1      12.527   3.182  11.444  0.00  0.00    +0.009 A 
ATOM     15  C   UNL     1      12.577   4.410  12.034  0.00  0.00    +0.001 A 
ATOM     16  C   UNL     1      13.370   4.632  13.157  0.00  0.00    +0.001 A 
ATOM     17  C   UNL     1      14.115   3.629  13.699  0.00  0.00    +0.008 A 
ATOM     18  C   UNL     1      14.087   2.350  13.117  0.00  0.00    -0.017 A 
ATOM     19  C   UNL     1      14.843   1.290  13.649  0.00  0.00    +0.012 A 
ATOM     20  C   UNL     1      14.810   0.057  13.080  0.00  0.00    +0.046 A 
ATOM     21  C   UNL     1      14.027  -0.214  11.957  0.00  0.00    +0.126 A 
BRANCH  21  22
ATOM     22  O   UNL     1      14.020  -1.462  11.425  0.00  0.00    -0.506 OA
ATOM     23  H   UNL     1      14.696  -1.605  10.750  0.00  0.00    +0.292 HD
ENDBRANCH  21  22
ENDBRANCH  11  12
ENDBRANCH   6  10
BRANCH   1  24
ATOM     24  S   UNL     1       9.296  -2.964   2.655  0.00  0.00    -0.089 S 
BRANCH  24  25
ATOM     25  C   UNL     1       7.609  -2.295   2.676  0.00  0.00    +0.172 C 
BRANCH  25  27
ATOM     26  N   UNL     1       5.636  -2.268   1.185  0.00  0.00    -0.311 N 
ATOM     27  C   UNL     1       6.908  -2.661   1.393  0.00  0.00    +0.223 C 
ATOM     28  O   UNL     1       7.488  -3.309   0.548  0.00  0.00    -0.275 OA
ATOM     29  H   UNL     1       5.171  -1.750   1.861  0.00  0.00    +0.149 HD
BRANCH  26  30
ATOM     30  C   UNL     1       4.954  -2.624  -0.061  0.00  0.00    +0.145 C 
BRANCH  30  31
ATOM     31  C   UNL     1       3.531  -2.060  -0.044  0.00  0.00    +0.247 C 
BRANCH  31  32
ATOM     32  O   UNL     1       3.586  -0.632  -0.037  0.00  0.00    -0.490 OA
BRANCH  32  36
ATOM     33  C   UNL     1      -0.017   1.378   0.010  0.00  0.00    +0.000 A 
ATOM     34  C   UNL     1       1.170   2.088   0.002  0.00  0.00    +0.004 A 
ATOM     35  C   UNL     1       2.377   1.417  -0.013  0.00  0.00    +0.045 A 
ATOM     36  C   UNL     1       2.399   0.030  -0.021  0.00  0.00    +0.121 A 
ATOM     37  C   UNL     1       1.207  -0.680  -0.013  0.00  0.00    +0.045 A 
ATOM     38  C   UNL     1       0.002  -0.004   0.002  0.00  0.00    +0.004 A 
ENDBRANCH  32  36
ENDBRANCH  31  32
ENDBRANCH  30  31
ENDBRANCH  26  30
ENDBRANCH  25  27
ENDBRANCH  24  25
ENDBRANCH   1  24
TORSDOF 10
