REMARK  Name = ZINC02149682
REMARK  7 active torsions:
REMARK  status: ('A' for Active; 'I' for Inactive)
REMARK    1  A    between atoms: C_3  and  O_12
REMARK    2  A    between atoms: O_12  and  C_13
REMARK    3  A    between atoms: C_15  and  O_28
REMARK    4  A    between atoms: C_17  and  O_27
REMARK    5  A    between atoms: C_19  and  O_26
REMARK    6  A    between atoms: C_21  and  C_24
REMARK    7  A    between atoms: C_24  and  O_25
REMARK                            x       y       z     vdW  Elec       q    Type
REMARK                         _______ _______ _______ _____ _____    ______ ____
ROOT
ATOM      1  C   UNL     1      -2.389   1.245   0.020  0.00  0.00    +0.339 C 
ATOM      2  C   UNL     1      -3.612   2.135  -0.220  0.00  0.00    +0.214 C 
ATOM      3  C   UNL     1      -4.879   1.276  -0.157  0.00  0.00    +0.180 C 
ATOM      4  C   UNL     1      -4.934   0.565   1.198  0.00  0.00    +0.177 C 
ATOM      5  C   UNL     1      -3.661  -0.264   1.384  0.00  0.00    +0.179 C 
ATOM      6  O   UNL     1      -2.519   0.590   1.284  0.00  0.00    -0.331 OA
ENDROOT
BRANCH   4   7
ATOM      7  O   UNL     1      -5.030   1.536   2.243  0.00  0.00    -0.386 OA
ATOM      8  H   UNL     1      -5.813   2.100   2.185  0.00  0.00    +0.210 HD
ENDBRANCH   4   7
BRANCH   3   9
ATOM      9  O   UNL     1      -6.030   2.110  -0.307  0.00  0.00    -0.386 OA
ATOM     10  H   UNL     1      -6.056   2.596  -1.143  0.00  0.00    +0.210 HD
ENDBRANCH   3   9
BRANCH   2  11
ATOM     11  O   UNL     1      -3.513   2.746  -1.508  0.00  0.00    -0.383 OA
ATOM     12  H   UNL     1      -2.729   3.301  -1.620  0.00  0.00    +0.210 HD
ENDBRANCH   2  11
BRANCH   1  13
ATOM     13  O   UNL     1      -1.208   2.048   0.019  0.00  0.00    -0.461 OA
BRANCH  13  16
ATOM     14  C   UNL     1       1.178  -0.687  -0.013  0.00  0.00    +0.012 A 
ATOM     15  C   UNL     1       0.002  -0.004   0.002  0.00  0.00    +0.046 A 
ATOM     16  C   UNL     1      -0.017   1.394   0.010  0.00  0.00    +0.125 A 
ATOM     17  C   UNL     1       1.146   2.111   0.003  0.00  0.00    +0.054 A 
ATOM     18  C   UNL     1       2.377   1.435  -0.013  0.00  0.00    -0.014 A 
ATOM     19  C   UNL     1       2.394   0.018  -0.021  0.00  0.00    -0.017 A 
ATOM     20  C   UNL     1       3.627  -0.656  -0.038  0.00  0.00    +0.023 A 
ATOM     21  C   UNL     1       4.786   0.059  -0.045  0.00  0.00    +0.018 A 
ATOM     22  C   UNL     1       4.769   1.453  -0.037  0.00  0.00    +0.016 A 
ATOM     23  C   UNL     1       3.594   2.139  -0.021  0.00  0.00    +0.010 A 
ATOM     24 BR   UNL     1       6.442  -0.853  -0.068  0.00  0.00    -0.050 Br
ENDBRANCH  13  16
ENDBRANCH   1  13
BRANCH   5  25
ATOM     25  C   UNL     1      -3.681  -0.929   2.761  0.00  0.00    +0.190 C 
BRANCH  25  26
ATOM     26  O   UNL     1      -2.551  -1.794   2.889  0.00  0.00    -0.392 OA
ATOM     27  H   UNL     1      -2.499  -2.251   3.740  0.00  0.00    +0.210 HD
ENDBRANCH  25  26
ENDBRANCH   5  25
TORSDOF 7
