REMARK  Name = ZINC39228810
REMARK  9 active torsions:
REMARK  status: ('A' for Active; 'I' for Inactive)
REMARK    1  A    between atoms: C_1  and  O_2
REMARK    2  A    between atoms: O_2  and  C_3
REMARK    3  A    between atoms: C_6  and  O_35
REMARK    4  A    between atoms: C_7  and  C_9
REMARK    5  A    between atoms: N_23  and  C_24
REMARK    6  A    between atoms: C_24  and  C_25
REMARK    7  A    between atoms: C_28  and  S_31
REMARK    8  A    between atoms: S_31  and  C_34
REMARK    9  A    between atoms: O_35  and  C_36
REMARK                            x       y       z     vdW  Elec       q    Type
REMARK                         _______ _______ _______ _____ _____    ______ ____
ROOT
ATOM      1  C   UNL     1      -2.535  -4.173   0.016  0.00  0.00    +0.014 C 
ATOM      2  C   UNL     1      -2.783  -4.672   1.419  0.00  0.00    +0.011 A 
ATOM      3  H   UNL     1      -4.241  -3.402   2.193  0.00  0.00    +0.166 HD
ATOM      4  C   UNL     1      -2.130  -5.733   1.948  0.00  0.00    -0.022 A 
ATOM      5  C   UNL     1      -2.621  -5.910   3.296  0.00  0.00    +0.003 A 
ATOM      6  C   UNL     1      -2.318  -6.827   4.306  0.00  0.00    +0.010 A 
ATOM      7  C   UNL     1      -2.998  -6.694   5.492  0.00  0.00    +0.001 A 
ATOM      8  C   UNL     1      -3.942  -5.700   5.690  0.00  0.00    +0.002 A 
ATOM      9  C   UNL     1      -4.263  -4.779   4.708  0.00  0.00    +0.026 A 
ATOM     10  C   UNL     1      -3.588  -4.889   3.495  0.00  0.00    +0.047 A 
ATOM     11  N   UNL     1      -3.658  -4.163   2.340  0.00  0.00    -0.359 N 
ATOM     12  C   UNL     1      -1.096  -6.528   1.191  0.00  0.00    +0.019 C 
ATOM     13  C   UNL     1      -1.232  -6.177  -0.297  0.00  0.00    -0.072 C 
ATOM     14  N   UNL     1      -1.254  -4.717  -0.461  0.00  0.00    +0.391 N 
ATOM     15  H   UNL     1      -0.500  -4.311   0.072  0.00  0.00    -0.080 HD
ENDROOT
BRANCH   1  20
ATOM     16  C   UNL     1      -1.201  -0.638   0.010  0.00  0.00    +0.121 A 
ATOM     17  C   UNL     1      -2.374   0.102   0.020  0.00  0.00    +0.049 A 
ATOM     18  C   UNL     1      -3.596  -0.542   0.028  0.00  0.00    +0.049 A 
ATOM     19  C   UNL     1      -3.650  -1.928   0.027  0.00  0.00    +0.122 A 
ATOM     20  C   UNL     1      -2.477  -2.667   0.017  0.00  0.00    -0.010 A 
ATOM     21  C   UNL     1      -1.255  -2.023   0.003  0.00  0.00    +0.051 A 
BRANCH  16  23
ATOM     22  C   UNL     1      -0.017   1.425   0.010  0.00  0.00    +0.277 C 
ATOM     23  O   UNL     1       0.002  -0.004   0.002  0.00  0.00    -0.495 OA
ENDBRANCH  16  23
BRANCH  19  24
ATOM     24  O   UNL     1      -4.853  -2.562   0.036  0.00  0.00    -0.495 OA
ATOM     25  C   UNL     1      -6.021  -1.738   0.046  0.00  0.00    +0.277 C 
ENDBRANCH  19  24
ENDBRANCH   1  20
BRANCH  14  26
ATOM     26  C   UNL     1      -1.080  -4.379  -1.880  0.00  0.00    -0.042 C 
BRANCH  26  27
ATOM     27  C   UNL     1       0.284  -4.827  -2.339  0.00  0.00    -0.064 A 
ATOM     28  C   UNL     1       1.363  -3.970  -2.236  0.00  0.00    +0.003 A 
ATOM     29  C   UNL     1       2.615  -4.380  -2.657  0.00  0.00    +0.027 A 
ATOM     30  C   UNL     1       2.786  -5.648  -3.181  0.00  0.00    +0.088 A 
ATOM     31  C   UNL     1       1.706  -6.505  -3.284  0.00  0.00    +0.027 A 
ATOM     32  C   UNL     1       0.456  -6.096  -2.858  0.00  0.00    +0.003 A 
BRANCH  30  33
ATOM     33  S   UNL     1       4.380  -6.171  -3.719  0.00  0.00    -0.006 S 
ATOM     34  O   UNL     1       4.123  -7.162  -4.704  0.00  0.00    -0.170 OA
ATOM     35  O   UNL     1       5.060  -4.970  -4.059  0.00  0.00    -0.170 OA
ATOM     36  C   UNL     1       5.141  -6.927  -2.256  0.00  0.00    +0.200 C 
ENDBRANCH  30  33
ENDBRANCH  26  27
ENDBRANCH  14  26
TORSDOF 6
