REMARK  Name = ZINC04867901
REMARK  9 active torsions:
REMARK  status: ('A' for Active; 'I' for Inactive)
REMARK    1  A    between atoms: C_1  and  C_2
REMARK    2  A    between atoms: C_2  and  N_3
REMARK    3  A    between atoms: N_3  and  C_4
REMARK    4  A    between atoms: C_7  and  C_13
REMARK    5  A    between atoms: C_9  and  N_10
REMARK    6  A    between atoms: C_13  and  O_15
REMARK    7  A    between atoms: O_15  and  C_16
REMARK    8  A    between atoms: C_16  and  C_17
REMARK    9  A    between atoms: N_19  and  C_20
REMARK                            x       y       z     vdW  Elec       q    Type
REMARK                         _______ _______ _______ _____ _____    ______ ____
ROOT
ATOM      1  O   UNL     1       0.617  -6.897   1.261  0.00  0.00    -0.452 OA
ENDROOT
BRANCH   1   2
ATOM      2  C   UNL     1       1.213  -6.022   2.096  0.00  0.00    +0.340 C 
ATOM      3  O   UNL     1       1.839  -6.428   3.055  0.00  0.00    -0.245 OA
BRANCH   2   7
ATOM      4  C   UNL     1       0.902  -1.856   1.370  0.00  0.00    +0.058 A 
ATOM      5  C   UNL     1       0.288  -2.763   0.510  0.00  0.00    +0.026 A 
ATOM      6  C   UNL     1       0.387  -4.105   0.741  0.00  0.00    +0.017 A 
ATOM      7  C   UNL     1       1.106  -4.574   1.845  0.00  0.00    +0.061 A 
ATOM      8  C   UNL     1       1.724  -3.666   2.710  0.00  0.00    +0.049 A 
ATOM      9  C   UNL     1       1.625  -2.314   2.468  0.00  0.00    +0.148 A 
BRANCH   9  10
ATOM     10  N   UNL     1       2.282  -1.348   3.377  0.00  0.00    +0.058 N 
ATOM     11  O   UNL     1       3.369  -1.609   3.861  0.00  0.00    -0.126 OA
ATOM     12  O   UNL     1       1.735  -0.293   3.643  0.00  0.00    -0.126 OA
ENDBRANCH   9  10
BRANCH   4  13
ATOM     13  N   UNL     1       0.798  -0.491   1.128  0.00  0.00    -0.342 N 
ATOM     14  H   UNL     1       1.295   0.137   1.675  0.00  0.00    +0.146 HD
BRANCH  13  16
ATOM     15  C   UNL     1       0.003   1.526  -0.004  0.00  0.00    +0.024 C 
ATOM     16  C   UNL     1      -0.062  -0.002   0.048  0.00  0.00    +0.098 C 
ENDBRANCH  13  16
ENDBRANCH   4  13
ENDBRANCH   2   7
ENDBRANCH   1   2
BRANCH   1  17
ATOM     17  C   UNL     1       0.764  -8.308   1.570  0.00  0.00    +0.328 C 
BRANCH  17  18
ATOM     18  C   UNL     1       0.036  -9.127   0.535  0.00  0.00    +0.251 C 
ATOM     19  O   UNL     1      -0.549  -8.575  -0.372  0.00  0.00    -0.272 OA
ATOM     20  N   UNL     1       0.035 -10.472   0.619  0.00  0.00    -0.307 N 
ATOM     21  H   UNL     1       0.503 -10.913   1.345  0.00  0.00    +0.149 HD
BRANCH  20  22
ATOM     22  C   UNL     1      -0.673 -11.268  -0.386  0.00  0.00    +0.035 C 
ATOM     23  C   UNL     1      -2.157 -10.896  -0.379  0.00  0.00    +0.029 C 
ATOM     24  C   UNL     1      -2.896 -11.728  -1.429  0.00  0.00    -0.008 C 
ATOM     25  C   UNL     1      -2.741 -13.215  -1.104  0.00  0.00    +0.007 C 
ATOM     26  C   UNL     1      -1.257 -13.587  -1.111  0.00  0.00    -0.008 C 
ATOM     27  C   UNL     1      -0.518 -12.755  -0.061  0.00  0.00    +0.029 C 
ATOM     28  C   UNL     1      -0.667 -13.303  -2.494  0.00  0.00    +0.007 C 
ATOM     29  C   UNL     1      -0.822 -11.816  -2.820  0.00  0.00    -0.008 C 
ATOM     30  C   UNL     1      -2.306 -11.444  -2.812  0.00  0.00    +0.007 C 
ATOM     31  C   UNL     1      -0.083 -10.984  -1.769  0.00  0.00    +0.029 C 
ENDBRANCH  20  22
ENDBRANCH  17  18
ENDBRANCH   1  17
TORSDOF 8
