REMARK  Name = ZINC35226683
REMARK  11 active torsions:
REMARK  status: ('A' for Active; 'I' for Inactive)
REMARK    1  A    between atoms: C_1  and  C_2
REMARK    2  A    between atoms: C_2  and  C_3
REMARK    3  A    between atoms: C_2  and  C_4
REMARK    4  A    between atoms: C_2  and  N_5
REMARK    5  A    between atoms: N_5  and  C_6
REMARK    6  A    between atoms: N_5  and  C_14
REMARK    7  A    between atoms: C_6  and  C_7
REMARK    8  A    between atoms: C_14  and  C_15
REMARK    9  A    between atoms: C_18  and  C_20
REMARK   10  A    between atoms: N_25  and  C_28
REMARK   11  A    between atoms: C_31  and  N_34
REMARK                            x       y       z     vdW  Elec       q    Type
REMARK                         _______ _______ _______ _____ _____    ______ ____
ROOT
ATOM      1  C   UNL     1      -1.683  -0.823  -3.540  0.00  0.00    +0.090 A 
ATOM      2  C   UNL     1      -2.781  -0.069  -3.315  0.00  0.00    +0.043 A 
ATOM      3  C   UNL     1      -3.897  -0.900  -3.502  0.00  0.00    +0.055 A 
ATOM      4  C   UNL     1      -3.417  -2.134  -3.836  0.00  0.00    +0.190 A 
ATOM      5  O   UNL     1      -2.069  -2.065  -3.858  0.00  0.00    -0.457 OA
ENDROOT
BRANCH   4   6
ATOM      6  C   UNL     1      -4.223  -3.324  -4.124  0.00  0.00    +0.282 C 
ATOM      7  O   UNL     1      -5.425  -3.220  -4.283  0.00  0.00    -0.267 OA
ATOM      8  N   UNL     1      -3.634  -4.532  -4.212  0.00  0.00    -0.292 N 
ATOM      9  C   UNL     1      -2.203  -4.690  -3.916  0.00  0.00    +0.127 C 
ATOM     10  C   UNL     1      -2.042  -5.764  -2.833  0.00  0.00    +0.124 C 
ATOM     11  N   UNL     1      -2.818  -6.948  -3.227  0.00  0.00    -0.327 N 
ATOM     12  C   UNL     1      -4.249  -6.791  -3.523  0.00  0.00    +0.124 C 
ATOM     13  C   UNL     1      -4.411  -5.718  -4.601  0.00  0.00    +0.127 C 
BRANCH  11  14
ATOM     14  C   UNL     1      -2.207  -8.201  -3.319  0.00  0.00    +0.030 A 
ATOM     15  C   UNL     1      -0.905  -8.375  -2.868  0.00  0.00    +0.025 A 
ATOM     16  C   UNL     1      -0.304  -9.615  -2.959  0.00  0.00    +0.034 A 
ATOM     17  C   UNL     1      -0.997 -10.682  -3.500  0.00  0.00    +0.126 A 
ATOM     18  C   UNL     1      -2.293 -10.513  -3.950  0.00  0.00    +0.034 A 
ATOM     19  C   UNL     1      -2.902  -9.277  -3.857  0.00  0.00    +0.025 A 
BRANCH  17  20
ATOM     20  N   UNL     1      -0.349 -12.010  -3.597  0.00  0.00    +0.056 N 
ATOM     21  O   UNL     1       0.785 -12.159  -3.204  0.00  0.00    -0.126 OA
ATOM     22  O   UNL     1      -0.953 -12.944  -4.069  0.00  0.00    -0.126 OA
ENDBRANCH  17  20
ENDBRANCH  11  14
ENDBRANCH   4   6
BRANCH   1  23
ATOM     23  C   UNL     1      -0.257  -0.343  -3.453  0.00  0.00    -0.002 C 
BRANCH  23  24
ATOM     24  N   UNL     1       0.570  -1.377  -2.817  0.00  0.00    +0.390 N 
ATOM     25  H   UNL     1       0.410  -2.263  -3.273  0.00  0.00    -0.080 HD
BRANCH  24  27
ATOM     26  C   UNL     1       1.050  -0.498  -0.583  0.00  0.00    -0.010 C 
ATOM     27  C   UNL     1       0.212  -1.486  -1.397  0.00  0.00    -0.073 C 
ATOM     28  C   UNL     1       0.487  -2.910  -0.909  0.00  0.00    -0.010 C 
ATOM     29  C   UNL     1      -1.272  -1.164  -1.219  0.00  0.00    -0.010 C 
ENDBRANCH  24  27
BRANCH  24  30
ATOM     30  C   UNL     1       1.988  -1.014  -2.938  0.00  0.00    -0.042 C 
BRANCH  30  31
ATOM     31  C   UNL     1       2.842  -2.229  -2.686  0.00  0.00    -0.064 A 
ATOM     32  C   UNL     1       3.298  -2.500  -1.409  0.00  0.00    +0.004 A 
ATOM     33  C   UNL     1       4.081  -3.615  -1.177  0.00  0.00    +0.038 A 
ATOM     34  C   UNL     1       4.408  -4.461  -2.223  0.00  0.00    +0.123 A 
ATOM     35  C   UNL     1       3.951  -4.189  -3.501  0.00  0.00    +0.038 A 
ATOM     36  C   UNL     1       3.164  -3.076  -3.730  0.00  0.00    +0.004 A 
ATOM     37  F   UNL     1       5.174  -5.551  -1.996  0.00  0.00    -0.205 F 
ENDBRANCH  30  31
ENDBRANCH  24  30
ENDBRANCH  23  24
ENDBRANCH   1  23
TORSDOF 8
