REMARK  Name = ZINC35191179
REMARK  18 active torsions:
REMARK  status: ('A' for Active; 'I' for Inactive)
REMARK    1  A    between atoms: C_1  and  C_2
REMARK    2  A    between atoms: C_2  and  C_3
REMARK    3  A    between atoms: C_3  and  C_4
REMARK    4  A    between atoms: C_4  and  C_5
REMARK    5  A    between atoms: C_8  and  C_11
REMARK    6  A    between atoms: C_11  and  O_13
REMARK    7  A    between atoms: O_13  and  C_14
REMARK    8  A    between atoms: C_18  and  C_20
REMARK    9  A    between atoms: C_21  and  N_30
REMARK   10  A    between atoms: C_26  and  C_29
REMARK   11  A    between atoms: N_30  and  C_31
REMARK   12  A    between atoms: C_31  and  C_32
REMARK   13  A    between atoms: C_31  and  C_33
REMARK   14  A    between atoms: C_31  and  C_34
REMARK   15  A    between atoms: C_34  and  C_35
REMARK   16  A    between atoms: C_35  and  C_36
REMARK   17  A    between atoms: C_35  and  C_37
REMARK   18  A    between atoms: C_35  and  C_38
REMARK                            x       y       z     vdW  Elec       q    Type
REMARK                         _______ _______ _______ _____ _____    ______ ____
ROOT
ATOM      1  C   UNL     1      11.822  -9.120  -9.287  0.00  0.00    +0.087 A 
ATOM      2  C   UNL     1      10.802  -9.065 -10.213  0.00  0.00    +0.129 A 
ATOM      3  N   UNL     1      11.333  -9.454 -11.412  0.00  0.00    -0.289 N 
ATOM      4  C   UNL     1      10.790  -9.586 -12.662  0.00  0.00    +0.094 A 
ATOM      5  C   UNL     1      11.547  -9.997 -13.698  0.00  0.00    +0.018 A 
ATOM      6  C   UNL     1      12.909 -10.296 -13.510  0.00  0.00    +0.008 A 
ATOM      7  C   UNL     1      13.464 -10.170 -12.276  0.00  0.00    -0.009 A 
ATOM      8  C   UNL     1      12.663  -9.739 -11.197  0.00  0.00    +0.120 A 
ATOM      9  N   UNL     1      12.938  -9.528  -9.920  0.00  0.00    -0.338 N 
ATOM     10  C   UNL     1      14.921 -10.487 -12.062  0.00  0.00    +0.047 C 
ATOM     11  H   UNL     1      13.806  -9.651  -9.505  0.00  0.00    +0.167 HD
ENDROOT
BRANCH   1  16
ATOM     12  C   UNL     1      12.180  -9.294  -5.547  0.00  0.00    +0.133 A 
ATOM     13  C   UNL     1      11.500  -8.148  -5.159  0.00  0.00    +0.046 A 
ATOM     14  C   UNL     1      10.928  -7.323  -6.109  0.00  0.00    +0.004 A 
ATOM     15  C   UNL     1      11.030  -7.634  -7.450  0.00  0.00    +0.010 A 
ATOM     16  C   UNL     1      11.712  -8.783  -7.849  0.00  0.00    +0.005 A 
ATOM     17  C   UNL     1      12.293  -9.612  -6.890  0.00  0.00    +0.056 A 
BRANCH  12  18
ATOM     18  O   UNL     1      12.741 -10.102  -4.609  0.00  0.00    -0.422 OA
BRANCH  18  19
ATOM     19  C   UNL     1      11.927 -10.902  -3.894  0.00  0.00    +0.344 C 
ATOM     20  O   UNL     1      10.722 -10.823  -4.034  0.00  0.00    -0.245 OA
BRANCH  19  24
ATOM     21  C   UNL     1      13.568 -13.703  -1.157  0.00  0.00    -0.047 A 
ATOM     22  C   UNL     1      12.195 -13.615  -1.312  0.00  0.00    +0.004 A 
ATOM     23  C   UNL     1      11.656 -12.708  -2.200  0.00  0.00    +0.015 A 
ATOM     24  C   UNL     1      12.497 -11.877  -2.942  0.00  0.00    +0.059 A 
ATOM     25  C   UNL     1      13.881 -11.970  -2.780  0.00  0.00    +0.015 A 
ATOM     26  C   UNL     1      14.407 -12.879  -1.884  0.00  0.00    +0.004 A 
BRANCH  21  27
ATOM     27  C   UNL     1      14.150 -14.697  -0.185  0.00  0.00    +0.035 C 
BRANCH  27  28
ATOM     28  C   UNL     1      14.285 -14.045   1.192  0.00  0.00    +0.004 C 
BRANCH  28  30
ATOM     29  C   UNL     1      15.012 -14.402   3.556  0.00  0.00    +0.004 C 
ATOM     30  C   UNL     1      14.877 -15.054   2.179  0.00  0.00    -0.003 C 
ENDBRANCH  28  30
ENDBRANCH  27  28
ENDBRANCH  21  27
ENDBRANCH  19  24
ENDBRANCH  18  19
ENDBRANCH  12  18
ENDBRANCH   1  16
BRANCH   2  31
ATOM     31  N   UNL     1       9.481  -8.685  -9.974  0.00  0.00    -0.323 N 
ATOM     32  H   UNL     1       9.182  -8.515  -9.067  0.00  0.00    +0.148 HD
BRANCH  31  33
ATOM     33  C   UNL     1       8.545  -8.543 -11.092  0.00  0.00    +0.028 C 
ATOM     34  C   UNL     1       9.144  -7.606 -12.142  0.00  0.00    +0.031 C 
ATOM     35  C   UNL     1       8.289  -9.915 -11.720  0.00  0.00    +0.031 C 
BRANCH  33  36
ATOM     36  C   UNL     1       7.225  -7.961 -10.582  0.00  0.00    +0.031 C 
BRANCH  36  37
ATOM     37  C   UNL     1       6.922  -8.527  -9.193  0.00  0.00    -0.036 C 
ATOM     38  C   UNL     1       7.788  -7.814  -8.152  0.00  0.00    +0.010 C 
ATOM     39  C   UNL     1       5.444  -8.306  -8.864  0.00  0.00    +0.010 C 
ATOM     40  C   UNL     1       7.231 -10.025  -9.173  0.00  0.00    +0.010 C 
ENDBRANCH  36  37
ENDBRANCH  33  36
ENDBRANCH  31  33
ENDBRANCH   2  31
TORSDOF 11
