REMARK  Name = ZINC38705875
REMARK  13 active torsions:
REMARK  status: ('A' for Active; 'I' for Inactive)
REMARK    1  A    between atoms: C_1  and  C_2
REMARK    2  A    between atoms: C_2  and  O_3
REMARK    3  A    between atoms: O_3  and  C_4
REMARK    4  A    between atoms: C_6  and  C_14
REMARK    5  A    between atoms: C_9  and  O_10
REMARK    6  A    between atoms: O_10  and  C_11
REMARK    7  A    between atoms: C_11  and  C_12
REMARK    8  A    between atoms: C_17  and  C_32
REMARK    9  A    between atoms: N_24  and  C_25
REMARK   10  A    between atoms: C_25  and  C_26
REMARK   11  A    between atoms: C_33  and  C_40
REMARK   12  A    between atoms: C_35  and  C_39
REMARK   13  A    between atoms: C_37  and  O_38
REMARK                            x       y       z     vdW  Elec       q    Type
REMARK                         _______ _______ _______ _____ _____    ______ ____
ROOT
ATOM      1  C   UNL     1       0.683  -4.955  -0.014  0.00  0.00    +0.141 C 
ATOM      2  C   UNL     1       0.822  -5.595  -1.368  0.00  0.00    +0.035 A 
ATOM      3  C   UNL     1       1.008  -5.418  -2.743  0.00  0.00    +0.102 A 
ATOM      4  N   UNL     1       1.015  -6.614  -3.298  0.00  0.00    -0.173 NA
ATOM      5  N   UNL     1       0.853  -7.529  -2.410  0.00  0.00    -0.272 N 
ATOM      6  H   UNL     1       0.826  -8.481  -2.590  0.00  0.00    +0.189 HD
ATOM      7  C   UNL     1       0.725  -6.960  -1.174  0.00  0.00    +0.126 A 
ATOM      8  C   UNL     1       0.529  -7.215   0.257  0.00  0.00    +0.266 C 
ATOM      9  O   UNL     1       0.406  -8.318   0.755  0.00  0.00    -0.268 OA
ATOM     10  N   UNL     1       0.504  -6.056   0.942  0.00  0.00    -0.283 N 
ENDROOT
BRANCH   3  11
ATOM     11  C   UNL     1       1.166  -4.121  -3.448  0.00  0.00    +0.047 A 
ATOM     12  C   UNL     1       0.399  -3.840  -4.576  0.00  0.00    -0.037 A 
ATOM     13  C   UNL     1       0.550  -2.633  -5.228  0.00  0.00    +0.007 A 
ATOM     14  C   UNL     1       1.461  -1.700  -4.766  0.00  0.00    -0.047 A 
ATOM     15  C   UNL     1       2.228  -1.970  -3.648  0.00  0.00    +0.049 A 
ATOM     16  C   UNL     1       2.082  -3.175  -2.980  0.00  0.00    +0.127 A 
ATOM     17  C   UNL     1       1.619  -0.385  -5.484  0.00  0.00    +0.044 C 
ATOM     18  C   UNL     1      -0.595  -4.853  -5.084  0.00  0.00    +0.044 C 
BRANCH  16  19
ATOM     19  O   UNL     1       2.830  -3.438  -1.877  0.00  0.00    -0.506 OA
ATOM     20  H   UNL     1       3.706  -3.799  -2.072  0.00  0.00    +0.292 HD
ENDBRANCH  16  19
ENDBRANCH   3  11
BRANCH   1  23
ATOM     21  C   UNL     1      -1.452  -1.842   0.137  0.00  0.00    +0.162 A 
ATOM     22  C   UNL     1      -0.348  -2.679   0.116  0.00  0.00    +0.055 A 
ATOM     23  C   UNL     1      -0.519  -4.046   0.009  0.00  0.00    -0.019 A 
ATOM     24  C   UNL     1      -1.790  -4.583  -0.077  0.00  0.00    +0.009 A 
ATOM     25  C   UNL     1      -2.896  -3.753  -0.057  0.00  0.00    +0.050 A 
ATOM     26  C   UNL     1      -2.732  -2.382   0.056  0.00  0.00    +0.162 A 
BRANCH  21  27
ATOM     27  O   UNL     1      -1.286  -0.496   0.243  0.00  0.00    -0.489 OA
BRANCH  27  29
ATOM     28  C   UNL     1       0.043   1.513   0.435  0.00  0.00    +0.048 C 
ATOM     29  C   UNL     1       0.057  -0.013   0.321  0.00  0.00    +0.226 C 
ENDBRANCH  27  29
ENDBRANCH  21  27
BRANCH  26  30
ATOM     30  O   UNL     1      -3.819  -1.566   0.083  0.00  0.00    -0.484 OA
BRANCH  30  31
ATOM     31  C   UNL     1      -5.102  -2.190  -0.005  0.00  0.00    +0.256 C 
BRANCH  31  32
ATOM     32  C   UNL     1      -6.178  -1.136   0.040  0.00  0.00    +0.006 C 
ATOM     33  C   UNL     1      -7.181  -1.188  -0.801  0.00  0.00    +0.007 C 
ENDBRANCH  31  32
ENDBRANCH  30  31
ENDBRANCH  26  30
ENDBRANCH   1  23
BRANCH  10  34
ATOM     34  C   UNL     1       0.327  -5.915   2.389  0.00  0.00    +0.140 C 
BRANCH  34  35
ATOM     35  C   UNL     1      -1.163  -5.791   2.711  0.00  0.00    +0.136 C 
ATOM     36  C   UNL     1      -1.352  -5.521   4.220  0.00  0.00    +0.035 C 
ATOM     37  C   UNL     1      -2.603  -6.379   4.553  0.00  0.00    +0.031 C 
ATOM     38  C   UNL     1      -2.399  -7.582   3.598  0.00  0.00    +0.160 C 
ATOM     39  O   UNL     1      -1.832  -7.019   2.402  0.00  0.00    -0.375 OA
ENDBRANCH  34  35
ENDBRANCH  10  34
TORSDOF 10
