REMARK  Name = ZINC03097424
REMARK  9 active torsions:
REMARK  status: ('A' for Active; 'I' for Inactive)
REMARK    1  A    between atoms: C_1  and  O_2
REMARK    2  A    between atoms: O_2  and  C_3
REMARK    3  A    between atoms: C_6  and  C_9
REMARK    4  A    between atoms: C_9  and  O_11
REMARK    5  A    between atoms: O_11  and  C_12
REMARK    6  A    between atoms: C_15  and  C_18
REMARK    7  A    between atoms: N_19  and  N_20
REMARK    8  A    between atoms: C_21  and  C_23
REMARK    9  A    between atoms: C_26  and  O_29
REMARK                            x       y       z     vdW  Elec       q    Type
REMARK                         _______ _______ _______ _____ _____    ______ ____
ROOT
ATOM      1  C   UNL     1       3.670  -9.089  -0.085  0.00  0.00    +0.132 A 
ATOM      2  C   UNL     1       4.865  -8.390  -0.190  0.00  0.00    +0.047 A 
ATOM      3  C   UNL     1       4.862  -7.012  -0.191  0.00  0.00    +0.013 A 
ATOM      4  C   UNL     1       3.653  -6.318  -0.086  0.00  0.00    -0.005 A 
ATOM      5  C   UNL     1       2.454  -7.026   0.024  0.00  0.00    +0.013 A 
ATOM      6  C   UNL     1       2.466  -8.404   0.019  0.00  0.00    +0.047 A 
ENDROOT
BRANCH   4   7
ATOM      7  C   UNL     1       3.645  -4.844  -0.086  0.00  0.00    +0.138 C 
ATOM      8  N   UNL     1       2.521  -4.202   0.011  0.00  0.00    -0.187 NA
BRANCH   8   9
ATOM      9  N   UNL     1       2.513  -2.800   0.011  0.00  0.00    -0.203 N 
ATOM     10  C   UNL     1       1.346  -2.134   0.112  0.00  0.00    +0.263 C 
ATOM     11  O   UNL     1       0.300  -2.748   0.203  0.00  0.00    -0.268 OA
ATOM     12  H   UNL     1       3.347  -2.311  -0.062  0.00  0.00    +0.178 HD
BRANCH  10  13
ATOM     13  C   UNL     1       1.337  -0.658   0.112  0.00  0.00    +0.039 A 
ATOM     14  C   UNL     1       0.128   0.036   0.216  0.00  0.00    +0.016 A 
ATOM     15  C   UNL     1       0.125   1.413   0.216  0.00  0.00    +0.046 A 
ATOM     16  C   UNL     1       1.321   2.113   0.112  0.00  0.00    +0.117 A 
ATOM     17  C   UNL     1       2.525   1.427   0.008  0.00  0.00    +0.046 A 
ATOM     18  C   UNL     1       2.538   0.050   0.007  0.00  0.00    +0.016 A 
BRANCH  16  19
ATOM     19  O   UNL     1       1.313   3.470   0.112  0.00  0.00    -0.507 OA
ATOM     20  H   UNL     1       1.387   3.864   0.992  0.00  0.00    +0.292 HD
ENDBRANCH  16  19
ENDBRANCH  10  13
ENDBRANCH   8   9
ENDBRANCH   4   7
BRANCH   1  21
ATOM     21  O   UNL     1       3.678 -10.448  -0.085  0.00  0.00    -0.422 OA
BRANCH  21  22
ATOM     22  C   UNL     1       4.206 -11.056   0.995  0.00  0.00    +0.344 C 
ATOM     23  O   UNL     1       4.551 -10.397   1.956  0.00  0.00    -0.245 OA
BRANCH  22  27
ATOM     24  C   UNL     1       4.664 -15.277   1.043  0.00  0.00    +0.120 A 
ATOM     25  C   UNL     1       5.060 -14.524   2.143  0.00  0.00    +0.046 A 
ATOM     26  C   UNL     1       4.913 -13.155   2.131  0.00  0.00    +0.018 A 
ATOM     27  C   UNL     1       4.365 -12.522   1.012  0.00  0.00    +0.060 A 
ATOM     28  C   UNL     1       3.964 -13.283  -0.090  0.00  0.00    +0.018 A 
ATOM     29  C   UNL     1       4.119 -14.651  -0.072  0.00  0.00    +0.046 A 
BRANCH  24  31
ATOM     30  C   UNL     1       4.383 -17.338  -0.104  0.00  0.00    +0.277 C 
ATOM     31  O   UNL     1       4.810 -16.625   1.058  0.00  0.00    -0.495 OA
ENDBRANCH  24  31
ENDBRANCH  22  27
ENDBRANCH  21  22
ENDBRANCH   1  21
TORSDOF 8
