REMARK  Name = ZINC39481468
REMARK  11 active torsions:
REMARK  status: ('A' for Active; 'I' for Inactive)
REMARK    1  A    between atoms: C_1  and  C_2
REMARK    2  A    between atoms: C_2  and  C_3
REMARK    3  A    between atoms: C_3  and  C_4
REMARK    4  A    between atoms: C_7  and  N_27
REMARK    5  A    between atoms: C_8  and  N_10
REMARK    6  A    between atoms: C_14  and  S_17
REMARK    7  A    between atoms: S_17  and  O_20
REMARK    8  A    between atoms: O_20  and  C_21
REMARK    9  A    between atoms: N_27  and  S_28
REMARK   10  A    between atoms: S_28  and  C_31
REMARK   11  A    between atoms: C_31  and  C_32
REMARK                            x       y       z     vdW  Elec       q    Type
REMARK                         _______ _______ _______ _____ _____    ______ ____
ROOT
ATOM      1  C   UNL     1       0.193  -2.060  -0.977  0.00  0.00    -0.046 A 
ATOM      2  C   UNL     1       1.331  -2.633  -0.440  0.00  0.00    +0.005 A 
ATOM      3  C   UNL     1       1.537  -3.997  -0.540  0.00  0.00    +0.026 A 
ATOM      4  C   UNL     1       0.600  -4.794  -1.179  0.00  0.00    +0.069 A 
ATOM      5  C   UNL     1      -0.549  -4.217  -1.720  0.00  0.00    +0.053 A 
ATOM      6  C   UNL     1      -0.749  -2.849  -1.611  0.00  0.00    +0.028 A 
ENDROOT
BRANCH   5   7
ATOM      7  N   UNL     1      -1.499  -5.016  -2.367  0.00  0.00    -0.330 N 
ATOM      8  C   UNL     1      -2.617  -5.615  -1.622  0.00  0.00    +0.086 C 
ATOM      9  C   UNL     1      -3.920  -5.295  -2.362  0.00  0.00    -0.061 C 
ATOM     10  N   UNL     1      -3.812  -5.743  -3.756  0.00  0.00    +0.398 N 
ATOM     11  C   UNL     1      -2.767  -4.978  -4.448  0.00  0.00    +0.133 C 
ATOM     12  C   UNL     1      -1.410  -5.277  -3.812  0.00  0.00    +0.115 C 
ATOM     13  H   UNL     1      -3.578  -6.724  -3.776  0.00  0.00    -0.083 HD
ATOM     14  H   UNL     1      -4.695  -5.601  -4.223  0.00  0.00    -0.083 HD
BRANCH  11  15
ATOM     15  S   UNL     1      -2.733  -5.447  -6.200  0.00  0.00    +0.109 S 
ATOM     16  O   UNL     1      -1.853  -4.593  -6.918  0.00  0.00    -0.138 OA
ATOM     17  O   UNL     1      -2.635  -6.859  -6.327  0.00  0.00    -0.138 OA
BRANCH  15  18
ATOM     18  O   UNL     1      -4.120  -5.105  -6.723  0.00  0.00    -0.347 OA
BRANCH  18  19
ATOM     19  C   UNL     1      -4.329  -3.775  -6.909  0.00  0.00    +0.156 A 
ATOM     20  C   UNL     1      -4.832  -2.999  -5.875  0.00  0.00    +0.048 A 
ATOM     21  C   UNL     1      -5.043  -1.648  -6.066  0.00  0.00    +0.004 A 
ATOM     22  C   UNL     1      -4.753  -1.067  -7.287  0.00  0.00    +0.000 A 
ATOM     23  C   UNL     1      -4.251  -1.838  -8.320  0.00  0.00    +0.004 A 
ATOM     24  C   UNL     1      -4.033  -3.189  -8.132  0.00  0.00    +0.048 A 
ENDBRANCH  18  19
ENDBRANCH  15  18
ENDBRANCH  11  15
ENDBRANCH   5   7
BRANCH   4  25
ATOM     25  N   UNL     1       0.806  -6.175  -1.282  0.00  0.00    -0.219 N 
ATOM     26  H   UNL     1       0.518  -6.651  -2.076  0.00  0.00    +0.173 HD
BRANCH  25  27
ATOM     27  S   UNL     1       1.544  -6.996  -0.047  0.00  0.00    +0.047 S 
ATOM     28  O   UNL     1       1.505  -8.360  -0.444  0.00  0.00    -0.155 OA
ATOM     29  O   UNL     1       2.786  -6.331   0.140  0.00  0.00    -0.155 OA
BRANCH  27  30
ATOM     30  C   UNL     1       0.472  -6.734   1.393  0.00  0.00    +0.223 C 
BRANCH  30  31
ATOM     31  C   UNL     1       1.053  -7.444   2.588  0.00  0.00    -0.025 A 
ATOM     32  C   UNL     1       0.703  -8.756   2.850  0.00  0.00    +0.005 A 
ATOM     33  C   UNL     1       1.236  -9.408   3.946  0.00  0.00    +0.000 A 
ATOM     34  C   UNL     1       2.119  -8.749   4.780  0.00  0.00    +0.000 A 
ATOM     35  C   UNL     1       2.470  -7.438   4.518  0.00  0.00    +0.000 A 
ATOM     36  C   UNL     1       1.940  -6.787   3.419  0.00  0.00    +0.005 A 
ENDBRANCH  30  31
ENDBRANCH  27  30
ENDBRANCH  25  27
ENDBRANCH   4  25
BRANCH   1  37
ATOM     37  C   UNL     1      -0.025  -0.574  -0.864  0.00  0.00    +0.035 C 
BRANCH  37  39
ATOM     38  C   UNL     1      -1.002   1.244   0.544  0.00  0.00    +0.004 C 
ATOM     39  C   UNL     1      -0.781  -0.265   0.430  0.00  0.00    +0.001 C 
ENDBRANCH  37  39
ENDBRANCH   1  37
TORSDOF 10
