REMARK  Name = ZINC03288787
REMARK  7 active torsions:
REMARK  status: ('A' for Active; 'I' for Inactive)
REMARK    1  A    between atoms: C_1  and  C_2
REMARK    2  A    between atoms: C_3  and  C_12
REMARK    3  A    between atoms: C_12  and  C_14
REMARK    4  A    between atoms: C_14  and  N_15
REMARK    5  A    between atoms: C_20  and  C_27
REMARK    6  A    between atoms: C_23  and  C_25
REMARK    7  A    between atoms: C_23  and  C_26
REMARK                            x       y       z     vdW  Elec       q    Type
REMARK                         _______ _______ _______ _____ _____    ______ ____
ROOT
ATOM      1  N   UNL     1      -0.140   0.403  -4.658  0.00  0.00    -0.217 N 
ATOM      2  C   UNL     1       0.891   0.410  -5.528  0.00  0.00    +0.247 C 
ATOM      3  O   UNL     1       2.058   0.188  -5.286  0.00  0.00    -0.273 OA
ATOM      4  C   UNL     1       0.284   0.753  -6.870  0.00  0.00    +0.113 C 
ATOM      5  C   UNL     1       0.504  -0.386  -7.859  0.00  0.00    +0.038 C 
ATOM      6  C   UNL     1      -0.143  -0.032  -9.200  0.00  0.00    -0.011 C 
ATOM      7  C   UNL     1       0.474   1.260  -9.738  0.00  0.00    +0.009 C 
ATOM      8  C   UNL     1       0.224   2.398  -8.746  0.00  0.00    -0.032 C 
ATOM      9  C   UNL     1       0.874   2.054  -7.403  0.00  0.00    +0.041 C 
ATOM     10  C   UNL     1      -1.282   2.584  -8.552  0.00  0.00    +0.011 C 
ATOM     11  C   UNL     1       0.833   3.692  -9.290  0.00  0.00    +0.011 C 
ATOM     12  C   UNL     1       0.097  -1.166 -10.198  0.00  0.00    +0.007 C 
ATOM     13  N   UNL     1      -1.147   0.916  -6.583  0.00  0.00    -0.285 N 
ATOM     14  C   UNL     1      -1.299   0.687  -5.264  0.00  0.00    +0.310 C 
ATOM     15  O   UNL     1      -2.369   0.735  -4.689  0.00  0.00    -0.252 OA
ATOM     16  H   UNL     1      -1.845   1.140  -7.218  0.00  0.00    +0.151 HD
ENDROOT
BRANCH   1  17
ATOM     17  C   UNL     1      -0.008   0.116  -3.227  0.00  0.00    +0.197 C 
BRANCH  17  18
ATOM     18  C   UNL     1      -0.165  -1.365  -2.996  0.00  0.00    +0.183 C 
ATOM     19  O   UNL     1      -0.272  -2.119  -3.942  0.00  0.00    -0.290 OA
BRANCH  18  22
ATOM     20  C   UNL     1      -2.729  -1.921  -1.345  0.00  0.00    +0.064 C 
ATOM     21  C   UNL     1      -1.303  -2.139  -0.908  0.00  0.00    +0.024 A 
ATOM     22  C   UNL     1      -0.188  -1.878  -1.675  0.00  0.00    +0.047 A 
ATOM     23  C   UNL     1       0.977  -2.240  -0.844  0.00  0.00    +0.010 A 
ATOM     24  C   UNL     1       2.354  -2.209  -1.044  0.00  0.00    +0.011 A 
ATOM     25  C   UNL     1       3.199  -2.628  -0.040  0.00  0.00    +0.001 A 
ATOM     26  C   UNL     1       2.682  -3.080   1.166  0.00  0.00    +0.002 A 
ATOM     27  C   UNL     1       1.321  -3.116   1.376  0.00  0.00    +0.026 A 
ATOM     28  C   UNL     1       0.451  -2.697   0.374  0.00  0.00    +0.047 A 
ATOM     29  N   UNL     1      -0.924  -2.613   0.294  0.00  0.00    -0.358 N 
ATOM     30  H   UNL     1      -1.534  -2.864   1.006  0.00  0.00    +0.166 HD
ENDBRANCH  18  22
ENDBRANCH  17  18
ENDBRANCH   1  17
TORSDOF 3
