REMARK  Name = ZINC13032138
REMARK  12 active torsions:
REMARK  status: ('A' for Active; 'I' for Inactive)
REMARK    1  A    between atoms: C_1  and  O_2
REMARK    2  A    between atoms: O_2  and  C_3
REMARK    3  A    between atoms: C_3  and  C_4
REMARK    4  A    between atoms: C_4  and  C_5
REMARK    5  A    between atoms: C_5  and  N_6
REMARK    6  A    between atoms: N_6  and  C_7
REMARK    7  A    between atoms: C_8  and  N_23
REMARK    8  A    between atoms: N_9  and  C_16
REMARK    9  A    between atoms: C_16  and  C_17
REMARK   10  A    between atoms: C_24  and  C_26
REMARK   11  A    between atoms: C_26  and  N_66
REMARK   12  A    between atoms: C_30  and  C_32
REMARK                            x       y       z     vdW  Elec       q    Type
REMARK                         _______ _______ _______ _____ _____    ______ ____
ROOT
ATOM      1  N   UNL     1       0.693   1.833   2.704  0.00  0.00    -0.266 N 
ATOM      2  C   UNL     1      -0.033   1.971   1.575  0.00  0.00    +0.203 C 
ATOM      3  O   UNL     1      -1.036   2.653   1.578  0.00  0.00    -0.277 OA
ENDROOT
BRANCH   1   4
ATOM      4  C   UNL     1       0.230   2.395   3.913  0.00  0.00    +0.140 A 
ATOM      5  C   UNL     1       0.130   3.764   4.057  0.00  0.00    +0.128 A 
ATOM      6  N   UNL     1      -0.325   4.282   5.247  0.00  0.00    -0.276 N 
ATOM      7  C   UNL     1      -0.667   3.465   6.259  0.00  0.00    +0.331 A 
ATOM      8  O   UNL     1      -1.067   3.943   7.304  0.00  0.00    -0.246 OA
ATOM      9  N   UNL     1      -0.577   2.128   6.137  0.00  0.00    -0.273 N 
ATOM     10  H   UNL     1      -0.834   1.543   6.906  0.00  0.00    +0.173 HD
ATOM     11  C   UNL     1      -0.143   1.570   4.990  0.00  0.00    +0.277 A 
ATOM     12  O   UNL     1      -0.070   0.357   4.888  0.00  0.00    -0.266 OA
BRANCH   5  13
ATOM     13  N   UNL     1       0.481   4.599   3.024  0.00  0.00    -0.343 N 
ATOM     14  H   UNL     1       0.738   4.228   2.166  0.00  0.00    +0.144 HD
ATOM     15  H   UNL     1       0.472   5.561   3.153  0.00  0.00    +0.144 HD
ENDBRANCH   5  13
BRANCH   6  16
ATOM     16  C   UNL     1      -0.436   5.734   5.415  0.00  0.00    +0.163 C 
BRANCH  16  17
ATOM     17  C   UNL     1      -1.807   6.186   4.983  0.00  0.00    -0.028 A 
ATOM     18  C   UNL     1      -2.030   6.557   3.670  0.00  0.00    +0.005 A 
ATOM     19  C   UNL     1      -3.289   6.967   3.273  0.00  0.00    +0.000 A 
ATOM     20  C   UNL     1      -4.322   7.015   4.190  0.00  0.00    +0.000 A 
ATOM     21  C   UNL     1      -4.097   6.648   5.504  0.00  0.00    +0.000 A 
ATOM     22  C   UNL     1      -2.840   6.234   5.900  0.00  0.00    +0.005 A 
ENDBRANCH  16  17
ENDBRANCH   6  16
ENDBRANCH   1   4
BRANCH   1  23
ATOM     23  C   UNL     1       1.961   1.100   2.676  0.00  0.00    +0.116 C 
BRANCH  23  24
ATOM     24  C   UNL     1       3.115   2.084   2.476  0.00  0.00    +0.047 C 
BRANCH  24  25
ATOM     25  C   UNL     1       4.439   1.318   2.446  0.00  0.00    +0.161 C 
BRANCH  25  27
ATOM     26  C   UNL     1       6.805   1.621   2.217  0.00  0.00    +0.193 C 
ATOM     27  O   UNL     1       5.517   2.237   2.260  0.00  0.00    -0.383 OA
ENDBRANCH  25  27
ENDBRANCH  24  25
ENDBRANCH  23  24
ENDBRANCH   1  23
BRANCH   2  28
ATOM     28  C   UNL     1       0.403   1.277   0.310  0.00  0.00    +0.020 C 
BRANCH  28  33
ATOM     29  C   UNL     1      -1.810   0.838  -0.588  0.00  0.00    -0.077 C 
ATOM     30  C   UNL     1      -2.297   0.530  -2.026  0.00  0.00    -0.020 C 
ATOM     31  C   UNL     1      -0.957   0.247  -2.756  0.00  0.00    -0.012 C 
ATOM     32  C   UNL     1       0.020   1.235  -2.085  0.00  0.00    -0.030 C 
ATOM     33  N   UNL     1      -0.559   1.594  -0.777  0.00  0.00    +0.390 N 
ATOM     34  H   UNL     1      -0.763   2.600  -0.761  0.00  0.00    -0.080 HD
BRANCH  32  35
ATOM     35  C   UNL     1       1.369   0.587  -1.908  0.00  0.00    -0.024 A 
ATOM     36  C   UNL     1       2.563   0.943  -2.440  0.00  0.00    +0.009 A 
ATOM     37  C   UNL     1       3.684   0.194  -2.133  0.00  0.00    +0.008 A 
ATOM     38  C   UNL     1       3.554  -0.880  -1.317  0.00  0.00    +0.045 A 
ATOM     39  S   UNL     1       1.807  -0.854  -0.949  0.00  0.00    -0.103 S 
ENDBRANCH  32  35
ENDBRANCH  28  33
ENDBRANCH   2  28
TORSDOF 11
