REMARK  Name = ZINC20394480
REMARK  11 active torsions:
REMARK  status: ('A' for Active; 'I' for Inactive)
REMARK    1  A    between atoms: C_1  and  C_2
REMARK    2  A    between atoms: C_5  and  N_9
REMARK    3  A    between atoms: C_7  and  C_8
REMARK    4  A    between atoms: N_10  and  C_11
REMARK    5  A    between atoms: C_13  and  C_32
REMARK    6  A    between atoms: C_14  and  C_31
REMARK    7  A    between atoms: C_16  and  N_17
REMARK    8  A    between atoms: N_17  and  C_18
REMARK    9  A    between atoms: C_20  and  O_30
REMARK   10  A    between atoms: C_22  and  O_29
REMARK   11  A    between atoms: C_24  and  O_28
REMARK                            x       y       z     vdW  Elec       q    Type
REMARK                         _______ _______ _______ _____ _____    ______ ____
ROOT
ATOM      1  C   UNL     1      -3.629   6.205   0.068  0.00  0.00    +0.107 A 
ATOM      2  C   UNL     1      -4.836   5.499   0.070  0.00  0.00    +0.035 A 
ATOM      3  C   UNL     1      -6.032   6.183   0.090  0.00  0.00    -0.045 A 
ATOM      4  C   UNL     1      -6.046   7.569   0.097  0.00  0.00    -0.046 A 
ATOM      5  C   UNL     1      -4.863   8.280   0.089  0.00  0.00    +0.028 A 
ATOM      6  C   UNL     1      -3.648   7.609   0.075  0.00  0.00    +0.057 A 
ATOM      7  C   UNL     1      -7.362   8.304   0.112  0.00  0.00    +0.044 C 
ATOM      8  C   UNL     1      -7.332   5.420   0.098  0.00  0.00    +0.044 C 
ENDROOT
BRANCH   1  10
ATOM      9  N   UNL     1      -2.430   4.244   0.048  0.00  0.00    -0.149 NA
ATOM     10  N   UNL     1      -2.442   5.534   0.054  0.00  0.00    -0.147 NA
BRANCH   9  15
ATOM     11  C   UNL     1       2.483   1.468  -0.014  0.00  0.00    +0.044 C 
ATOM     12  C   UNL     1       1.171   2.209   0.003  0.00  0.00    -0.047 A 
ATOM     13  C   UNL     1       1.162   3.593   0.010  0.00  0.00    +0.006 A 
ATOM     14  C   UNL     1      -0.034   4.278   0.025  0.00  0.00    +0.030 A 
ATOM     15  C   UNL     1      -1.240   3.571   0.033  0.00  0.00    +0.086 A 
ATOM     16  C   UNL     1      -1.223   2.174   0.020  0.00  0.00    +0.033 A 
ATOM     17  C   UNL     1      -0.018   1.503   0.010  0.00  0.00    -0.045 A 
ATOM     18  C   UNL     1       0.002  -0.004   0.002  0.00  0.00    +0.044 C 
ENDBRANCH   9  15
ENDBRANCH   1  10
BRANCH   6  19
ATOM     19  N   UNL     1      -2.454   8.324   0.068  0.00  0.00    -0.315 N 
ATOM     20  H   UNL     1      -1.493   7.790   0.057  0.00  0.00    +0.149 HD
BRANCH  19  21
ATOM     21  C   UNL     1      -2.478   9.789   0.075  0.00  0.00    +0.235 C 
ATOM     22  C   UNL     1      -1.297  10.315   0.895  0.00  0.00    +0.192 C 
ATOM     23  C   UNL     1       0.011   9.874   0.232  0.00  0.00    +0.178 C 
ATOM     24  C   UNL     1       0.035  10.383  -1.213  0.00  0.00    +0.171 C 
ATOM     25  C   UNL     1      -1.198   9.854  -1.952  0.00  0.00    +0.196 C 
ATOM     26  O   UNL     1      -2.379  10.274  -1.266  0.00  0.00    -0.354 OA
BRANCH  24  27
ATOM     27  O   UNL     1       1.218   9.916  -1.865  0.00  0.00    -0.387 OA
ATOM     28  H   UNL     1       1.409  10.182  -2.915  0.00  0.00    +0.210 HD
ENDBRANCH  24  27
BRANCH  23  29
ATOM     29  O   UNL     1       1.119  10.422   0.949  0.00  0.00    -0.386 OA
ATOM     30  H   UNL     1       2.147  10.213   0.617  0.00  0.00    +0.210 HD
ENDBRANCH  23  29
BRANCH  22  31
ATOM     31  O   UNL     1      -1.363   9.785   2.220  0.00  0.00    -0.385 OA
ATOM     32  H   UNL     1      -0.593  10.053   2.959  0.00  0.00    +0.210 HD
ENDBRANCH  22  31
ENDBRANCH  19  21
ENDBRANCH   6  19
TORSDOF 7
