REMARK  Name = ZINC09641788
REMARK  17 active torsions:
REMARK  status: ('A' for Active; 'I' for Inactive)
REMARK    1  A    between atoms: C_1  and  C_2
REMARK    2  A    between atoms: C_4  and  O_30
REMARK    3  A    between atoms: C_5  and  O_28
REMARK    4  A    between atoms: C_7  and  C_8
REMARK    5  A    between atoms: C_8  and  N_9
REMARK    6  A    between atoms: N_9  and  C_10
REMARK    7  A    between atoms: N_9  and  S_11
REMARK    8  A    between atoms: S_11  and  C_14
REMARK    9  A    between atoms: C_15  and  C_24
REMARK   10  A    between atoms: C_16  and  C_23
REMARK   11  A    between atoms: C_17  and  C_19
REMARK   12  A    between atoms: C_19  and  O_21
REMARK   13  A    between atoms: O_21  and  C_22
REMARK   14  A    between atoms: C_24  and  O_26
REMARK   15  A    between atoms: O_26  and  C_27
REMARK   16  A    between atoms: O_28  and  C_29
REMARK   17  A    between atoms: O_30  and  C_31
REMARK                            x       y       z     vdW  Elec       q    Type
REMARK                         _______ _______ _______ _____ _____    ______ ____
ROOT
ATOM      1  S   UNL     1       1.304   3.814   2.813  0.00  0.00    +0.068 S 
ATOM      2  O   UNL     1      -0.035   3.666   3.267  0.00  0.00    -0.152 OA
ATOM      3  O   UNL     1       2.157   2.701   2.582  0.00  0.00    -0.152 OA
ENDROOT
BRANCH   1   4
ATOM      4  C   UNL     1       1.227   4.713   1.300  0.00  0.00    +0.158 A 
ATOM      5  C   UNL     1       1.222   4.222   0.002  0.00  0.00    +0.096 A 
ATOM      6  C   UNL     1       1.149   5.134  -1.040  0.00  0.00    -0.013 A 
ATOM      7  C   UNL     1       1.091   6.463  -0.715  0.00  0.00    +0.102 A 
ATOM      8  S   UNL     1       1.141   6.428   1.067  0.00  0.00    -0.061 S 
ATOM      9  C   UNL     1       1.133   4.680  -2.476  0.00  0.00    +0.046 C 
BRANCH   7  10
ATOM     10  C   UNL     1       1.009   7.623  -1.607  0.00  0.00    +0.346 C 
ATOM     11  O   UNL     1       0.984   7.462  -2.813  0.00  0.00    -0.244 OA
BRANCH  10  12
ATOM     12  O   UNL     1       0.961   8.868  -1.092  0.00  0.00    -0.464 OA
ATOM     13  C   UNL     1       0.880   9.969  -2.036  0.00  0.00    +0.280 C 
ENDBRANCH  10  12
ENDBRANCH   7  10
BRANCH   5  14
ATOM     14  C   UNL     1       1.287   2.775  -0.260  0.00  0.00    +0.342 C 
ATOM     15  O   UNL     1       2.365   2.230  -0.397  0.00  0.00    -0.245 OA
BRANCH  14  16
ATOM     16  O   UNL     1       0.152   2.055  -0.350  0.00  0.00    -0.464 OA
ATOM     17  C   UNL     1       0.291   0.633  -0.611  0.00  0.00    +0.280 C 
ENDBRANCH  14  16
ENDBRANCH   5  14
ENDBRANCH   1   4
BRANCH   1  18
ATOM     18  N   UNL     1       2.073   4.779   3.918  0.00  0.00    -0.175 NA
ATOM     19  C   UNL     1       1.297   5.697   4.755  0.00  0.00    +0.132 C 
BRANCH  18  20
ATOM     20  C   UNL     1       3.530   4.714   4.057  0.00  0.00    +0.144 C 
BRANCH  20  27
ATOM     21  C   UNL     1       6.185   4.370   2.980  0.00  0.00    +0.044 C 
ATOM     22  C   UNL     1       5.433   5.653   2.732  0.00  0.00    -0.042 A 
ATOM     23  C   UNL     1       6.017   6.662   1.989  0.00  0.00    +0.053 A 
ATOM     24  C   UNL     1       5.328   7.842   1.761  0.00  0.00    +0.162 A 
ATOM     25  C   UNL     1       4.047   8.008   2.281  0.00  0.00    +0.162 A 
ATOM     26  C   UNL     1       3.466   6.990   3.020  0.00  0.00    +0.054 A 
ATOM     27  C   UNL     1       4.162   5.818   3.248  0.00  0.00    -0.025 A 
BRANCH  25  28
ATOM     28  O   UNL     1       3.366   9.164   2.060  0.00  0.00    -0.491 OA
ATOM     29  C   UNL     1       2.057   9.264   2.624  0.00  0.00    +0.277 C 
ENDBRANCH  25  28
BRANCH  24  30
ATOM     30  O   UNL     1       5.901   8.836   1.031  0.00  0.00    -0.491 OA
ATOM     31  C   UNL     1       7.217   8.596   0.529  0.00  0.00    +0.277 C 
ENDBRANCH  24  30
ENDBRANCH  20  27
ENDBRANCH  18  20
ENDBRANCH   1  18
TORSDOF 10
