REMARK  Name = ZINC39921242
REMARK  4 active torsions:
REMARK  status: ('A' for Active; 'I' for Inactive)
REMARK    1  A    between atoms: C_4  and  O_27
REMARK    2  A    between atoms: C_5  and  C_7
REMARK    3  A    between atoms: C_22  and  N_26
REMARK    4  A    between atoms: C_23  and  C_24
REMARK                            x       y       z     vdW  Elec       q    Type
REMARK                         _______ _______ _______ _____ _____    ______ ____
ROOT
ATOM      1  C   UNL     1       1.227  -2.187  -0.022  0.00  0.00    +0.087 C 
ATOM      2  C   UNL     1       0.501  -2.698  -1.270  0.00  0.00    +0.154 C 
ATOM      3  C   UNL     1      -0.979  -2.520  -0.977  0.00  0.00    +0.129 C 
ATOM      4  C   UNL     1      -1.721  -1.715  -1.829  0.00  0.00    +0.035 A 
ATOM      5  C   UNL     1      -3.103  -1.518  -1.633  0.00  0.00    +0.013 A 
ATOM      6  C   UNL     1      -3.798  -0.726  -2.494  0.00  0.00    +0.001 A 
ATOM      7  C   UNL     1      -3.172  -0.103  -3.569  0.00  0.00    +0.002 A 
ATOM      8  C   UNL     1      -1.839  -0.252  -3.809  0.00  0.00    +0.024 A 
ATOM      9  C   UNL     1      -1.058  -1.054  -2.960  0.00  0.00    +0.044 A 
ATOM     10  N   UNL     1       0.253  -1.195  -3.191  0.00  0.00    -0.284 N 
ATOM     11  C   UNL     1       1.069  -1.952  -2.457  0.00  0.00    +0.229 C 
ATOM     12  O   UNL     1       2.253  -2.040  -2.722  0.00  0.00    -0.275 OA
ATOM     13  O   UNL     1      -1.496  -3.132   0.091  0.00  0.00    -0.444 OA
ATOM     14  C   UNL     1      -0.742  -3.128   1.216  0.00  0.00    +0.198 C 
ATOM     15  C   UNL     1       0.539  -2.703   1.212  0.00  0.00    +0.095 C 
ATOM     16  H   UNL     1       0.636  -0.722  -3.947  0.00  0.00    +0.155 HD
ENDROOT
BRANCH   1  21
ATOM     17  C   UNL     1      -0.017   1.378   0.010  0.00  0.00    +0.001 A 
ATOM     18  C   UNL     1       1.170   2.088   0.002  0.00  0.00    +0.004 A 
ATOM     19  C   UNL     1       2.377   1.417  -0.013  0.00  0.00    +0.046 A 
ATOM     20  C   UNL     1       2.399   0.030  -0.021  0.00  0.00    +0.121 A 
ATOM     21  C   UNL     1       1.207  -0.680  -0.013  0.00  0.00    +0.003 A 
ATOM     22  C   UNL     1       0.002  -0.004   0.002  0.00  0.00    +0.008 A 
BRANCH  20  23
ATOM     23  O   UNL     1       3.586  -0.632  -0.037  0.00  0.00    -0.506 OA
ATOM     24  H   UNL     1       3.938  -0.829   0.842  0.00  0.00    +0.292 HD
ENDBRANCH  20  23
ENDBRANCH   1  21
BRANCH  14  25
ATOM     25  N   UNL     1      -1.296  -3.567   2.392  0.00  0.00    -0.328 N 
ATOM     26  H   UNL     1      -2.216  -3.874   2.410  0.00  0.00    +0.145 HD
ATOM     27  H   UNL     1      -0.769  -3.569   3.206  0.00  0.00    +0.145 HD
ENDBRANCH  14  25
BRANCH  15  28
ATOM     28  C   UNL     1       1.276  -2.746   2.439  0.00  0.00    +0.100 C 
ATOM     29  N   UNL     1       1.861  -2.780   3.413  0.00  0.00    -0.191 NA
ENDBRANCH  15  28
TORSDOF 4
