REMARK  Name = ZINC09549680
REMARK  13 active torsions:
REMARK  status: ('A' for Active; 'I' for Inactive)
REMARK    1  A    between atoms: C_1  and  C_2
REMARK    2  A    between atoms: C_2  and  C_3
REMARK    3  A    between atoms: C_3  and  C_5
REMARK    4  A    between atoms: C_3  and  N_61
REMARK    5  A    between atoms: C_8  and  S_17
REMARK    6  A    between atoms: N_9  and  C_10
REMARK    7  A    between atoms: C_10  and  C_11
REMARK    8  A    between atoms: S_17  and  C_18
REMARK    9  A    between atoms: C_18  and  C_19
REMARK   10  A    between atoms: C_19  and  C_21
REMARK   11  A    between atoms: C_22  and  C_31
REMARK   12  A    between atoms: C_32  and  N_61
REMARK   13  A    between atoms: C_33  and  N_61
REMARK                            x       y       z     vdW  Elec       q    Type
REMARK                         _______ _______ _______ _____ _____    ______ ____
ROOT
ATOM      1  C   UNL     1      -2.255  -0.563   2.135  0.00  0.00    +0.121 A 
ATOM      2  N   UNL     1      -2.578  -0.163   3.332  0.00  0.00    -0.135 NA
ATOM      3  N   UNL     1      -3.193   0.963   3.270  0.00  0.00    -0.123 NA
ATOM      4  C   UNL     1      -3.293   1.349   2.019  0.00  0.00    +0.192 A 
ATOM      5  N   UNL     1      -2.695   0.388   1.256  0.00  0.00    -0.303 N 
ENDROOT
BRANCH   1   6
ATOM      6  C   UNL     1      -1.530  -1.837   1.784  0.00  0.00    +0.000 C 
BRANCH   6   9
ATOM      7  C   UNL     1      -1.819  -4.230   1.554  0.00  0.00    -0.096 C 
ATOM      8  C   UNL     1      -2.591  -3.104   3.553  0.00  0.00    -0.096 C 
ATOM      9  N   UNL     1      -2.408  -2.985   2.091  0.00  0.00    +0.383 N 
ATOM     10  H   UNL     1      -3.323  -2.833   1.652  0.00  0.00    -0.082 HD
ENDBRANCH   6   9
BRANCH   6  12
ATOM     11  C   UNL     1       0.716  -0.805   2.150  0.00  0.00    +0.002 C 
ATOM     12  C   UNL     1      -0.232  -1.923   2.589  0.00  0.00    -0.011 C 
ENDBRANCH   6  12
ENDBRANCH   1   6
BRANCH   5  13
ATOM     13  C   UNL     1      -2.557   0.375  -0.203  0.00  0.00    +0.160 C 
BRANCH  13  14
ATOM     14  C   UNL     1      -1.313   1.130  -0.596  0.00  0.00    -0.028 A 
ATOM     15  C   UNL     1      -0.136   0.446  -0.834  0.00  0.00    +0.005 A 
ATOM     16  C   UNL     1       1.003   1.138  -1.201  0.00  0.00    +0.000 A 
ATOM     17  C   UNL     1       0.966   2.514  -1.325  0.00  0.00    +0.000 A 
ATOM     18  C   UNL     1      -0.210   3.199  -1.083  0.00  0.00    +0.000 A 
ATOM     19  C   UNL     1      -1.349   2.507  -0.716  0.00  0.00    +0.005 A 
ENDBRANCH  13  14
ENDBRANCH   5  13
BRANCH   4  20
ATOM     20  S   UNL     1      -4.054   2.827   1.436  0.00  0.00    -0.078 S 
BRANCH  20  21
ATOM     21  C   UNL     1      -4.592   3.545   3.008  0.00  0.00    +0.157 C 
BRANCH  21  22
ATOM     22  C   UNL     1      -5.291   4.855   2.749  0.00  0.00    +0.176 C 
ATOM     23  O   UNL     1      -5.497   5.218   1.609  0.00  0.00    -0.291 OA
BRANCH  22  24
ATOM     24  C   UNL     1      -5.706   5.663   3.836  0.00  0.00    +0.046 A 
ATOM     25  C   UNL     1      -6.889   5.564   4.537  0.00  0.00    +0.024 A 
ATOM     26  N   UNL     1      -6.924   6.503   5.501  0.00  0.00    -0.358 N 
ATOM     27  H   UNL     1      -7.657   6.627   6.125  0.00  0.00    +0.166 HD
ATOM     28  C   UNL     1      -5.777   7.270   5.478  0.00  0.00    +0.047 A 
ATOM     29  C   UNL     1      -4.963   6.786   4.442  0.00  0.00    +0.010 A 
ATOM     30  C   UNL     1      -3.730   7.378   4.186  0.00  0.00    +0.011 A 
ATOM     31  C   UNL     1      -3.312   8.442   4.956  0.00  0.00    +0.001 A 
ATOM     32  C   UNL     1      -4.114   8.922   5.980  0.00  0.00    +0.002 A 
ATOM     33  C   UNL     1      -5.337   8.345   6.244  0.00  0.00    +0.026 A 
ATOM     34  C   UNL     1      -7.976   4.555   4.268  0.00  0.00    +0.064 C 
ENDBRANCH  22  24
ENDBRANCH  21  22
ENDBRANCH  20  21
ENDBRANCH   4  20
TORSDOF 9
