REMARK  Name = ZINC08813387
REMARK  14 active torsions:
REMARK  status: ('A' for Active; 'I' for Inactive)
REMARK    1  A    between atoms: C_1  and  C_2
REMARK    2  A    between atoms: C_2  and  C_3
REMARK    3  A    between atoms: N_9  and  C_10
REMARK    4  A    between atoms: C_10  and  C_11
REMARK    5  A    between atoms: C_11  and  C_12
REMARK    6  A    between atoms: C_12  and  N_13
REMARK    7  A    between atoms: C_14  and  C_16
REMARK    8  A    between atoms: C_19  and  C_22
REMARK    9  A    between atoms: C_22  and  N_23
REMARK   10  A    between atoms: N_23  and  S_24
REMARK   11  A    between atoms: S_24  and  C_27
REMARK   12  A    between atoms: C_28  and  C_35
REMARK   13  A    between atoms: C_30  and  C_34
REMARK   14  A    between atoms: C_32  and  C_33
REMARK                            x       y       z     vdW  Elec       q    Type
REMARK                         _______ _______ _______ _____ _____    ______ ____
ROOT
ATOM      1  C   UNL     1       5.658   4.442  -0.309  0.00  0.00    +0.075 C 
ATOM      2  C   UNL     1       6.031   3.670   0.958  0.00  0.00    +0.013 C 
ATOM      3  C   UNL     1       5.624   4.481   2.189  0.00  0.00    +0.005 C 
ATOM      4  C   UNL     1       6.355   5.826   2.178  0.00  0.00    +0.005 C 
ATOM      5  C   UNL     1       5.982   6.598   0.911  0.00  0.00    +0.005 C 
ATOM      6  C   UNL     1       6.389   5.786  -0.320  0.00  0.00    +0.013 C 
ENDROOT
BRANCH   1   8
ATOM      7  N   UNL     1       3.321   3.633  -0.328  0.00  0.00    -0.315 N 
ATOM      8  C   UNL     1       4.170   4.679  -0.333  0.00  0.00    +0.216 C 
ATOM      9  O   UNL     1       3.737   5.812  -0.356  0.00  0.00    -0.276 OA
ATOM     10  H   UNL     1       3.667   2.727  -0.309  0.00  0.00    +0.149 HD
BRANCH   7  11
ATOM     11  C   UNL     1       1.874   3.863  -0.351  0.00  0.00    +0.102 C 
BRANCH  11  12
ATOM     12  C   UNL     1       1.143   2.519  -0.340  0.00  0.00    +0.000 C 
BRANCH  12  13
ATOM     13  C   UNL     1      -0.367   2.760  -0.364  0.00  0.00    -0.077 C 
BRANCH  13  19
ATOM     14  C   UNL     1      -2.515   1.701  -0.249  0.00  0.00    -0.069 C 
ATOM     15  C   UNL     1      -3.244   0.359  -0.156  0.00  0.00    -0.015 C 
ATOM     16  C   UNL     1      -2.947  -0.466  -1.411  0.00  0.00    -0.003 C 
ATOM     17  C   UNL     1      -1.431  -0.637  -1.550  0.00  0.00    -0.019 C 
ATOM     18  C   UNL     1      -0.769   0.741  -1.592  0.00  0.00    -0.078 C 
ATOM     19  N   UNL     1      -1.069   1.469  -0.353  0.00  0.00    +0.382 N 
ATOM     20  H   UNL     1      -0.759   0.927   0.439  0.00  0.00    -0.081 HD
BRANCH  14  22
ATOM     21  C   UNL     1      -4.307   2.836   1.071  0.00  0.00    +0.002 C 
ATOM     22  C   UNL     1      -2.809   2.529   1.003  0.00  0.00    -0.019 C 
ENDBRANCH  14  22
ENDBRANCH  13  19
ENDBRANCH  12  13
ENDBRANCH  11  12
ENDBRANCH   7  11
ENDBRANCH   1   8
BRANCH   4  23
ATOM     23  C   UNL     1       5.948   6.638   3.409  0.00  0.00    +0.109 C 
BRANCH  23  24
ATOM     24  N   UNL     1       6.736   7.872   3.462  0.00  0.00    -0.190 NA
ATOM     25  H   UNL     1       7.531   7.964   2.915  0.00  0.00    +0.148 HD
BRANCH  24  26
ATOM     26  S   UNL     1       6.267   9.111   4.457  0.00  0.00    +0.059 S 
ATOM     27  O   UNL     1       7.235  10.141   4.305  0.00  0.00    -0.153 OA
ATOM     28  O   UNL     1       4.883   9.324   4.215  0.00  0.00    -0.153 OA
BRANCH  26  29
ATOM     29  C   UNL     1       6.406   8.529   6.114  0.00  0.00    +0.111 A 
ATOM     30  C   UNL     1       7.568   8.750   6.829  0.00  0.00    -0.024 A 
ATOM     31  C   UNL     1       7.676   8.294   8.130  0.00  0.00    +0.008 A 
ATOM     32  C   UNL     1       6.622   7.617   8.715  0.00  0.00    -0.050 A 
ATOM     33  C   UNL     1       5.460   7.398   8.000  0.00  0.00    +0.008 A 
ATOM     34  C   UNL     1       5.350   7.858   6.701  0.00  0.00    -0.024 A 
ATOM     35  C   UNL     1       4.080   7.623   5.924  0.00  0.00    +0.046 C 
ATOM     36  C   UNL     1       6.741   7.119  10.132  0.00  0.00    +0.044 C 
ATOM     37  C   UNL     1       8.717   9.487   6.191  0.00  0.00    +0.046 C 
ENDBRANCH  26  29
ENDBRANCH  24  26
ENDBRANCH  23  24
ENDBRANCH   4  23
TORSDOF 10
