REMARK  Name = ZINC08443079
REMARK  5 active torsions:
REMARK  status: ('A' for Active; 'I' for Inactive)
REMARK    1  A    between atoms: C_4  and  C_7
REMARK    2  A    between atoms: C_10  and  C_31
REMARK    3  A    between atoms: C_13  and  S_15
REMARK    4  A    between atoms: S_15  and  C_16
REMARK    5  A    between atoms: N_21  and  C_24
REMARK                            x       y       z     vdW  Elec       q    Type
REMARK                         _______ _______ _______ _____ _____    ______ ____
ROOT
ATOM      1  C   UNL     1       4.057   0.232   0.715  0.00  0.00    +0.136 C 
ATOM      2  C   UNL     1       4.403  -0.008  -0.768  0.00  0.00    +0.087 C 
ATOM      3  C   UNL     1       4.391  -1.514  -0.905  0.00  0.00    +0.069 C 
ATOM      4  N   UNL     1       4.104  -2.047   0.232  0.00  0.00    -0.182 NA
ATOM      5  N   UNL     1       3.889  -1.125   1.258  0.00  0.00    -0.195 N 
ATOM      6  C   UNL     1       3.572  -1.433   2.563  0.00  0.00    +0.149 C 
ATOM      7  N   UNL     1       3.393  -0.478   3.433  0.00  0.00    -0.380 N 
ATOM      8  H   UNL     1       3.170  -0.694   4.352  0.00  0.00    +0.158 HD
ATOM      9  H   UNL     1       3.485   0.449   3.162  0.00  0.00    +0.158 HD
ENDROOT
BRANCH   1  13
ATOM     10  C   UNL     1       0.426   2.454   1.069  0.00  0.00    +0.000 A 
ATOM     11  C   UNL     1       1.643   3.086   1.244  0.00  0.00    +0.000 A 
ATOM     12  C   UNL     1       2.818   2.367   1.130  0.00  0.00    +0.005 A 
ATOM     13  C   UNL     1       2.776   1.016   0.841  0.00  0.00    -0.025 A 
ATOM     14  C   UNL     1       1.559   0.383   0.667  0.00  0.00    +0.005 A 
ATOM     15  C   UNL     1       0.384   1.103   0.780  0.00  0.00    +0.000 A 
ENDBRANCH   1  13
BRANCH   3  16
ATOM     16  C   UNL     1       4.664  -2.257  -2.150  0.00  0.00    -0.002 A 
ATOM     17  C   UNL     1       4.970  -1.568  -3.325  0.00  0.00    +0.010 A 
ATOM     18  C   UNL     1       5.224  -2.269  -4.486  0.00  0.00    +0.001 A 
ATOM     19  C   UNL     1       5.177  -3.652  -4.486  0.00  0.00    +0.000 A 
ATOM     20  C   UNL     1       4.875  -4.341  -3.325  0.00  0.00    +0.001 A 
ATOM     21  C   UNL     1       4.624  -3.653  -2.156  0.00  0.00    +0.010 A 
ENDBRANCH   3  16
BRANCH   6  22
ATOM     22  S   UNL     1       3.406  -3.116   3.056  0.00  0.00    -0.078 S 
BRANCH  22  23
ATOM     23  C   UNL     1       2.992  -3.018   4.819  0.00  0.00    +0.149 C 
ATOM     24  C   UNL     1       2.881  -4.430   5.429  0.00  0.00    +0.120 C 
ATOM     25  C   UNL     1       1.444  -4.501   5.901  0.00  0.00    +0.228 C 
ATOM     26  O   UNL     1       0.930  -5.453   6.448  0.00  0.00    -0.275 OA
ATOM     27  N   UNL     1       0.831  -3.345   5.618  0.00  0.00    -0.209 N 
ATOM     28  C   UNL     1       1.609  -2.436   5.009  0.00  0.00    +0.240 C 
ATOM     29  O   UNL     1       1.261  -1.326   4.666  0.00  0.00    -0.274 OA
BRANCH  27  30
ATOM     30  C   UNL     1      -0.513  -3.102   5.933  0.00  0.00    +0.045 A 
ATOM     31  C   UNL     1      -0.909  -2.999   7.260  0.00  0.00    +0.024 A 
ATOM     32  C   UNL     1      -2.234  -2.760   7.568  0.00  0.00    +0.003 A 
ATOM     33  C   UNL     1      -3.167  -2.623   6.557  0.00  0.00    +0.020 A 
ATOM     34  C   UNL     1      -2.776  -2.725   5.233  0.00  0.00    +0.043 A 
ATOM     35  C   UNL     1      -1.450  -2.959   4.919  0.00  0.00    +0.044 A 
ATOM     36 CL   UNL     1      -3.951  -2.553   3.966  0.00  0.00    -0.083 Cl
ENDBRANCH  27  30
ENDBRANCH  22  23
ENDBRANCH   6  22
TORSDOF 5
