REMARK  Name = ZINC67548110
REMARK  10 active torsions:
REMARK  status: ('A' for Active; 'I' for Inactive)
REMARK    1  A    between atoms: C_1  and  C_2
REMARK    2  A    between atoms: C_2  and  C_3
REMARK    3  A    between atoms: C_3  and  C_4
REMARK    4  A    between atoms: C_4  and  O_5
REMARK    5  A    between atoms: O_5  and  C_6
REMARK    6  A    between atoms: C_9  and  N_13
REMARK    7  A    between atoms: C_10  and  C_12
REMARK    8  A    between atoms: N_16  and  C_17
REMARK    9  A    between atoms: C_17  and  C_19
REMARK   10  A    between atoms: C_17  and  C_20
REMARK                            x       y       z     vdW  Elec       q    Type
REMARK                         _______ _______ _______ _____ _____    ______ ____
ROOT
ATOM      1  N   UNL     1      -3.381  -8.038  -0.009  0.00  0.00    -0.269 N 
ATOM      2  C   UNL     1      -2.312  -8.851  -0.128  0.00  0.00    +0.304 C 
ATOM      3  O   UNL     1      -1.191  -8.381  -0.148  0.00  0.00    -0.252 OA
ATOM      4  N   UNL     1      -2.486 -10.184  -0.225  0.00  0.00    -0.288 N 
ATOM      5  H   UNL     1      -4.271  -8.416   0.070  0.00  0.00    +0.156 HD
ATOM      6  H   UNL     1      -3.381 -10.558  -0.209  0.00  0.00    +0.151 HD
ENDROOT
BRANCH   1  10
ATOM      7  C   UNL     1      -2.862  -3.901   0.018  0.00  0.00    +0.121 A 
ATOM      8  C   UNL     1      -1.906  -4.723   0.597  0.00  0.00    +0.047 A 
ATOM      9  C   UNL     1      -2.078  -6.093   0.588  0.00  0.00    +0.027 A 
ATOM     10  C   UNL     1      -3.207  -6.648   0.001  0.00  0.00    +0.038 A 
ATOM     11  C   UNL     1      -4.163  -5.824  -0.578  0.00  0.00    -0.026 A 
ATOM     12  C   UNL     1      -3.993  -4.453  -0.564  0.00  0.00    +0.050 A 
ATOM     13  C   UNL     1      -5.389  -6.425  -1.216  0.00  0.00    +0.046 C 
BRANCH   7  14
ATOM     14  O   UNL     1      -2.692  -2.551   0.027  0.00  0.00    -0.492 OA
BRANCH  14  15
ATOM     15  C   UNL     1      -1.505  -2.051   0.644  0.00  0.00    +0.229 C 
BRANCH  15  16
ATOM     16  C   UNL     1      -1.490  -0.523   0.557  0.00  0.00    +0.041 C 
BRANCH  16  18
ATOM     17  C   UNL     1      -0.204   1.540   1.131  0.00  0.00    +0.004 C 
ATOM     18  C   UNL     1      -0.218   0.013   1.218  0.00  0.00    -0.000 C 
ENDBRANCH  16  18
ENDBRANCH  15  16
ENDBRANCH  14  15
ENDBRANCH   7  14
ENDBRANCH   1  10
BRANCH   4  19
ATOM     19  C   UNL     1      -1.325 -11.066  -0.354  0.00  0.00    +0.157 C 
ATOM     20  C   UNL     1      -0.916 -11.160  -1.826  0.00  0.00    +0.038 C 
BRANCH  19  21
ATOM     21  C   UNL     1      -1.677 -12.439   0.158  0.00  0.00    +0.236 C 
ATOM     22  O   UNL     1      -2.840 -12.745   0.321  0.00  0.00    -0.274 OA
ATOM     23  N   UNL     1      -0.702 -13.327   0.434  0.00  0.00    -0.298 N 
ATOM     24  C   UNL     1       0.699 -12.911   0.350  0.00  0.00    +0.118 C 
ATOM     25  C   UNL     1       1.328 -12.949   1.748  0.00  0.00    +0.088 C 
ATOM     26  S   UNL     1       1.147 -14.628   2.421  0.00  0.00    -0.158 S 
ATOM     27  C   UNL     1      -0.636 -14.946   2.267  0.00  0.00    +0.088 C 
ATOM     28  C   UNL     1      -1.056 -14.694   0.820  0.00  0.00    +0.118 C 
ENDBRANCH  19  21
ENDBRANCH   4  19
TORSDOF 7
