REMARK  Name = ZINC20160073
REMARK  9 active torsions:
REMARK  status: ('A' for Active; 'I' for Inactive)
REMARK    1  A    between atoms: C_1  and  C_2
REMARK    2  A    between atoms: C_2  and  C_31
REMARK    3  A    between atoms: N_3  and  O_4
REMARK    4  A    between atoms: O_4  and  C_5
REMARK    5  A    between atoms: C_5  and  C_6
REMARK    6  A    between atoms: C_18  and  O_30
REMARK    7  A    between atoms: C_22  and  C_24
REMARK    8  A    between atoms: C_34  and  O_37
REMARK    9  A    between atoms: O_37  and  C_38
REMARK                            x       y       z     vdW  Elec       q    Type
REMARK                         _______ _______ _______ _____ _____    ______ ____
ROOT
ATOM      1  C   UNL     1      -4.814   1.504  -1.147  0.00  0.00    +0.192 A 
ATOM      2  N   UNL     1      -5.325   0.328  -1.504  0.00  0.00    -0.207 NA
ATOM      3  C   UNL     1      -5.844   0.421  -2.706  0.00  0.00    +0.167 A 
ATOM      4  C   UNL     1      -6.495  -0.500  -3.542  0.00  0.00    +0.070 A 
ATOM      5  C   UNL     1      -6.919  -0.035  -4.759  0.00  0.00    +0.230 A 
ATOM      6  N   UNL     1      -6.705   1.240  -5.118  0.00  0.00    -0.201 NA
ATOM      7  C   UNL     1      -6.097   2.118  -4.359  0.00  0.00    +0.229 A 
ATOM      8  N   UNL     1      -5.657   1.721  -3.139  0.00  0.00    -0.201 N 
ATOM      9  N   UNL     1      -4.998   2.381  -2.112  0.00  0.00    -0.145 NA
ATOM     10  O   UNL     1      -7.562  -0.859  -5.618  0.00  0.00    -0.437 OA
ATOM     11  C   UNL     1      -7.436  -2.202  -5.503  0.00  0.00    +0.138 A 
ATOM     12  C   UNL     1      -7.724  -3.009  -6.597  0.00  0.00    +0.092 A 
ATOM     13  C   UNL     1      -7.601  -4.385  -6.496  0.00  0.00    +0.120 A 
ATOM     14  C   UNL     1      -7.188  -4.958  -5.301  0.00  0.00    +0.046 A 
ATOM     15  C   UNL     1      -6.903  -4.155  -4.214  0.00  0.00    +0.012 A 
ATOM     16  C   UNL     1      -7.026  -2.781  -4.312  0.00  0.00    +0.007 A 
ATOM     17  C   UNL     1      -6.712  -1.920  -3.117  0.00  0.00    +0.091 C 
ENDROOT
BRANCH  17  18
ATOM     18  C   UNL     1      -7.862  -1.980  -2.146  0.00  0.00    -0.035 A 
ATOM     19  C   UNL     1      -9.116  -1.546  -2.533  0.00  0.00    +0.004 A 
ATOM     20  C   UNL     1     -10.173  -1.605  -1.643  0.00  0.00    +0.000 A 
ATOM     21  C   UNL     1      -9.973  -2.091  -0.364  0.00  0.00    +0.000 A 
ATOM     22  C   UNL     1      -8.718  -2.522   0.023  0.00  0.00    +0.000 A 
ATOM     23  C   UNL     1      -7.662  -2.466  -0.867  0.00  0.00    +0.004 A 
ENDBRANCH  17  18
BRANCH  13  24
ATOM     24  O   UNL     1      -7.883  -5.173  -7.567  0.00  0.00    -0.507 OA
ATOM     25  H   UNL     1      -7.785  -6.266  -7.486  0.00  0.00    +0.292 HD
ENDBRANCH  13  24
BRANCH   1  26
ATOM     26  C   UNL     1      -4.133   1.791   0.166  0.00  0.00    +0.340 C 
BRANCH  26  27
ATOM     27  O   UNL     1      -2.733   1.531   0.044  0.00  0.00    -0.386 OA
BRANCH  27  30
ATOM     28  C   UNL     1      -0.013   1.086   0.008  0.00  0.00    +0.069 C 
ATOM     29  C   UNL     1      -0.718   1.572   1.248  0.00  0.00    +0.084 C 
ATOM     30  N   UNL     1      -1.997   1.770   1.229  0.00  0.00    -0.089 NA
BRANCH  29  31
ATOM     31  C   UNL     1       0.049   1.821   2.483  0.00  0.00    -0.001 A 
ATOM     32  C   UNL     1       1.429   1.602   2.507  0.00  0.00    +0.013 A 
ATOM     33  C   UNL     1       2.142   1.841   3.662  0.00  0.00    +0.046 A 
ATOM     34  C   UNL     1       1.490   2.289   4.803  0.00  0.00    +0.120 A 
ATOM     35  C   UNL     1       0.117   2.503   4.785  0.00  0.00    +0.046 A 
ATOM     36  C   UNL     1      -0.603   2.272   3.634  0.00  0.00    +0.013 A 
BRANCH  34  37
ATOM     37  O   UNL     1       2.196   2.519   5.940  0.00  0.00    -0.495 OA
ATOM     38  C   UNL     1       3.604   2.278   5.890  0.00  0.00    +0.277 C 
ENDBRANCH  34  37
ENDBRANCH  29  31
ENDBRANCH  27  30
ENDBRANCH  26  27
ENDBRANCH   1  26
TORSDOF 7
