REMARK  Name = ZINC16604697
REMARK  7 active torsions:
REMARK  status: ('A' for Active; 'I' for Inactive)
REMARK    1  A    between atoms: C_1  and  C_2
REMARK    2  A    between atoms: C_2  and  N_3
REMARK    3  A    between atoms: C_11  and  C_13
REMARK    4  A    between atoms: C_18  and  S_20
REMARK    5  A    between atoms: S_20  and  C_21
REMARK    6  A    between atoms: C_21  and  C_22
REMARK    7  A    between atoms: N_24  and  C_25
REMARK                            x       y       z     vdW  Elec       q    Type
REMARK                         _______ _______ _______ _____ _____    ______ ____
ROOT
ATOM      1  N   UNL     1      -4.485  -2.378   2.905  0.00  0.00    -0.299 N 
ATOM      2  C   UNL     1      -4.518  -1.496   1.887  0.00  0.00    +0.303 C 
ATOM      3  O   UNL     1      -5.447  -0.717   1.788  0.00  0.00    -0.253 OA
ATOM      4  N   UNL     1      -3.521  -1.475   0.980  0.00  0.00    -0.280 N 
ATOM      5  C   UNL     1      -2.340  -2.337   1.137  0.00  0.00    +0.128 C 
ATOM      6  C   UNL     1      -1.084  -1.469   1.005  0.00  0.00    +0.125 C 
ATOM      7  N   UNL     1      -1.142  -0.719  -0.257  0.00  0.00    -0.312 N 
ATOM      8  C   UNL     1      -2.281   0.208  -0.274  0.00  0.00    +0.128 C 
ATOM      9  C   UNL     1      -3.587  -0.591  -0.193  0.00  0.00    +0.092 C 
ATOM     10  C   UNL     1      -4.769   0.369  -0.048  0.00  0.00    +0.030 C 
ATOM     11  C   UNL     1       0.048  -0.047  -0.491  0.00  0.00    +0.127 A 
ATOM     12  C   UNL     1       1.258  -0.742  -0.525  0.00  0.00    +0.083 A 
ATOM     13  C   UNL     1       2.420  -0.032  -0.762  0.00  0.00    +0.135 A 
ATOM     14  N   UNL     1       2.352   1.280  -0.949  0.00  0.00    -0.210 NA
ATOM     15  C   UNL     1       1.188   1.913  -0.910  0.00  0.00    +0.192 A 
ATOM     16  N   UNL     1       0.052   1.267  -0.686  0.00  0.00    -0.207 NA
ATOM     17 CL   UNL     1       3.952  -0.847  -0.815  0.00  0.00    -0.062 Cl
ATOM     18  H   UNL     1      -3.710  -2.950   3.027  0.00  0.00    +0.150 HD
ENDROOT
BRANCH   1  20
ATOM     19  C   UNL     1      -5.328  -3.545   4.882  0.00  0.00    +0.024 C 
ATOM     20  C   UNL     1      -5.619  -2.475   3.828  0.00  0.00    +0.102 C 
ENDBRANCH   1  20
BRANCH  15  21
ATOM     21  S   UNL     1       1.150   3.656  -1.164  0.00  0.00    -0.077 S 
BRANCH  21  22
ATOM     22  C   UNL     1       2.914   3.976  -1.412  0.00  0.00    +0.173 C 
BRANCH  22  23
ATOM     23  C   UNL     1       3.128   5.448  -1.654  0.00  0.00    +0.224 C 
ATOM     24  O   UNL     1       2.181   6.206  -1.659  0.00  0.00    -0.275 OA
ATOM     25  N   UNL     1       4.372   5.922  -1.865  0.00  0.00    -0.312 N 
ATOM     26  H   UNL     1       5.129   5.316  -1.861  0.00  0.00    +0.149 HD
BRANCH  25  27
ATOM     27  C   UNL     1       4.580   7.353  -2.101  0.00  0.00    +0.073 C 
ATOM     28  C   UNL     1       4.369   7.662  -3.585  0.00  0.00    +0.022 C 
ATOM     29  C   UNL     1       4.586   9.156  -3.831  0.00  0.00    +0.002 C 
ATOM     30  C   UNL     1       6.012   9.537  -3.429  0.00  0.00    +0.000 C 
ATOM     31  C   UNL     1       6.223   9.229  -1.945  0.00  0.00    +0.002 C 
ATOM     32  C   UNL     1       6.006   7.734  -1.699  0.00  0.00    +0.022 C 
ENDBRANCH  25  27
ENDBRANCH  22  23
ENDBRANCH  21  22
ENDBRANCH  15  21
TORSDOF 5
