REMARK  Name = ZINC63480053
REMARK  5 active torsions:
REMARK  status: ('A' for Active; 'I' for Inactive)
REMARK    1  A    between atoms: C_1  and  C_2
REMARK    2  A    between atoms: C_2  and  C_4
REMARK    3  A    between atoms: C_7  and  N_10
REMARK    4  A    between atoms: C_15  and  C_32
REMARK    5  A    between atoms: C_32  and  C_33
REMARK                            x       y       z     vdW  Elec       q    Type
REMARK                         _______ _______ _______ _____ _____    ______ ____
ROOT
ATOM      1  N   UNL     1      -4.842  -2.889   0.034  0.00  0.00    -0.210 N 
ATOM      2  C   UNL     1      -6.036  -2.296   0.136  0.00  0.00    +0.232 C 
ATOM      3  O   UNL     1      -6.219  -1.101   0.230  0.00  0.00    -0.274 OA
ATOM      4  C   UNL     1      -7.123  -3.347   0.117  0.00  0.00    +0.107 C 
ATOM      5  C   UNL     1      -7.791  -3.409   1.508  0.00  0.00    +0.072 C 
ATOM      6  N   UNL     1      -7.878  -4.859   1.824  0.00  0.00    -0.295 NA
ATOM      7  C   UNL     1      -6.615  -5.419   1.308  0.00  0.00    +0.136 C 
ATOM      8  C   UNL     1      -6.331  -4.677  -0.022  0.00  0.00    +0.123 C 
ATOM      9  C   UNL     1      -4.890  -4.223  -0.065  0.00  0.00    +0.233 C 
ATOM     10  O   UNL     1      -3.928  -4.953  -0.170  0.00  0.00    -0.274 OA
ATOM     11  C   UNL     1      -6.717  -6.902   1.096  0.00  0.00    +0.003 A 
ATOM     12  C   UNL     1      -7.533  -7.695   0.321  0.00  0.00    +0.008 A 
ATOM     13  C   UNL     1      -7.383  -9.071   0.339  0.00  0.00    +0.000 A 
ATOM     14  C   UNL     1      -6.410  -9.646   1.136  0.00  0.00    +0.002 A 
ATOM     15  C   UNL     1      -5.588  -8.856   1.913  0.00  0.00    +0.023 A 
ATOM     16  C   UNL     1      -5.734  -7.470   1.901  0.00  0.00    +0.039 A 
ATOM     17  N   UNL     1      -5.036  -6.474   2.587  0.00  0.00    -0.283 N 
ATOM     18  C   UNL     1      -5.493  -5.241   2.295  0.00  0.00    +0.243 C 
ATOM     19  O   UNL     1      -5.080  -4.191   2.740  0.00  0.00    -0.273 OA
ATOM     20  H   UNL     1      -7.960  -5.008   2.819  0.00  0.00    +0.124 HD
ATOM     21  H   UNL     1      -4.307  -6.649   3.203  0.00  0.00    +0.155 HD
ENDROOT
BRANCH   1  25
ATOM     22  C   UNL     1      -1.261  -0.755   0.008  0.00  0.00    +0.017 A 
ATOM     23  C   UNL     1      -1.684  -1.431  -1.143  0.00  0.00    +0.013 A 
ATOM     24  C   UNL     1      -2.866  -2.135  -1.129  0.00  0.00    +0.024 A 
ATOM     25  C   UNL     1      -3.641  -2.174   0.026  0.00  0.00    +0.044 A 
ATOM     26  C   UNL     1      -3.225  -1.504   1.172  0.00  0.00    +0.024 A 
ATOM     27  C   UNL     1      -2.041  -0.803   1.170  0.00  0.00    +0.013 A 
BRANCH  22  29
ATOM     28  C   UNL     1       0.839   0.048  -1.252  0.00  0.00    +0.091 C 
ATOM     29  C   UNL     1       0.001  -0.002  -0.001  0.00  0.00    +0.160 C 
ATOM     30  O   UNL     1       0.368   0.579   0.998  0.00  0.00    -0.292 OA
ENDBRANCH  22  29
ENDBRANCH   1  25
BRANCH   5  31
ATOM     31  C   UNL     1      -9.188  -2.788   1.455  0.00  0.00    +0.052 C 
BRANCH  31  32
ATOM     32  C   UNL     1      -9.772  -2.748   2.844  0.00  0.00    -0.040 C 
ATOM     33  C   UNL     1      -9.742  -1.708   3.709  0.00  0.00    -0.001 A 
ATOM     34  C   UNL     1      -9.177  -0.356   3.619  0.00  0.00    +0.010 A 
ATOM     35  C   UNL     1      -9.307   0.480   4.674  0.00  0.00    +0.001 A 
ATOM     36  C   UNL     1      -9.966   0.089   5.848  0.00  0.00    +0.002 A 
ATOM     37  C   UNL     1     -10.510  -1.136   6.005  0.00  0.00    +0.026 A 
ATOM     38  C   UNL     1     -10.433  -2.096   4.959  0.00  0.00    +0.043 A 
ATOM     39  N   UNL     1     -10.873  -3.328   4.871  0.00  0.00    -0.380 N 
ATOM     40  C   UNL     1     -10.516  -3.859   3.550  0.00  0.00    +0.144 C 
ATOM     41  H   UNL     1     -11.357  -3.807   5.561  0.00  0.00    +0.160 HD
ENDBRANCH  31  32
ENDBRANCH   5  31
TORSDOF 4
