REMARK  Name = ZINC49560626
REMARK  3 active torsions:
REMARK  status: ('A' for Active; 'I' for Inactive)
REMARK    1  A    between atoms: C_2  and  S_9
REMARK    2  A    between atoms: N_7  and  N_8
REMARK    3  A    between atoms: S_9  and  N_12
REMARK                            x       y       z     vdW  Elec       q    Type
REMARK                         _______ _______ _______ _____ _____    ______ ____
ROOT
ATOM      1  S   UNL     1       1.208   3.773   0.010  0.00  0.00    +0.104 S 
ATOM      2  O   UNL     1       2.453   4.166  -0.550  0.00  0.00    -0.146 OA
ATOM      3  O   UNL     1      -0.037   4.198  -0.527  0.00  0.00    -0.146 OA
ENDROOT
BRANCH   1   4
ATOM      4  N   UNL     1       1.229   4.255   1.595  0.00  0.00    -0.103 NA
ATOM      5  C   UNL     1       1.248   5.531   1.891  0.00  0.00    +0.192 A 
ATOM      6  N   UNL     1       1.249   6.620   1.054  0.00  0.00    -0.336 N 
ATOM      7  C   UNL     1       1.271   7.892   1.587  0.00  0.00    +0.028 A 
ATOM      8  C   UNL     1       1.292   8.002   2.921  0.00  0.00    +0.012 A 
ATOM      9  S   UNL     1       1.273   6.322   3.493  0.00  0.00    -0.053 S 
ATOM     10  C   UNL     1       1.319   9.253   3.739  0.00  0.00    +0.044 C 
ATOM     11  C   UNL     1       1.687  10.427   2.821  0.00  0.00    +0.006 C 
ATOM     12  C   UNL     1       0.833  10.340   1.553  0.00  0.00    +0.006 C 
ATOM     13  C   UNL     1       1.274   9.143   0.711  0.00  0.00    +0.054 C 
ATOM     14  H   UNL     1       1.234   6.496   0.092  0.00  0.00    +0.168 HD
ENDBRANCH   1   4
BRANCH   1  16
ATOM     15  C   UNL     1      -0.016   1.319   0.009  0.00  0.00    +0.145 A 
ATOM     16  C   UNL     1       1.185   2.011   0.002  0.00  0.00    +0.149 A 
ATOM     17  C   UNL     1       2.367   1.288  -0.014  0.00  0.00    +0.145 A 
ATOM     18  N   UNL     1       2.314  -0.034  -0.020  0.00  0.00    -0.220 NA
ATOM     19  C   UNL     1       1.150  -0.666  -0.013  0.00  0.00    +0.229 A 
ATOM     20  N   UNL     1       0.002  -0.004   0.002  0.00  0.00    -0.220 NA
ATOM     21  N   UNL     1       1.132  -2.050  -0.020  0.00  0.00    -0.252 N 
ATOM     22  H   UNL     1       1.966  -2.546  -0.031  0.00  0.00    +0.169 HD
BRANCH  21  23
ATOM     23  N   UNL     1      -0.060  -2.717  -0.012  0.00  0.00    -0.254 NA
ATOM     24  H   UNL     1       0.085  -3.716  -0.019  0.00  0.00    +0.140 HD
ATOM     25  H   UNL     1      -0.625  -2.439   0.776  0.00  0.00    +0.140 HD
ENDBRANCH  21  23
ENDBRANCH   1  16
TORSDOF 3
