REMARK  Name = ZINC04021034
REMARK  8 active torsions:
REMARK  status: ('A' for Active; 'I' for Inactive)
REMARK    1  A    between atoms: C_8  and  C_11
REMARK    2  A    between atoms: C_11  and  O_13
REMARK    3  A    between atoms: O_13  and  C_14
REMARK    4  A    between atoms: C_14  and  C_15
REMARK    5  A    between atoms: C_15  and  C_17
REMARK    6  A    between atoms: C_15  and  O_28
REMARK    7  A    between atoms: C_17  and  N_64
REMARK    8  A    between atoms: C_18  and  N_64
REMARK                            x       y       z     vdW  Elec       q    Type
REMARK                         _______ _______ _______ _____ _____    ______ ____
ROOT
ATOM      1  C   UNL     1       0.002  -0.004   0.002  0.00  0.00    +0.135 C 
ENDROOT
BRANCH   1   2
ATOM      2  O   UNL     1       0.590  -0.479   1.215  0.00  0.00    -0.390 OA
ATOM      3  H   UNL     1       0.119  -0.205   2.014  0.00  0.00    +0.210 HD
ENDBRANCH   1   2
BRANCH   1   4
ATOM      4  C   UNL     1      -0.019   1.526   0.010  0.00  0.00    +0.261 C 
BRANCH   4   5
ATOM      5  O   UNL     1       1.343   2.028   0.000  0.00  0.00    -0.462 OA
BRANCH   5   6
ATOM      6  C   UNL     1       1.501   3.361   0.006  0.00  0.00    +0.313 C 
ATOM      7  O   UNL     1       0.533   4.084   0.019  0.00  0.00    -0.250 OA
BRANCH   6  15
ATOM      8  C   UNL     1       4.932   5.632  -1.264  0.00  0.00    +0.007 C 
ATOM      9  C   UNL     1       5.033   4.106  -1.273  0.00  0.00    -0.009 C 
ATOM     10  C   UNL     1       5.798   3.638  -0.034  0.00  0.00    +0.007 C 
ATOM     11  C   UNL     1       5.057   4.092   1.225  0.00  0.00    -0.009 C 
ATOM     12  C   UNL     1       4.956   5.619   1.234  0.00  0.00    +0.007 C 
ATOM     13  C   UNL     1       4.191   6.087  -0.005  0.00  0.00    -0.009 C 
ATOM     14  C   UNL     1       2.785   5.483   0.005  0.00  0.00    +0.021 C 
ATOM     15  C   UNL     1       2.886   3.956  -0.004  0.00  0.00    +0.069 C 
ATOM     16  C   UNL     1       3.627   3.502  -1.263  0.00  0.00    +0.021 C 
ATOM     17  C   UNL     1       3.651   3.488   1.235  0.00  0.00    +0.021 C 
ENDBRANCH   6  15
ENDBRANCH   5   6
ENDBRANCH   4   5
ENDBRANCH   1   4
BRANCH   1  18
ATOM     18  C   UNL     1      -1.429  -0.533  -0.113  0.00  0.00    -0.047 C 
BRANCH  18  19
ATOM     19  N   UNL     1      -1.400  -2.008  -0.120  0.00  0.00    +0.385 N 
ATOM     20  H   UNL     1      -0.974  -2.342   0.751  0.00  0.00    -0.085 HD
ATOM     21  H   UNL     1      -0.844  -2.332  -0.920  0.00  0.00    -0.085 HD
BRANCH  19  22
ATOM     22  C   UNL     1      -2.769  -2.546  -0.230  0.00  0.00    -0.067 C 
ATOM     23  C   UNL     1      -3.411  -2.057  -1.530  0.00  0.00    -0.009 C 
ATOM     24  C   UNL     1      -4.828  -2.624  -1.644  0.00  0.00    -0.012 C 
ATOM     25  C   UNL     1      -4.766  -4.153  -1.649  0.00  0.00    +0.007 C 
ATOM     26  C   UNL     1      -4.124  -4.642  -0.350  0.00  0.00    -0.012 C 
ATOM     27  C   UNL     1      -2.708  -4.075  -0.236  0.00  0.00    -0.009 C 
ATOM     28  C   UNL     1      -4.960  -4.169   0.841  0.00  0.00    +0.007 C 
ATOM     29  C   UNL     1      -5.022  -2.640   0.847  0.00  0.00    -0.012 C 
ATOM     30  C   UNL     1      -5.664  -2.151  -0.453  0.00  0.00    +0.007 C 
ATOM     31  C   UNL     1      -3.605  -2.073   0.961  0.00  0.00    -0.009 C 
ENDBRANCH  19  22
ENDBRANCH  18  19
ENDBRANCH   1  18
TORSDOF 8
