REMARK  Name = ZINC10068128
REMARK  7 active torsions:
REMARK  status: ('A' for Active; 'I' for Inactive)
REMARK    1  A    between atoms: C_1  and  N_59
REMARK    2  A    between atoms: C_2  and  N_59
REMARK    3  A    between atoms: C_3  and  C_4
REMARK    4  A    between atoms: C_3  and  N_59
REMARK    5  A    between atoms: C_4  and  C_5
REMARK    6  A    between atoms: C_5  and  N_6
REMARK    7  A    between atoms: C_19  and  C_21
REMARK                            x       y       z     vdW  Elec       q    Type
REMARK                         _______ _______ _______ _____ _____    ______ ____
ROOT
ATOM      1  N   UNL     1      -1.979  -5.587   0.530  0.00  0.00    -0.246 N 
ATOM      2  C   UNL     1      -1.096  -4.552   0.276  0.00  0.00    +0.168 A 
ATOM      3  N   UNL     1      -1.313  -3.258   0.309  0.00  0.00    -0.224 NA
ATOM      4  C   UNL     1      -0.347  -2.352   0.035  0.00  0.00    +0.084 A 
ATOM      5  C   UNL     1      -0.451  -0.941   0.036  0.00  0.00    +0.078 A 
ATOM      6  C   UNL     1       0.633  -0.151  -0.266  0.00  0.00    +0.168 A 
ATOM      7  C   UNL     1       1.869  -0.722  -0.583  0.00  0.00    +0.167 A 
ATOM      8  C   UNL     1       2.002  -2.099  -0.593  0.00  0.00    +0.066 A 
ATOM      9  C   UNL     1       0.919  -2.887  -0.290  0.00  0.00    +0.044 A 
ATOM     10  S   UNL     1       0.630  -4.637  -0.180  0.00  0.00    -0.052 S 
ATOM     11  O   UNL     1       2.763   0.278  -0.838  0.00  0.00    -0.453 OA
ATOM     12  C   UNL     1       2.177   1.467  -0.278  0.00  0.00    +0.466 C 
ATOM     13  O   UNL     1       0.762   1.210  -0.327  0.00  0.00    -0.453 OA
ATOM     14  C   UNL     1      -1.562  -6.866   0.443  0.00  0.00    +0.259 C 
ATOM     15  O   UNL     1      -0.390  -7.110   0.225  0.00  0.00    -0.269 OA
ENDROOT
BRANCH  14  16
ATOM     16  C   UNL     1      -2.523  -7.966   0.613  0.00  0.00    +0.122 A 
ATOM     17  C   UNL     1      -3.255  -8.096   1.787  0.00  0.00    +0.032 A 
ATOM     18  C   UNL     1      -4.166  -9.162   1.902  0.00  0.00    +0.026 A 
ATOM     19  C   UNL     1      -4.963  -9.333   3.120  0.00  0.00    -0.007 A 
ATOM     20  C   UNL     1      -4.851  -8.451   4.197  0.00  0.00    +0.009 A 
ATOM     21  C   UNL     1      -5.612  -8.647   5.313  0.00  0.00    +0.001 A 
ATOM     22  C   UNL     1      -6.499  -9.716   5.392  0.00  0.00    +0.001 A 
ATOM     23  C   UNL     1      -6.631 -10.595   4.359  0.00  0.00    +0.008 A 
ATOM     24  C   UNL     1      -5.863 -10.422   3.196  0.00  0.00    -0.017 A 
ATOM     25  C   UNL     1      -5.972 -11.310   2.108  0.00  0.00    +0.012 A 
ATOM     26  C   UNL     1      -5.228 -11.139   0.987  0.00  0.00    +0.047 A 
ATOM     27  C   UNL     1      -4.322 -10.081   0.854  0.00  0.00    +0.140 A 
ATOM     28  O   UNL     1      -3.605  -9.955  -0.283  0.00  0.00    -0.422 OA
ATOM     29  C   UNL     1      -2.725  -8.954  -0.451  0.00  0.00    +0.350 A 
ATOM     30  O   UNL     1      -2.094  -8.868  -1.489  0.00  0.00    -0.244 OA
ENDBRANCH  14  16
BRANCH   1  31
ATOM     31  C   UNL     1      -3.368  -5.293   0.893  0.00  0.00    +0.114 C 
BRANCH  31  32
ATOM     32  C   UNL     1      -4.201  -5.118  -0.378  0.00  0.00    +0.001 C 
BRANCH  32  33
ATOM     33  C   UNL     1      -5.621  -4.690  -0.002  0.00  0.00    -0.078 C 
BRANCH  33  36
ATOM     34  C   UNL     1      -7.815  -4.234  -0.919  0.00  0.00    -0.097 C 
ATOM     35  C   UNL     1      -5.850  -3.251  -1.935  0.00  0.00    -0.097 C 
ATOM     36  N   UNL     1      -6.387  -4.440  -1.241  0.00  0.00    +0.376 N 
ATOM     37  H   UNL     1      -6.299  -5.255  -1.859  0.00  0.00    -0.083 HD
ENDBRANCH  33  36
ENDBRANCH  32  33
ENDBRANCH  31  32
ENDBRANCH   1  31
TORSDOF 5
