REMARK  Name = ZINC25381910
REMARK  6 active torsions:
REMARK  status: ('A' for Active; 'I' for Inactive)
REMARK    1  A    between atoms: C_1  and  C_2
REMARK    2  A    between atoms: C_2  and  C_4
REMARK    3  A    between atoms: C_2  and  N_17
REMARK    4  A    between atoms: N_6  and  N_7
REMARK    5  A    between atoms: N_7  and  C_8
REMARK    6  A    between atoms: C_18  and  C_20
REMARK                            x       y       z     vdW  Elec       q    Type
REMARK                         _______ _______ _______ _____ _____    ______ ____
ROOT
ATOM      1  C   UNL     1      -1.179   2.059   0.132  0.00  0.00    +0.249 C 
ATOM      2  O   UNL     1      -2.223   1.453   0.021  0.00  0.00    -0.272 OA
ATOM      3  N   UNL     1      -0.008   1.391   0.131  0.00  0.00    -0.235 N 
ATOM      4  H   UNL     1       0.939   1.941   0.231  0.00  0.00    +0.173 HD
ENDROOT
BRANCH   1   6
ATOM      5  C   UNL     1      -0.538   3.954   1.597  0.00  0.00    +0.038 C 
ATOM      6  C   UNL     1      -1.190   3.560   0.270  0.00  0.00    +0.158 C 
BRANCH   6   7
ATOM      7  N   UNL     1      -2.573   4.042   0.243  0.00  0.00    -0.300 N 
ATOM      8  C   UNL     1      -2.838   5.304  -0.150  0.00  0.00    +0.245 C 
ATOM      9  O   UNL     1      -1.931   6.041  -0.481  0.00  0.00    -0.270 OA
ATOM     10  H   UNL     1      -3.394   3.375   0.544  0.00  0.00    +0.150 HD
BRANCH   8  11
ATOM     11  C   UNL     1      -4.234   5.791  -0.177  0.00  0.00    +0.037 A 
ATOM     12  C   UNL     1      -5.279   4.945   0.198  0.00  0.00    +0.013 A 
ATOM     13  C   UNL     1      -6.579   5.408   0.175  0.00  0.00    +0.001 A 
ATOM     14  C   UNL     1      -6.848   6.704  -0.228  0.00  0.00    +0.000 A 
ATOM     15  C   UNL     1      -5.817   7.545  -0.607  0.00  0.00    +0.001 A 
ATOM     16  C   UNL     1      -4.513   7.097  -0.583  0.00  0.00    +0.013 A 
ENDBRANCH   8  11
ENDBRANCH   6   7
ENDBRANCH   1   6
BRANCH   3  17
ATOM     17  N   UNL     1       0.002  -0.004   0.002  0.00  0.00    -0.262 N 
ATOM     18  H   UNL     1      -0.945  -0.563  -0.004  0.00  0.00    +0.170 HD
BRANCH  17  19
ATOM     19  C   UNL     1       1.217  -0.686  -0.119  0.00  0.00    +0.081 A 
ATOM     20  C   UNL     1       1.376  -1.935   0.470  0.00  0.00    +0.066 A 
ATOM     21  C   UNL     1       2.576  -2.609   0.344  0.00  0.00    +0.042 A 
ATOM     22  C   UNL     1       3.623  -2.037  -0.358  0.00  0.00    +0.044 A 
ATOM     23  C   UNL     1       3.469  -0.791  -0.940  0.00  0.00    +0.042 A 
ATOM     24  C   UNL     1       2.270  -0.115  -0.823  0.00  0.00    +0.066 A 
ATOM     25 CL   UNL     1       2.079   1.448  -1.554  0.00  0.00    -0.081 Cl
ATOM     26 CL   UNL     1       5.130  -2.884  -0.508  0.00  0.00    -0.083 Cl
ATOM     27 CL   UNL     1       0.066  -2.651   1.357  0.00  0.00    -0.081 Cl
ENDBRANCH  17  19
ENDBRANCH   3  17
TORSDOF 5
