REMARK  Name = ZINC58997349
REMARK  9 active torsions:
REMARK  status: ('A' for Active; 'I' for Inactive)
REMARK    1  A    between atoms: C_1  and  C_2
REMARK    2  A    between atoms: C_5  and  N_9
REMARK    3  A    between atoms: C_10  and  C_12
REMARK    4  A    between atoms: C_12  and  S_13
REMARK    5  A    between atoms: S_13  and  C_14
REMARK    6  A    between atoms: N_19  and  N_20
REMARK    7  A    between atoms: C_21  and  C_22
REMARK    8  A    between atoms: C_24  and  N_29
REMARK    9  A    between atoms: C_27  and  O_28
REMARK                            x       y       z     vdW  Elec       q    Type
REMARK                         _______ _______ _______ _____ _____    ______ ____
ROOT
ATOM      1  C   UNL     1      -0.358  -8.691  -2.732  0.00  0.00    +0.211 A 
ATOM      2  N   UNL     1      -0.457  -9.561  -3.731  0.00  0.00    -0.186 NA
ATOM      3  C   UNL     1      -0.509 -10.779  -3.197  0.00  0.00    +0.232 A 
ATOM      4  N   UNL     1      -0.439 -10.627  -1.835  0.00  0.00    -0.245 N 
ATOM      5  N   UNL     1      -0.344  -9.367  -1.580  0.00  0.00    -0.144 NA
ATOM      6  N   UNL     1      -0.611 -11.944  -3.869  0.00  0.00    -0.205 N 
ATOM      7  H   UNL     1      -0.642 -12.783  -3.383  0.00  0.00    +0.177 HD
ATOM      8  H   UNL     1      -0.455 -11.342  -1.180  0.00  0.00    +0.192 HD
ENDROOT
BRANCH   6   9
ATOM      9  N   UNL     1      -0.668 -11.942  -5.157  0.00  0.00    -0.187 NA
ATOM     10  C   UNL     1      -0.769 -13.091  -5.820  0.00  0.00    +0.142 C 
BRANCH  10  11
ATOM     11  C   UNL     1      -0.831 -13.090  -7.225  0.00  0.00    +0.038 A 
ATOM     12  C   UNL     1      -0.944 -14.302  -7.941  0.00  0.00    +0.045 A 
ATOM     13  C   UNL     1      -1.003 -14.283  -9.300  0.00  0.00    +0.127 A 
ATOM     14  C   UNL     1      -0.954 -13.085 -10.008  0.00  0.00    +0.036 A 
ATOM     15  C   UNL     1      -0.843 -11.873  -9.358  0.00  0.00    +0.048 A 
ATOM     16  C   UNL     1      -0.785 -11.831  -7.972  0.00  0.00    +0.126 A 
BRANCH  13  17
ATOM     17  N   UNL     1      -1.121 -15.559 -10.041  0.00  0.00    +0.056 N 
ATOM     18  O   UNL     1      -1.168 -16.700  -9.383  0.00  0.00    -0.126 OA
ATOM     19  O   UNL     1      -1.179 -15.555 -11.356  0.00  0.00    -0.126 OA
ENDBRANCH  13  17
BRANCH  16  20
ATOM     20  O   UNL     1      -0.682 -10.648  -7.323  0.00  0.00    -0.506 OA
ATOM     21  H   UNL     1       0.229 -10.359  -7.173  0.00  0.00    +0.292 HD
ENDBRANCH  16  20
ENDBRANCH  10  11
ENDBRANCH   6   9
BRANCH   1  22
ATOM     22  S   UNL     1      -0.257  -6.940  -2.898  0.00  0.00    -0.075 S 
BRANCH  22  23
ATOM     23  C   UNL     1      -0.136  -6.343  -1.190  0.00  0.00    +0.173 C 
BRANCH  23  25
ATOM     24  N   UNL     1       0.057  -4.171  -0.023  0.00  0.00    -0.284 N 
ATOM     25  C   UNL     1      -0.042  -4.839  -1.189  0.00  0.00    +0.228 C 
ATOM     26  O   UNL     1      -0.055  -4.230  -2.238  0.00  0.00    -0.275 OA
ATOM     27  H   UNL     1       0.149  -4.660   0.810  0.00  0.00    +0.155 HD
BRANCH  24  32
ATOM     28  C   UNL     1      -0.063   1.502   0.016  0.00  0.00    +0.044 C 
ATOM     29  C   UNL     1      -0.031  -0.005   0.006  0.00  0.00    -0.049 A 
ATOM     30  C   UNL     1      -0.622  -0.701  -1.033  0.00  0.00    +0.005 A 
ATOM     31  C   UNL     1      -0.594  -2.081  -1.045  0.00  0.00    +0.024 A 
ATOM     32  C   UNL     1       0.028  -2.771  -0.013  0.00  0.00    +0.047 A 
ATOM     33  C   UNL     1       0.621  -2.070   1.029  0.00  0.00    +0.039 A 
ATOM     34  C   UNL     1       0.595  -0.688   1.032  0.00  0.00    +0.020 A 
ATOM     35 BR   UNL     1       1.470  -3.004   2.437  0.00  0.00    -0.048 Br
ENDBRANCH  24  32
ENDBRANCH  23  25
ENDBRANCH  22  23
ENDBRANCH   1  22
TORSDOF 8
