REMARK  Name = ZINC37360083
REMARK  8 active torsions:
REMARK  status: ('A' for Active; 'I' for Inactive)
REMARK    1  A    between atoms: C_1  and  C_2
REMARK    2  A    between atoms: C_2  and  C_3
REMARK    3  A    between atoms: C_2  and  N_4
REMARK    4  A    between atoms: C_12  and  C_27
REMARK    5  A    between atoms: C_14  and  N_26
REMARK    6  A    between atoms: N_15  and  C_19
REMARK    7  A    between atoms: C_32  and  O_33
REMARK    8  A    between atoms: O_33  and  C_34
REMARK                            x       y       z     vdW  Elec       q    Type
REMARK                         _______ _______ _______ _____ _____    ______ ____
ROOT
ATOM      1  N   UNL     1       1.068  -0.600  -0.443  0.00  0.00    +0.383 N 
ATOM      2  C   UNL     1       2.417  -0.076  -0.691  0.00  0.00    -0.059 C 
ATOM      3  C   UNL     1       2.826  -0.381  -2.136  0.00  0.00    +0.089 C 
ATOM      4  N   UNL     1       2.684  -1.827  -2.365  0.00  0.00    -0.303 N 
ATOM      5  C   UNL     1       1.414  -2.468  -1.990  0.00  0.00    +0.089 C 
ATOM      6  C   UNL     1       1.073  -2.064  -0.551  0.00  0.00    -0.059 C 
ATOM      7  C   UNL     1       3.717  -2.564  -2.916  0.00  0.00    +0.220 A 
ATOM      8  N   UNL     1       3.529  -3.867  -3.104  0.00  0.00    -0.213 NA
ATOM      9  C   UNL     1       4.466  -4.647  -3.628  0.00  0.00    +0.092 A 
ATOM     10  C   UNL     1       5.699  -4.060  -3.992  0.00  0.00    +0.086 A 
ATOM     11  C   UNL     1       6.890  -4.511  -4.548  0.00  0.00    +0.131 A 
ATOM     12  N   UNL     1       7.714  -3.449  -4.657  0.00  0.00    -0.216 N 
ATOM     13  N   UNL     1       7.075  -2.300  -4.177  0.00  0.00    -0.144 NA
ATOM     14  C   UNL     1       5.865  -2.613  -3.767  0.00  0.00    +0.189 A 
ATOM     15  N   UNL     1       4.831  -1.936  -3.231  0.00  0.00    -0.193 NA
ATOM     16  H   UNL     1       0.430  -0.215  -1.124  0.00  0.00    -0.081 HD
ENDROOT
BRANCH  12  17
ATOM     17  C   UNL     1       9.014  -3.490  -5.174  0.00  0.00    +0.070 A 
ATOM     18  C   UNL     1       9.812  -4.607  -4.962  0.00  0.00    +0.028 A 
ATOM     19  C   UNL     1      11.095  -4.646  -5.473  0.00  0.00    +0.005 A 
ATOM     20  C   UNL     1      11.586  -3.574  -6.195  0.00  0.00    +0.038 A 
ATOM     21  C   UNL     1      10.794  -2.458  -6.408  0.00  0.00    +0.125 A 
ATOM     22  C   UNL     1       9.507  -2.417  -5.904  0.00  0.00    +0.066 A 
ATOM     23  F   UNL     1      11.277  -1.412  -7.114  0.00  0.00    -0.205 F 
ENDBRANCH  12  17
BRANCH   9  24
ATOM     24  C   UNL     1       4.227  -6.093  -3.824  0.00  0.00    +0.043 A 
ATOM     25  C   UNL     1       5.073  -7.031  -3.230  0.00  0.00    +0.013 A 
ATOM     26  C   UNL     1       4.845  -8.378  -3.416  0.00  0.00    +0.001 A 
ATOM     27  C   UNL     1       3.780  -8.805  -4.191  0.00  0.00    +0.004 A 
ATOM     28  C   UNL     1       2.936  -7.887  -4.785  0.00  0.00    +0.046 A 
ATOM     29  C   UNL     1       3.147  -6.529  -4.602  0.00  0.00    +0.129 A 
BRANCH  29  30
ATOM     30  O   UNL     1       2.315  -5.625  -5.179  0.00  0.00    -0.494 OA
ATOM     31  C   UNL     1       1.236  -6.144  -5.959  0.00  0.00    +0.277 C 
ENDBRANCH  29  30
ENDBRANCH   9  24
BRANCH   1  33
ATOM     32  C   UNL     1       0.628   1.314   1.020  0.00  0.00    -0.014 C 
ATOM     33  C   UNL     1       0.634  -0.211   0.905  0.00  0.00    -0.075 C 
ATOM     34  C   UNL     1      -0.776  -0.747   1.161  0.00  0.00    -0.014 C 
ENDBRANCH   1  33
BRANCH  11  35
ATOM     35  N   UNL     1       7.178  -5.810  -4.921  0.00  0.00    -0.342 N 
ATOM     36  H   UNL     1       6.521  -6.511  -4.784  0.00  0.00    +0.144 HD
ATOM     37  H   UNL     1       8.037  -6.021  -5.320  0.00  0.00    +0.144 HD
ENDBRANCH  11  35
TORSDOF 5
