REMARK  Name = ZINC51256822
REMARK  8 active torsions:
REMARK  status: ('A' for Active; 'I' for Inactive)
REMARK    1  A    between atoms: C_1  and  C_2
REMARK    2  A    between atoms: N_10  and  C_14
REMARK    3  A    between atoms: C_14  and  C_15
REMARK    4  A    between atoms: C_15  and  C_17
REMARK    5  A    between atoms: C_15  and  O_26
REMARK    6  A    between atoms: C_20  and  C_23
REMARK    7  A    between atoms: C_23  and  C_24
REMARK    8  A    between atoms: C_23  and  C_25
REMARK                            x       y       z     vdW  Elec       q    Type
REMARK                         _______ _______ _______ _____ _____    ______ ____
ROOT
ATOM      1  C   UNL     1      -0.019   1.526   0.010  0.00  0.00    +0.007 C 
ATOM      2  C   UNL     1       0.002  -0.004   0.002  0.00  0.00    -0.014 C 
ATOM      3  C   UNL     1       0.718  -0.497  -1.257  0.00  0.00    +0.006 C 
ATOM      4  C   UNL     1       0.727  -2.028  -1.271  0.00  0.00    +0.035 C 
ATOM      5  C   UNL     1       1.439  -2.546  -0.026  0.00  0.00    +0.113 C 
ATOM      6  C   UNL     1       0.751  -2.042   1.238  0.00  0.00    +0.035 C 
ATOM      7  C   UNL     1       0.742  -0.511   1.242  0.00  0.00    +0.006 C 
ATOM      8  C   UNL     1       2.892  -2.132  -0.038  0.00  0.00    +0.247 C 
ATOM      9  O   UNL     1       3.334  -1.003  -0.036  0.00  0.00    -0.273 OA
ATOM     10  N   UNL     1       3.595  -3.284  -0.051  0.00  0.00    -0.221 N 
ATOM     11  C   UNL     1       2.789  -4.353  -0.049  0.00  0.00    +0.309 C 
ATOM     12  O   UNL     1       3.189  -5.500  -0.059  0.00  0.00    -0.252 OA
ATOM     13  N   UNL     1       1.486  -4.014  -0.034  0.00  0.00    -0.285 N 
ATOM     14  H   UNL     1       0.728  -4.620  -0.030  0.00  0.00    +0.151 HD
ENDROOT
BRANCH  10  15
ATOM     15  C   UNL     1       5.058  -3.355  -0.066  0.00  0.00    +0.154 C 
BRANCH  15  16
ATOM     16  C   UNL     1       5.582  -3.387   1.371  0.00  0.00    +0.162 C 
BRANCH  16  17
ATOM     17  C   UNL     1       7.087  -3.461   1.355  0.00  0.00    -0.018 A 
ATOM     18  C   UNL     1       7.835  -2.303   1.254  0.00  0.00    +0.006 A 
ATOM     19  C   UNL     1       9.216  -2.370   1.240  0.00  0.00    +0.004 A 
ATOM     20  C   UNL     1       9.849  -3.596   1.326  0.00  0.00    -0.045 A 
ATOM     21  C   UNL     1       9.101  -4.754   1.428  0.00  0.00    +0.004 A 
ATOM     22  C   UNL     1       7.720  -4.686   1.447  0.00  0.00    +0.006 A 
BRANCH  20  23
ATOM     23  C   UNL     1      11.354  -3.670   1.309  0.00  0.00    +0.013 C 
ATOM     24  C   UNL     1      11.847  -4.315   2.606  0.00  0.00    +0.012 C 
ATOM     25  C   UNL     1      11.810  -4.510   0.115  0.00  0.00    +0.012 C 
ENDBRANCH  20  23
ENDBRANCH  16  17
BRANCH  16  26
ATOM     26  O   UNL     1       5.170  -2.202   2.055  0.00  0.00    -0.386 OA
ATOM     27  H   UNL     1       5.492  -1.384   1.652  0.00  0.00    +0.210 HD
ENDBRANCH  16  26
ENDBRANCH  15  16
ENDBRANCH  10  15
TORSDOF 5
