REMARK  Name = ZINC62474320
REMARK  7 active torsions:
REMARK  status: ('A' for Active; 'I' for Inactive)
REMARK    1  A    between atoms: C_1  and  N_2
REMARK    2  A    between atoms: N_2  and  C_3
REMARK    3  A    between atoms: N_2  and  C_4
REMARK    4  A    between atoms: C_4  and  C_10
REMARK    5  A    between atoms: C_10  and  N_11
REMARK    6  A    between atoms: C_17  and  N_20
REMARK    7  A    between atoms: C_21  and  C_23
REMARK                            x       y       z     vdW  Elec       q    Type
REMARK                         _______ _______ _______ _____ _____    ______ ____
ROOT
ATOM      1  N   UNL     1      -1.364   1.298  -4.209  0.00  0.00    -0.301 N 
ATOM      2  C   UNL     1      -0.920   1.891  -3.083  0.00  0.00    +0.302 C 
ATOM      3  O   UNL     1      -0.410   1.222  -2.205  0.00  0.00    -0.253 OA
ATOM      4  N   UNL     1      -1.042   3.224  -2.930  0.00  0.00    -0.286 N 
ATOM      5  C   UNL     1      -0.458   3.901  -1.764  0.00  0.00    +0.111 C 
ATOM      6  C   UNL     1       0.440   5.041  -2.255  0.00  0.00    +0.041 C 
ATOM      7  C   UNL     1      -0.366   5.960  -3.176  0.00  0.00    +0.076 C 
ATOM      8  C   UNL     1      -0.850   5.168  -4.393  0.00  0.00    +0.041 C 
ATOM      9  C   UNL     1      -1.757   4.030  -3.930  0.00  0.00    +0.111 C 
ATOM     10  H   UNL     1      -1.703   1.838  -4.940  0.00  0.00    +0.150 HD
ENDROOT
BRANCH   7  11
ATOM     11  N   UNL     1       0.480   7.070  -3.620  0.00  0.00    -0.312 N 
ATOM     12  C   UNL     1      -0.082   8.236  -3.996  0.00  0.00    +0.216 C 
ATOM     13  O   UNL     1      -1.287   8.367  -3.966  0.00  0.00    -0.276 OA
ATOM     14  H   UNL     1       1.444   6.966  -3.644  0.00  0.00    +0.149 HD
BRANCH  12  15
ATOM     15  C   UNL     1       0.789   9.379  -4.453  0.00  0.00    +0.075 C 
ATOM     16  C   UNL     1       1.745   9.774  -3.326  0.00  0.00    +0.013 C 
ATOM     17  C   UNL     1       2.628  10.934  -3.790  0.00  0.00    +0.001 C 
ATOM     18  C   UNL     1       1.748  12.131  -4.156  0.00  0.00    +0.000 C 
ATOM     19  C   UNL     1       0.792  11.735  -5.284  0.00  0.00    +0.001 C 
ATOM     20  C   UNL     1      -0.091  10.575  -4.819  0.00  0.00    +0.013 C 
ENDBRANCH  12  15
ENDBRANCH   7  11
BRANCH   1  21
ATOM     21  C   UNL     1      -1.335  -0.162  -4.329  0.00  0.00    +0.094 C 
BRANCH  21  22
ATOM     22  C   UNL     1      -2.008  -0.580  -5.638  0.00  0.00    -0.050 C 
ATOM     23  C   UNL     1      -2.093  -2.106  -5.704  0.00  0.00    -0.010 C 
ATOM     24  C   UNL     1      -0.683  -2.698  -5.643  0.00  0.00    -0.001 C 
ATOM     25  C   UNL     1       0.138  -2.182  -6.827  0.00  0.00    -0.000 C 
ATOM     26  C   UNL     1       0.223  -0.655  -6.761  0.00  0.00    -0.001 C 
ATOM     27  C   UNL     1      -1.187  -0.063  -6.822  0.00  0.00    -0.010 C 
BRANCH  22  29
ATOM     28  C   UNL     1      -4.009  -0.416  -6.951  0.00  0.00    -0.096 C 
ATOM     29  N   UNL     1      -3.361  -0.011  -5.696  0.00  0.00    +0.381 N 
ATOM     30  C   UNL     1      -4.148  -0.503  -4.558  0.00  0.00    -0.096 C 
ATOM     31  H   UNL     1      -3.305   0.996  -5.656  0.00  0.00    -0.082 HD
ENDBRANCH  22  29
ENDBRANCH  21  22
ENDBRANCH   1  21
TORSDOF 5
