REMARK  Name = ZINC36066467
REMARK  13 active torsions:
REMARK  status: ('A' for Active; 'I' for Inactive)
REMARK    1  A    between atoms: C_1  and  C_2
REMARK    2  A    between atoms: C_8  and  N_10
REMARK    3  A    between atoms: C_11  and  C_13
REMARK    4  A    between atoms: C_21  and  C_33
REMARK    5  A    between atoms: N_27  and  C_28
REMARK    6  A    between atoms: C_28  and  C_29
REMARK    7  A    between atoms: C_29  and  N_30
REMARK    8  A    between atoms: N_30  and  C_31
REMARK    9  A    between atoms: N_30  and  C_32
REMARK   10  A    between atoms: N_35  and  C_36
REMARK   11  A    between atoms: C_39  and  C_42
REMARK   12  A    between atoms: C_42  and  C_43
REMARK   13  A    between atoms: C_42  and  C_44
REMARK                            x       y       z     vdW  Elec       q    Type
REMARK                         _______ _______ _______ _____ _____    ______ ____
ROOT
ATOM      1  C   UNL     1       3.778   0.105   2.442  0.00  0.00    +0.198 C 
ATOM      2  C   UNL     1       4.920  -0.823   2.164  0.00  0.00    +0.127 C 
ATOM      3  C   UNL     1       4.823  -2.125   2.939  0.00  0.00    +0.009 C 
ATOM      4  C   UNL     1       5.885  -2.834   2.585  0.00  0.00    +0.004 C 
ATOM      5  C   UNL     1       6.668  -1.925   1.630  0.00  0.00    +0.155 C 
ATOM      6  O   UNL     1       5.564  -1.181   0.964  0.00  0.00    -0.358 OA
ATOM      7  C   UNL     1       7.273  -0.851   2.614  0.00  0.00    +0.123 C 
ATOM      8  C   UNL     1       6.062   0.063   2.806  0.00  0.00    +0.128 C 
ATOM      9  C   UNL     1       5.424   0.429   4.083  0.00  0.00    +0.223 C 
ATOM     10  O   UNL     1       5.981   0.589   5.149  0.00  0.00    -0.275 OA
ATOM     11  N   UNL     1       4.078   0.556   3.837  0.00  0.00    -0.288 N 
ENDROOT
BRANCH   1  13
ATOM     12  N   UNL     1       1.760  -0.661   1.234  0.00  0.00    -0.311 N 
ATOM     13  C   UNL     1       2.462  -0.627   2.384  0.00  0.00    +0.237 C 
ATOM     14  O   UNL     1       2.035  -1.186   3.372  0.00  0.00    -0.274 OA
ATOM     15  H   UNL     1       2.101  -0.214   0.444  0.00  0.00    +0.149 HD
BRANCH  12  22
ATOM     16  C   UNL     1      -0.637   0.701   0.344  0.00  0.00    +0.009 C 
ATOM     17  C   UNL     1      -0.383  -0.781   0.062  0.00  0.00    +0.006 C 
ATOM     18  C   UNL     1       0.342  -0.929  -1.277  0.00  0.00    +0.005 C 
ATOM     19  C   UNL     1       0.595  -2.411  -1.560  0.00  0.00    +0.000 C 
ATOM     20  C   UNL     1       1.459  -3.003  -0.444  0.00  0.00    +0.002 C 
ATOM     21  C   UNL     1       0.734  -2.855   0.895  0.00  0.00    +0.022 C 
ATOM     22  C   UNL     1       0.481  -1.373   1.178  0.00  0.00    +0.076 C 
ENDBRANCH  12  22
ENDBRANCH   1  13
BRANCH   7  23
ATOM     23  C   UNL     1       7.705  -1.486   3.910  0.00  0.00    +0.224 C 
ATOM     24  O   UNL     1       7.190  -1.146   4.954  0.00  0.00    -0.275 OA
ATOM     25  N   UNL     1       8.663  -2.434   3.909  0.00  0.00    -0.285 N 
ATOM     26  H   UNL     1       9.023  -2.759   3.070  0.00  0.00    +0.155 HD
BRANCH  25  27
ATOM     27  C   UNL     1       9.139  -2.949   5.120  0.00  0.00    +0.033 A 
ATOM     28  C   UNL     1       9.526  -4.280   5.207  0.00  0.00    +0.023 A 
ATOM     29  C   UNL     1       9.995  -4.785   6.404  0.00  0.00    +0.006 A 
ATOM     30  C   UNL     1      10.081  -3.966   7.515  0.00  0.00    -0.045 A 
ATOM     31  C   UNL     1       9.697  -2.641   7.432  0.00  0.00    +0.006 A 
ATOM     32  C   UNL     1       9.232  -2.128   6.237  0.00  0.00    +0.023 A 
BRANCH  30  33
ATOM     33  C   UNL     1      10.594  -4.521   8.819  0.00  0.00    +0.013 C 
ATOM     34  C   UNL     1      11.842  -3.746   9.247  0.00  0.00    +0.012 C 
ATOM     35  C   UNL     1       9.513  -4.380   9.893  0.00  0.00    +0.012 C 
ENDBRANCH  30  33
ENDBRANCH  25  27
ENDBRANCH   7  23
BRANCH  11  36
ATOM     36  C   UNL     1       3.088   1.057   4.793  0.00  0.00    +0.090 C 
BRANCH  36  37
ATOM     37  C   UNL     1       2.878   2.557   4.572  0.00  0.00    -0.060 C 
BRANCH  37  38
ATOM     38  N   UNL     1       1.954   3.077   5.589  0.00  0.00    +0.377 N 
ATOM     39  C   UNL     1       1.846   4.536   5.452  0.00  0.00    -0.097 C 
ATOM     40  C   UNL     1       0.630   2.469   5.404  0.00  0.00    -0.097 C 
ATOM     41  H   UNL     1       2.303   2.850   6.508  0.00  0.00    -0.083 HD
ENDBRANCH  37  38
ENDBRANCH  36  37
ENDBRANCH  11  36
TORSDOF 8
