REMARK  Name = ZINC15073244
REMARK  9 active torsions:
REMARK  status: ('A' for Active; 'I' for Inactive)
REMARK    1  A    between atoms: C_1  and  C_2
REMARK    2  A    between atoms: C_3  and  C_12
REMARK    3  A    between atoms: C_4  and  C_11
REMARK    4  A    between atoms: C_7  and  C_8
REMARK    5  A    between atoms: C_8  and  C_10
REMARK    6  A    between atoms: C_18  and  C_21
REMARK    7  A    between atoms: C_21  and  N_22
REMARK    8  A    between atoms: N_22  and  S_23
REMARK    9  A    between atoms: S_23  and  C_26
REMARK                            x       y       z     vdW  Elec       q    Type
REMARK                         _______ _______ _______ _____ _____    ______ ____
ROOT
ATOM      1  C   UNL     1      -0.004  -0.400  -2.543  0.00  0.00    +0.249 C 
ATOM      2  O   UNL     1       1.044  -0.204  -3.128  0.00  0.00    -0.270 OA
ATOM      3  N   UNL     1      -1.177  -0.215  -3.180  0.00  0.00    -0.297 N 
ATOM      4  C   UNL     1      -2.451  -0.442  -2.485  0.00  0.00    +0.108 C 
ATOM      5  C   UNL     1      -3.318   0.814  -2.623  0.00  0.00    +0.019 C 
ATOM      6  C   UNL     1      -3.466   1.167  -4.105  0.00  0.00    +0.008 C 
ATOM      7  C   UNL     1      -2.087   1.464  -4.699  0.00  0.00    +0.022 C 
ATOM      8  C   UNL     1      -1.206   0.222  -4.583  0.00  0.00    +0.113 C 
ENDROOT
BRANCH   1  11
ATOM      9  C   UNL     1      -0.018   1.503   0.010  0.00  0.00    +0.047 C 
ATOM     10  C   UNL     1       0.002  -0.004   0.002  0.00  0.00    -0.010 A 
ATOM     11  C   UNL     1       0.008  -0.839  -1.135  0.00  0.00    +0.061 A 
ATOM     12  C   UNL     1       0.028  -2.146  -0.683  0.00  0.00    +0.026 A 
ATOM     13  N   UNL     1       0.034  -2.137   0.658  0.00  0.00    -0.355 N 
ATOM     14  H   UNL     1       0.047  -2.925   1.224  0.00  0.00    +0.166 HD
ATOM     15  C   UNL     1       0.024  -0.832   1.104  0.00  0.00    +0.086 A 
ATOM     16  C   UNL     1       0.041  -3.376  -1.554  0.00  0.00    +0.064 C 
BRANCH  15  17
ATOM     17  C   UNL     1       0.032  -0.415   2.457  0.00  0.00    +0.176 C 
ATOM     18  O   UNL     1       0.018   0.768   2.728  0.00  0.00    -0.291 OA
ATOM     19  C   UNL     1       0.057  -1.440   3.561  0.00  0.00    +0.093 C 
ENDBRANCH  15  17
ENDBRANCH   1  11
BRANCH   7  20
ATOM     20  C   UNL     1      -2.238   1.850  -6.172  0.00  0.00    +0.111 C 
BRANCH  20  21
ATOM     21  N   UNL     1      -0.935   2.250  -6.709  0.00  0.00    -0.189 NA
ATOM     22  H   UNL     1      -0.203   2.449  -6.105  0.00  0.00    +0.148 HD
BRANCH  21  23
ATOM     23  S   UNL     1      -0.713   2.361  -8.346  0.00  0.00    +0.065 S 
ATOM     24  O   UNL     1       0.627   2.790  -8.545  0.00  0.00    -0.153 OA
ATOM     25  O   UNL     1      -1.219   1.157  -8.907  0.00  0.00    -0.153 OA
BRANCH  23  26
ATOM     26  C   UNL     1      -1.750   3.662  -8.925  0.00  0.00    +0.142 A 
ATOM     27  C   UNL     1      -1.470   4.982  -9.058  0.00  0.00    +0.036 A 
ATOM     28  C   UNL     1      -2.450   5.829  -9.540  0.00  0.00    +0.010 A 
ATOM     29  C   UNL     1      -3.661   5.316  -9.866  0.00  0.00    +0.047 A 
ATOM     30  S   UNL     1      -3.439   3.583  -9.497  0.00  0.00    -0.077 S 
ENDBRANCH  23  26
ENDBRANCH  21  23
ENDBRANCH  20  21
ENDBRANCH   7  20
TORSDOF 6
