REMARK  Name = ZINC35034008
REMARK  14 active torsions:
REMARK  status: ('A' for Active; 'I' for Inactive)
REMARK    1  A    between atoms: C_1  and  C_2
REMARK    2  A    between atoms: C_2  and  C_3
REMARK    3  A    between atoms: C_3  and  C_4
REMARK    4  A    between atoms: C_4  and  N_5
REMARK    5  A    between atoms: N_8  and  C_9
REMARK    6  A    between atoms: N_8  and  C_14
REMARK    7  A    between atoms: C_9  and  C_10
REMARK    8  A    between atoms: C_10  and  N_11
REMARK    9  A    between atoms: N_11  and  C_12
REMARK   10  A    between atoms: N_11  and  C_13
REMARK   11  A    between atoms: C_14  and  C_16
REMARK   12  A    between atoms: C_14  and  C_17
REMARK   13  A    between atoms: N_27  and  C_28
REMARK   14  A    between atoms: C_28  and  C_29
REMARK                            x       y       z     vdW  Elec       q    Type
REMARK                         _______ _______ _______ _____ _____    ______ ____
ROOT
ATOM      1  C   UNL     1       2.245  -5.711  -4.056  0.00  0.00    +0.141 C 
ATOM      2  C   UNL     1       1.685  -5.938  -5.462  0.00  0.00    +0.036 C 
ENDROOT
BRANCH   1   3
ATOM      3  C   UNL     1       3.723  -6.006  -4.052  0.00  0.00    +0.133 A 
ATOM      4  N   UNL     1       4.336  -6.102  -5.192  0.00  0.00    -0.232 NA
ATOM      5  C   UNL     1       5.665  -6.365  -5.266  0.00  0.00    +0.080 A 
ATOM      6  C   UNL     1       6.326  -6.468  -6.491  0.00  0.00    +0.048 A 
ATOM      7  C   UNL     1       7.678  -6.737  -6.513  0.00  0.00    +0.043 A 
ATOM      8  C   UNL     1       8.389  -6.905  -5.331  0.00  0.00    +0.021 A 
ATOM      9  C   UNL     1       7.763  -6.809  -4.120  0.00  0.00    +0.017 A 
ATOM     10  C   UNL     1       6.397  -6.537  -4.069  0.00  0.00    +0.065 A 
ATOM     11  C   UNL     1       5.673  -6.422  -2.795  0.00  0.00    +0.262 A 
ATOM     12  O   UNL     1       6.244  -6.559  -1.729  0.00  0.00    -0.267 OA
ATOM     13  N   UNL     1       4.348  -6.152  -2.854  0.00  0.00    -0.295 N 
ATOM     14 CL   UNL     1       8.501  -6.866  -8.036  0.00  0.00    -0.083 Cl
BRANCH  13  15
ATOM     15  C   UNL     1       3.579  -6.021  -1.614  0.00  0.00    +0.123 C 
ATOM     16  C   UNL     1       3.075  -7.399  -1.178  0.00  0.00    +0.027 C 
ENDBRANCH  13  15
ENDBRANCH   1   3
BRANCH   1  20
ATOM     17  N   UNL     1       0.973  -2.749  -2.289  0.00  0.00    -0.299 N 
ATOM     18  C   UNL     1       1.176  -4.030  -2.653  0.00  0.00    +0.303 C 
ATOM     19  O   UNL     1       0.596  -4.927  -2.072  0.00  0.00    -0.253 OA
ATOM     20  N   UNL     1       2.024  -4.318  -3.661  0.00  0.00    -0.278 N 
ATOM     21  H   UNL     1       1.436  -2.034  -2.753  0.00  0.00    +0.150 HD
BRANCH  17  22
ATOM     22  C   UNL     1       0.051  -2.436  -1.194  0.00  0.00    +0.106 C 
BRANCH  22  23
ATOM     23  C   UNL     1       0.003  -0.921  -0.986  0.00  0.00    +0.018 C 
BRANCH  23  25
ATOM     24  C   UNL     1      -1.008   0.921   0.366  0.00  0.00    +0.004 C 
ATOM     25  C   UNL     1      -0.960  -0.594   0.158  0.00  0.00    -0.002 C 
ENDBRANCH  23  25
ENDBRANCH  22  23
ENDBRANCH  17  22
BRANCH  20  26
ATOM     26  C   UNL     1       2.724  -3.238  -4.360  0.00  0.00    +0.091 C 
BRANCH  26  27
ATOM     27  C   UNL     1       3.978  -2.850  -3.575  0.00  0.00    -0.060 C 
BRANCH  27  28
ATOM     28  N   UNL     1       4.607  -1.680  -4.202  0.00  0.00    +0.377 N 
ATOM     29  C   UNL     1       5.741  -1.235  -3.382  0.00  0.00    -0.097 C 
ATOM     30  C   UNL     1       5.084  -2.041  -5.544  0.00  0.00    -0.097 C 
ATOM     31  H   UNL     1       3.931  -0.934  -4.276  0.00  0.00    -0.083 HD
ENDBRANCH  27  28
ENDBRANCH  26  27
ENDBRANCH  20  26
ENDBRANCH   1  20
TORSDOF 9
