REMARK  Name = ZINC21969334
REMARK  11 active torsions:
REMARK  status: ('A' for Active; 'I' for Inactive)
REMARK    1  A    between atoms: C_1  and  C_2
REMARK    2  A    between atoms: C_5  and  C_8
REMARK    3  A    between atoms: N_14  and  C_15
REMARK    4  A    between atoms: C_15  and  C_16
REMARK    5  A    between atoms: C_16  and  C_17
REMARK    6  A    between atoms: N_19  and  N_20
REMARK    7  A    between atoms: C_21  and  C_23
REMARK    8  A    between atoms: C_30  and  C_33
REMARK    9  A    between atoms: C_33  and  C_34
REMARK   10  A    between atoms: C_33  and  C_35
REMARK   11  A    between atoms: C_33  and  C_36
REMARK                            x       y       z     vdW  Elec       q    Type
REMARK                         _______ _______ _______ _____ _____    ______ ____
ROOT
ATOM      1  C   UNL     1       4.599   5.257  -0.190  0.00  0.00    +0.231 C 
ATOM      2  O   UNL     1       4.420   5.534  -1.357  0.00  0.00    -0.274 OA
ATOM      3  N   UNL     1       5.005   6.209   0.674  0.00  0.00    -0.234 N 
ATOM      4  H   UNL     1       5.167   5.957   1.732  0.00  0.00    +0.173 HD
ENDROOT
BRANCH   3   5
ATOM      5  N   UNL     1       5.220   7.518   0.224  0.00  0.00    -0.230 N 
ATOM      6  C   UNL     1       5.625   8.469   1.088  0.00  0.00    +0.267 C 
ATOM      7  O   UNL     1       5.804   8.191   2.259  0.00  0.00    -0.268 OA
ATOM      8  H   UNL     1       5.057   7.769  -0.835  0.00  0.00    +0.173 HD
BRANCH   6   9
ATOM      9  C   UNL     1       5.850   9.839   0.617  0.00  0.00    +0.076 A 
ATOM     10  C   UNL     1       6.256  10.951   1.331  0.00  0.00    +0.024 A 
ATOM     11  C   UNL     1       6.402  12.149   0.650  0.00  0.00    -0.036 A 
ATOM     12  C   UNL     1       6.120  12.135  -0.686  0.00  0.00    -0.006 A 
ATOM     13  S   UNL     1       5.664  10.509  -1.027  0.00  0.00    -0.088 S 
ATOM     14  C   UNL     1       6.195  13.289  -1.637  0.00  0.00    +0.043 C 
ATOM     15  C   UNL     1       6.996  14.416  -0.968  0.00  0.00    +0.009 C 
ATOM     16  C   UNL     1       6.461  14.624   0.451  0.00  0.00    -0.001 C 
ATOM     17  C   UNL     1       6.849  13.438   1.334  0.00  0.00    +0.040 C 
BRANCH  16  18
ATOM     18  C   UNL     1       7.055  15.908   1.035  0.00  0.00    -0.035 C 
ATOM     19  C   UNL     1       8.580  15.787   1.086  0.00  0.00    +0.011 C 
ATOM     20  C   UNL     1       6.668  17.096   0.152  0.00  0.00    +0.011 C 
ATOM     21  C   UNL     1       6.513  16.124   2.449  0.00  0.00    +0.011 C 
ENDBRANCH  16  18
ENDBRANCH   6   9
ENDBRANCH   3   5
BRANCH   1  22
ATOM     22  C   UNL     1       4.368   3.849   0.294  0.00  0.00    +0.119 C 
BRANCH  22  23
ATOM     23  C   UNL     1       3.917   2.974  -0.877  0.00  0.00    +0.135 C 
BRANCH  23  30
ATOM     24  C   UNL     1       2.481   1.076  -0.006  0.00  0.00    +0.163 A 
ATOM     25  N   UNL     1       2.668  -0.163   0.351  0.00  0.00    -0.153 NA
ATOM     26  N   UNL     1       4.025  -0.466   0.174  0.00  0.00    -0.254 N 
ATOM     27  H   UNL     1       4.400  -1.472   0.412  0.00  0.00    +0.191 HD
ATOM     28  C   UNL     1       4.631   0.646  -0.291  0.00  0.00    +0.176 A 
ATOM     29  S   UNL     1       6.294   0.809  -0.666  0.00  0.00    -0.011 S 
ATOM     30  N   UNL     1       3.692   1.605  -0.407  0.00  0.00    -0.303 N 
BRANCH  24  35
ATOM     31  C   UNL     1      -2.544   3.882   0.100  0.00  0.00    +0.044 C 
ATOM     32  C   UNL     1      -1.228   3.147   0.072  0.00  0.00    -0.050 A 
ATOM     33  C   UNL     1      -1.212   1.764   0.039  0.00  0.00    +0.004 A 
ATOM     34  C   UNL     1      -0.011   1.086   0.018  0.00  0.00    +0.012 A 
ATOM     35  C   UNL     1       1.189   1.798   0.021  0.00  0.00    +0.019 A 
ATOM     36  C   UNL     1       1.166   3.192   0.050  0.00  0.00    +0.012 A 
ATOM     37  C   UNL     1      -0.042   3.859   0.076  0.00  0.00    +0.004 A 
ENDBRANCH  24  35
ENDBRANCH  23  30
ENDBRANCH  22  23
ENDBRANCH   1  22
TORSDOF 7
