REMARK  Name = ZINC48985820
REMARK  7 active torsions:
REMARK  status: ('A' for Active; 'I' for Inactive)
REMARK    1  A    between atoms: C_1  and  N_2
REMARK    2  A    between atoms: C_4  and  C_7
REMARK    3  A    between atoms: C_7  and  N_8
REMARK    4  A    between atoms: N_8  and  C_9
REMARK    5  A    between atoms: N_8  and  C_10
REMARK    6  A    between atoms: C_11  and  C_18
REMARK    7  A    between atoms: C_18  and  N_19
REMARK                            x       y       z     vdW  Elec       q    Type
REMARK                         _______ _______ _______ _____ _____    ______ ____
ROOT
ATOM      1  C   UNL     1       1.470  -3.478  -2.914  0.00  0.00    +0.142 A 
ATOM      2  C   UNL     1       2.679  -3.846  -3.387  0.00  0.00    +0.048 A 
ATOM      3  N   UNL     1       2.928  -3.097  -4.540  0.00  0.00    -0.298 N 
ATOM      4  C   UNL     1       3.921  -2.964  -5.485  0.00  0.00    +0.100 A 
ATOM      5  C   UNL     1       3.795  -2.100  -6.491  0.00  0.00    +0.067 A 
ATOM      6  S   UNL     1       2.194  -1.381  -6.161  0.00  0.00    -0.058 S 
ATOM      7  C   UNL     1       1.821  -2.305  -4.688  0.00  0.00    +0.179 A 
ATOM      8  N   UNL     1       0.966  -2.538  -3.732  0.00  0.00    -0.206 NA
ENDROOT
BRANCH   1   9
ATOM      9  N   UNL     1       0.844  -3.992  -1.768  0.00  0.00    -0.312 N 
ATOM     10  C   UNL     1       1.564  -4.921  -0.894  0.00  0.00    +0.131 C 
BRANCH   9  11
ATOM     11  C   UNL     1      -0.530  -3.599  -1.446  0.00  0.00    +0.144 C 
BRANCH  11  15
ATOM     12  C   UNL     1      -0.508   1.179   0.068  0.00  0.00    +0.172 C 
ATOM     13  N   UNL     1      -0.501  -0.286   0.077  0.00  0.00    -0.274 N 
ATOM     14  C   UNL     1      -0.528  -1.087  -1.008  0.00  0.00    +0.113 A 
ATOM     15  C   UNL     1      -0.510  -2.369  -0.576  0.00  0.00    +0.007 A 
ATOM     16  C   UNL     1      -0.470  -2.351   0.822  0.00  0.00    +0.139 A 
ATOM     17  N   UNL     1      -0.459  -1.103   1.215  0.00  0.00    -0.180 NA
ENDBRANCH  11  15
ENDBRANCH   9  11
ENDBRANCH   1   9
BRANCH   2  18
ATOM     18  C   UNL     1       3.595  -4.878  -2.781  0.00  0.00    -0.028 C 
BRANCH  18  19
ATOM     19  N   UNL     1       4.548  -4.218  -1.879  0.00  0.00    +0.382 N 
ATOM     20  H   UNL     1       5.161  -4.909  -1.473  0.00  0.00    -0.090 HD
ATOM     21  H   UNL     1       5.094  -3.547  -2.399  0.00  0.00    -0.090 HD
ATOM     22  H   UNL     1       4.043  -3.744  -1.145  0.00  0.00    -0.090 HD
ENDBRANCH  18  19
ENDBRANCH   2  18
TORSDOF 5
