REMARK  Name = ZINC64015599
REMARK  5 active torsions:
REMARK  status: ('A' for Active; 'I' for Inactive)
REMARK    1  A    between atoms: C_6  and  C_11
REMARK    2  A    between atoms: C_15  and  N_17
REMARK    3  A    between atoms: C_20  and  N_23
REMARK    4  A    between atoms: N_23  and  C_24
REMARK    5  A    between atoms: C_24  and  C_25
REMARK                            x       y       z     vdW  Elec       q    Type
REMARK                         _______ _______ _______ _____ _____    ______ ____
ROOT
ATOM      1  N   UNL     1       5.067  -6.025   2.120  0.00  0.00    -0.330 N 
ATOM      2  C   UNL     1       4.976  -6.763   0.853  0.00  0.00    +0.103 C 
ATOM      3  C   UNL     1       6.367  -7.291   0.488  0.00  0.00    +0.003 C 
ATOM      4  C   UNL     1       6.918  -8.114   1.656  0.00  0.00    -0.069 C 
ATOM      5  C   UNL     1       7.048  -7.222   2.893  0.00  0.00    +0.003 C 
ATOM      6  C   UNL     1       5.671  -6.691   3.283  0.00  0.00    +0.103 C 
ENDROOT
BRANCH   1  11
ATOM      7  C   UNL     1       4.114  -2.772   3.538  0.00  0.00    -0.020 A 
ATOM      8  C   UNL     1       3.659  -2.118   2.408  0.00  0.00    +0.006 A 
ATOM      9  C   UNL     1       3.670  -2.758   1.183  0.00  0.00    +0.002 A 
ATOM     10  C   UNL     1       4.137  -4.054   1.084  0.00  0.00    +0.023 A 
ATOM     11  C   UNL     1       4.595  -4.714   2.217  0.00  0.00    +0.030 A 
ATOM     12  C   UNL     1       4.587  -4.066   3.446  0.00  0.00    +0.029 A 
BRANCH   7  18
ATOM     13  C   UNL     1       4.370   2.530   5.435  0.00  0.00    +0.001 A 
ATOM     14  C   UNL     1       2.980   2.353   5.466  0.00  0.00    +0.002 A 
ATOM     15  C   UNL     1       2.396   1.143   5.337  0.00  0.00    +0.026 A 
ATOM     16  C   UNL     1       3.190  -0.023   5.161  0.00  0.00    +0.043 A 
ATOM     17  N   UNL     1       2.867  -1.286   5.016  0.00  0.00    -0.374 N 
ATOM     18  C   UNL     1       4.098  -2.070   4.872  0.00  0.00    +0.133 C 
ATOM     19  C   UNL     1       5.235  -1.076   4.952  0.00  0.00    +0.012 C 
ATOM     20  C   UNL     1       4.661   0.137   5.125  0.00  0.00    -0.004 A 
ATOM     21  C   UNL     1       5.216   1.488   5.272  0.00  0.00    +0.010 A 
ATOM     22  H   UNL     1       1.965  -1.641   5.007  0.00  0.00    +0.161 HD
ENDBRANCH   7  18
ENDBRANCH   1  11
BRANCH   4  23
ATOM     23  N   UNL     1       8.237  -8.649   1.297  0.00  0.00    +0.383 N 
ATOM     24  H   UNL     1       8.166  -9.171   0.436  0.00  0.00    -0.085 HD
ATOM     25  H   UNL     1       8.888  -7.888   1.176  0.00  0.00    -0.085 HD
BRANCH  23  26
ATOM     26  C   UNL     1       8.713  -9.536   2.368  0.00  0.00    -0.036 C 
BRANCH  26  27
ATOM     27  C   UNL     1      10.088 -10.094   1.994  0.00  0.00    +0.197 C 
ATOM     28  N   UNL     1      11.049  -8.993   1.773  0.00  0.00    -0.202 NA
ATOM     29  N   UNL     1      11.436  -9.133   0.465  0.00  0.00    -0.182 N 
ATOM     30  N   UNL     1      10.777 -10.228  -0.093  0.00  0.00    -0.070 NA
ATOM     31  N   UNL     1      10.024 -10.795   0.705  0.00  0.00    -0.152 NA
ATOM     32  H   UNL     1      11.840  -9.073   2.394  0.00  0.00    +0.148 HD
ATOM     33  H   UNL     1      12.068  -8.561   0.002  0.00  0.00    +0.191 HD
ENDBRANCH  26  27
ENDBRANCH  23  26
ENDBRANCH   4  23
TORSDOF 5
