REMARK  Name = ZINC51359368
REMARK  5 active torsions:
REMARK  status: ('A' for Active; 'I' for Inactive)
REMARK    1  A    between atoms: C_1  and  C_2
REMARK    2  A    between atoms: C_3  and  S_9
REMARK    3  A    between atoms: C_4  and  C_8
REMARK    4  A    between atoms: S_9  and  N_12
REMARK    5  A    between atoms: C_16  and  C_18
REMARK                            x       y       z     vdW  Elec       q    Type
REMARK                         _______ _______ _______ _____ _____    ______ ____
ROOT
ATOM      1  N   UNL     1       1.720   0.084  -3.379  0.00  0.00    -0.175 NA
ATOM      2  C   UNL     1       2.679   1.203  -3.367  0.00  0.00    +0.110 C 
ATOM      3  C   UNL     1       4.062   0.538  -3.156  0.00  0.00    +0.019 C 
ATOM      4  C   UNL     1       3.911  -0.765  -3.985  0.00  0.00    +0.020 C 
ATOM      5  C   UNL     1       2.431  -1.143  -3.764  0.00  0.00    +0.066 C 
ENDROOT
BRANCH   5   6
ATOM      6  C   UNL     1       1.841  -1.702  -5.060  0.00  0.00    -0.053 C 
ATOM      7  C   UNL     1       2.631  -2.952  -5.500  0.00  0.00    -0.016 C 
ATOM      8  C   UNL     1       2.683  -2.807  -7.044  0.00  0.00    -0.021 C 
ATOM      9  C   UNL     1       2.811  -1.272  -7.209  0.00  0.00    -0.082 C 
ATOM     10  N   UNL     1       1.960  -0.703  -6.138  0.00  0.00    +0.382 N 
ATOM     11  H   UNL     1       1.046  -0.489  -6.505  0.00  0.00    -0.085 HD
ATOM     12  H   UNL     1       2.385   0.137  -5.776  0.00  0.00    -0.085 HD
ENDBRANCH   5   6
BRANCH   1  13
ATOM     13  S   UNL     1       0.108   0.191  -3.012  0.00  0.00    +0.064 S 
ATOM     14  O   UNL     1      -0.544  -0.837  -3.744  0.00  0.00    -0.153 OA
ATOM     15  O   UNL     1      -0.248   1.561  -3.139  0.00  0.00    -0.153 OA
BRANCH  13  18
ATOM     16  C   UNL     1       0.203   2.139  -0.368  0.00  0.00    +0.067 C 
ATOM     17  C   UNL     1      -0.014   0.651  -0.270  0.00  0.00    +0.060 A 
ATOM     18  C   UNL     1      -0.066  -0.218  -1.307  0.00  0.00    +0.148 A 
ATOM     19  C   UNL     1      -0.282  -1.497  -0.785  0.00  0.00    +0.086 A 
ATOM     20  N   UNL     1      -0.358  -1.401   0.517  0.00  0.00    -0.177 NA
ATOM     21  N   UNL     1      -0.186  -0.055   0.867  0.00  0.00    -0.280 N 
ATOM     22  H   UNL     1      -0.192   0.306   1.767  0.00  0.00    +0.189 HD
ATOM     23  C   UNL     1      -0.407  -2.768  -1.585  0.00  0.00    +0.069 C 
ENDBRANCH  13  18
ENDBRANCH   1  13
TORSDOF 3
