REMARK  Name = ZINC21710302
REMARK  12 active torsions:
REMARK  status: ('A' for Active; 'I' for Inactive)
REMARK    1  A    between atoms: C_1  and  C_2
REMARK    2  A    between atoms: C_2  and  C_3
REMARK    3  A    between atoms: C_3  and  C_5
REMARK    4  A    between atoms: C_3  and  N_6
REMARK    5  A    between atoms: C_7  and  C_9
REMARK    6  A    between atoms: C_16  and  C_18
REMARK    7  A    between atoms: C_22  and  N_24
REMARK    8  A    between atoms: N_24  and  S_25
REMARK    9  A    between atoms: S_25  and  C_28
REMARK   10  A    between atoms: C_29  and  C_36
REMARK   11  A    between atoms: C_31  and  C_35
REMARK   12  A    between atoms: C_33  and  C_34
REMARK                            x       y       z     vdW  Elec       q    Type
REMARK                         _______ _______ _______ _____ _____    ______ ____
ROOT
ATOM      1  C   UNL     1       3.535   6.586  -1.419  0.00  0.00    +0.039 A 
ATOM      2  C   UNL     1       4.418   5.654  -0.870  0.00  0.00    +0.013 A 
ATOM      3  C   UNL     1       5.700   6.035  -0.529  0.00  0.00    +0.003 A 
ATOM      4  C   UNL     1       6.115   7.338  -0.730  0.00  0.00    +0.024 A 
ATOM      5  C   UNL     1       5.245   8.273  -1.277  0.00  0.00    +0.049 A 
ATOM      6  C   UNL     1       3.956   7.899  -1.627  0.00  0.00    +0.037 A 
ENDROOT
BRANCH   1  13
ATOM      7  C   UNL     1      -0.856   5.585  -0.051  0.00  0.00    +0.092 C 
ATOM      8  C   UNL     1      -0.332   4.953   1.240  0.00  0.00    +0.016 C 
ATOM      9  C   UNL     1       1.101   5.426   1.497  0.00  0.00    +0.020 C 
ATOM     10  C   UNL     1       1.998   4.975   0.340  0.00  0.00    +0.108 C 
ATOM     11  N   UNL     1       1.420   5.458  -0.922  0.00  0.00    -0.297 N 
ATOM     12  C   UNL     1       0.018   5.137  -1.226  0.00  0.00    +0.120 C 
ATOM     13  C   UNL     1       2.161   6.180  -1.785  0.00  0.00    +0.247 C 
ATOM     14  O   UNL     1       1.700   6.499  -2.863  0.00  0.00    -0.270 OA
BRANCH   7  16
ATOM     15  N   UNL     1      -2.946   5.575  -1.375  0.00  0.00    -0.312 N 
ATOM     16  C   UNL     1      -2.278   5.145  -0.286  0.00  0.00    +0.218 C 
ATOM     17  O   UNL     1      -2.820   4.400   0.503  0.00  0.00    -0.275 OA
ATOM     18  H   UNL     1      -2.454   6.251  -2.090  0.00  0.00    +0.149 HD
BRANCH  15  19
ATOM     19  C   UNL     1      -4.326   5.142  -1.606  0.00  0.00    +0.070 C 
ATOM     20  C   UNL     1      -4.323   3.790  -2.322  0.00  0.00    +0.028 C 
BRANCH  19  22
ATOM     21  C   UNL     1      -5.159   7.496  -1.706  0.00  0.00    +0.005 C 
ATOM     22  C   UNL     1      -5.046   6.177  -2.473  0.00  0.00    +0.018 C 
ENDBRANCH  19  22
ENDBRANCH  15  19
ENDBRANCH   7  16
ENDBRANCH   1  13
BRANCH   5  23
ATOM     23  N   UNL     1       5.670   9.588  -1.479  0.00  0.00    -0.216 N 
ATOM     24  H   UNL     1       5.293  10.394  -0.831  0.00  0.00    +0.174 HD
BRANCH  23  25
ATOM     25  S   UNL     1       6.740   9.936  -2.694  0.00  0.00    +0.073 S 
ATOM     26  O   UNL     1       6.794  11.352  -2.795  0.00  0.00    -0.150 OA
ATOM     27  O   UNL     1       7.895   9.144  -2.456  0.00  0.00    -0.150 OA
BRANCH  25  28
ATOM     28  C   UNL     1       6.029   9.351  -4.197  0.00  0.00    +0.114 A 
ATOM     29  C   UNL     1       6.356   8.095  -4.673  0.00  0.00    -0.023 A 
ATOM     30  C   UNL     1       5.795   7.634  -5.849  0.00  0.00    +0.008 A 
ATOM     31  C   UNL     1       4.915   8.433  -6.555  0.00  0.00    -0.050 A 
ATOM     32  C   UNL     1       4.592   9.692  -6.081  0.00  0.00    +0.008 A 
ATOM     33  C   UNL     1       5.149  10.150  -4.902  0.00  0.00    -0.023 A 
ATOM     34  C   UNL     1       4.798  11.522  -4.386  0.00  0.00    +0.046 C 
ATOM     35  C   UNL     1       4.307   7.933  -7.840  0.00  0.00    +0.044 C 
ATOM     36  C   UNL     1       7.320   7.226  -3.907  0.00  0.00    +0.046 C 
ENDBRANCH  25  28
ENDBRANCH  23  25
ENDBRANCH   5  23
TORSDOF 7
