REMARK  Name = ZINC05952925
REMARK  8 active torsions:
REMARK  status: ('A' for Active; 'I' for Inactive)
REMARK    1  A    between atoms: C_1  and  C_2
REMARK    2  A    between atoms: C_2  and  O_3
REMARK    3  A    between atoms: O_3  and  C_4
REMARK    4  A    between atoms: C_4  and  C_6
REMARK    5  A    between atoms: C_8  and  C_20
REMARK    6  A    between atoms: C_14  and  C_15
REMARK    7  A    between atoms: C_14  and  O_19
REMARK    8  A    between atoms: C_23  and  C_26
REMARK                            x       y       z     vdW  Elec       q    Type
REMARK                         _______ _______ _______ _____ _____    ______ ____
ROOT
ATOM      1  C   UNL     1      -2.990  -2.474  -0.707  0.00  0.00    +0.181 C 
ATOM      2  C   UNL     1      -2.777  -3.898  -0.180  0.00  0.00    +0.121 C 
ATOM      3  N   UNL     1      -1.942  -4.640  -1.125  0.00  0.00    -0.319 N 
ATOM      4  C   UNL     1      -1.947  -4.354  -2.436  0.00  0.00    +0.133 C 
ATOM      5  S   UNL     1      -0.955  -5.276  -3.482  0.00  0.00    -0.019 S 
ATOM      6  N   UNL     1      -2.700  -3.375  -2.958  0.00  0.00    -0.291 N 
ATOM      7  C   UNL     1      -3.582  -2.556  -2.118  0.00  0.00    +0.244 C 
ATOM      8  H   UNL     1      -1.372  -5.353  -0.797  0.00  0.00    +0.148 HD
ATOM      9  H   UNL     1      -2.662  -3.204  -3.912  0.00  0.00    +0.151 HD
ENDROOT
BRANCH   2  10
ATOM     10  C   UNL     1      -4.111  -4.585  -0.036  0.00  0.00    -0.026 A 
ATOM     11  C   UNL     1      -4.562  -5.428  -1.037  0.00  0.00    +0.006 A 
ATOM     12  C   UNL     1      -5.781  -6.061  -0.913  0.00  0.00    +0.015 A 
ATOM     13  C   UNL     1      -6.561  -5.849   0.227  0.00  0.00    +0.063 A 
ATOM     14  C   UNL     1      -6.098  -4.997   1.234  0.00  0.00    +0.015 A 
ATOM     15  C   UNL     1      -4.875  -4.376   1.098  0.00  0.00    +0.006 A 
BRANCH  13  16
ATOM     16  C   UNL     1      -7.866  -6.522   0.367  0.00  0.00    +0.387 C 
ATOM     17  O   UNL     1      -8.268  -7.267  -0.515  0.00  0.00    -0.241 OA
ATOM     18  O   UNL     1      -8.547  -6.335   1.366  0.00  0.00    -0.241 OA
ENDBRANCH  13  16
ENDBRANCH   2  10
BRANCH   7  19
ATOM     19  C   UNL     1      -3.697  -1.148  -2.707  0.00  0.00    +0.436 C 
ATOM     20  F   UNL     1      -2.420  -0.590  -2.833  0.00  0.00    -0.166 F 
ATOM     21  F   UNL     1      -4.302  -1.217  -3.966  0.00  0.00    -0.166 F 
ATOM     22  F   UNL     1      -4.473  -0.350  -1.859  0.00  0.00    -0.166 F 
ENDBRANCH   7  19
BRANCH   1  23
ATOM     23  C   UNL     1      -1.669  -1.750  -0.754  0.00  0.00    +0.317 C 
ATOM     24  O   UNL     1      -0.758  -2.197  -1.409  0.00  0.00    -0.250 OA
BRANCH  23  25
ATOM     25  O   UNL     1      -1.505  -0.608  -0.068  0.00  0.00    -0.465 OA
BRANCH  25  27
ATOM     26  C   UNL     1      -0.231   1.303   0.685  0.00  0.00    +0.048 C 
ATOM     27  C   UNL     1      -0.227   0.025  -0.157  0.00  0.00    +0.229 C 
ENDBRANCH  25  27
ENDBRANCH  23  25
ENDBRANCH   1  23
BRANCH   7  28
ATOM     28  O   UNL     1      -4.877  -3.157  -2.058  0.00  0.00    -0.364 OA
ATOM     29  H   UNL     1      -5.312  -3.240  -2.918  0.00  0.00    +0.212 HD
ENDBRANCH   7  28
TORSDOF 7
