REMARK  Name = ZINC48876470
REMARK  8 active torsions:
REMARK  status: ('A' for Active; 'I' for Inactive)
REMARK    1  A    between atoms: C_1  and  C_2
REMARK    2  A    between atoms: C_2  and  C_3
REMARK    3  A    between atoms: C_3  and  C_4
REMARK    4  A    between atoms: C_4  and  N_5
REMARK    5  A    between atoms: N_14  and  C_29
REMARK    6  A    between atoms: C_15  and  C_17
REMARK    7  A    between atoms: C_20  and  C_23
REMARK    8  A    between atoms: C_29  and  C_30
REMARK                            x       y       z     vdW  Elec       q    Type
REMARK                         _______ _______ _______ _____ _____    ______ ____
ROOT
ATOM      1  N   UNL     1       1.466  -2.655   2.742  0.00  0.00    -0.277 N 
ATOM      2  C   UNL     1       2.827  -2.791   2.518  0.00  0.00    +0.169 A 
ATOM      3  C   UNL     1       3.639  -3.220   3.563  0.00  0.00    +0.152 A 
ATOM      4  C   UNL     1       3.054  -3.504   4.816  0.00  0.00    +0.280 A 
ATOM      5  O   UNL     1       3.744  -3.881   5.746  0.00  0.00    -0.265 OA
ATOM      6  N   UNL     1       1.722  -3.352   4.971  0.00  0.00    -0.273 N 
ATOM      7  H   UNL     1       1.317  -3.546   5.830  0.00  0.00    +0.173 HD
ATOM      8  C   UNL     1       0.950  -2.932   3.954  0.00  0.00    +0.331 A 
ATOM      9  O   UNL     1      -0.246  -2.803   4.133  0.00  0.00    -0.246 OA
ATOM     10  N   UNL     1       4.927  -3.265   3.066  0.00  0.00    -0.318 N 
ATOM     11  C   UNL     1       4.860  -2.870   1.764  0.00  0.00    +0.147 A 
ATOM     12  N   UNL     1       3.608  -2.593   1.457  0.00  0.00    -0.209 NA
ENDROOT
BRANCH  11  13
ATOM     13  C   UNL     1       6.010  -2.768   0.842  0.00  0.00    +0.054 A 
ATOM     14  C   UNL     1       7.197  -3.466   1.094  0.00  0.00    +0.126 A 
ATOM     15  N   UNL     1       8.201  -3.349   0.246  0.00  0.00    -0.235 NA
ATOM     16  C   UNL     1       8.096  -2.582  -0.832  0.00  0.00    +0.160 A 
ATOM     17  N   UNL     1       6.988  -1.904  -1.105  0.00  0.00    -0.235 NA
ATOM     18  C   UNL     1       5.938  -1.974  -0.310  0.00  0.00    +0.126 A 
BRANCH  16  19
ATOM     19  C   UNL     1       9.249  -2.479  -1.758  0.00  0.00    +0.019 A 
ATOM     20  C   UNL     1      10.422  -3.186  -1.495  0.00  0.00    +0.011 A 
ATOM     21  C   UNL     1      11.492  -3.087  -2.361  0.00  0.00    +0.001 A 
ATOM     22  C   UNL     1      11.403  -2.288  -3.487  0.00  0.00    +0.000 A 
ATOM     23  C   UNL     1      10.242  -1.585  -3.752  0.00  0.00    +0.001 A 
ATOM     24  C   UNL     1       9.163  -1.681  -2.897  0.00  0.00    +0.011 A 
ENDBRANCH  16  19
ENDBRANCH  11  13
BRANCH  10  25
ATOM     25  C   UNL     1       6.133  -3.660   3.798  0.00  0.00    +0.121 C 
ATOM     26  C   UNL     1       6.286  -5.182   3.745  0.00  0.00    +0.027 C 
ENDBRANCH  10  25
BRANCH   1  27
ATOM     27  C   UNL     1       0.587  -2.205   1.659  0.00  0.00    +0.128 C 
BRANCH  27  28
ATOM     28  C   UNL     1       0.490  -0.678   1.683  0.00  0.00    +0.021 C 
BRANCH  28  30
ATOM     29  C   UNL     1      -0.525   1.319   0.577  0.00  0.00    +0.004 C 
ATOM     30  C   UNL     1      -0.427  -0.208   0.553  0.00  0.00    -0.002 C 
ENDBRANCH  28  30
ENDBRANCH  27  28
ENDBRANCH   1  27
TORSDOF 6
