REMARK  Name = ZINC13436269
REMARK  6 active torsions:
REMARK  status: ('A' for Active; 'I' for Inactive)
REMARK    1  A    between atoms: C_1  and  N_2
REMARK    2  A    between atoms: N_2  and  C_3
REMARK    3  A    between atoms: N_2  and  C_4
REMARK    4  A    between atoms: C_7  and  C_13
REMARK    5  A    between atoms: C_9  and  N_10
REMARK    6  A    between atoms: C_17  and  C_26
REMARK                            x       y       z     vdW  Elec       q    Type
REMARK                         _______ _______ _______ _____ _____    ______ ____
ROOT
ATOM      1  C   UNL     1       0.060  -4.250  -0.021  0.00  0.00    +0.251 C 
ATOM      2  O   UNL     1      -0.342  -4.868   0.946  0.00  0.00    -0.270 OA
ATOM      3  N   UNL     1       0.552  -4.911  -1.087  0.00  0.00    -0.260 N 
ATOM      4  C   UNL     1       1.175  -4.190  -2.211  0.00  0.00    +0.170 C 
ATOM      5  C   UNL     1       2.429  -4.974  -2.626  0.00  0.00    +0.303 C 
ATOM      6  O   UNL     1       2.044  -6.303  -2.985  0.00  0.00    -0.474 OA
ATOM      7  C   UNL     1       1.246  -6.985  -2.122  0.00  0.00    +0.143 A 
ATOM      8  C   UNL     1       0.494  -6.313  -1.164  0.00  0.00    +0.079 A 
ATOM      9  C   UNL     1      -0.314  -7.023  -0.290  0.00  0.00    +0.027 A 
ATOM     10  C   UNL     1      -0.366  -8.403  -0.368  0.00  0.00    +0.002 A 
ATOM     11  C   UNL     1       0.387  -9.072  -1.314  0.00  0.00    +0.004 A 
ATOM     12  C   UNL     1       1.183  -8.369  -2.193  0.00  0.00    +0.047 A 
ENDROOT
BRANCH   1  16
ATOM     13  C   UNL     1      -0.084  -0.006  -0.036  0.00  0.00    +0.060 A 
ATOM     14  C   UNL     1      -0.214  -0.710  -1.230  0.00  0.00    +0.026 A 
ATOM     15  C   UNL     1      -0.167  -2.085  -1.229  0.00  0.00    +0.015 A 
ATOM     16  C   UNL     1       0.011  -2.776  -0.026  0.00  0.00    +0.040 A 
ATOM     17  C   UNL     1       0.141  -2.066   1.171  0.00  0.00    +0.047 A 
ATOM     18  C   UNL     1       0.099  -0.691   1.163  0.00  0.00    +0.148 A 
BRANCH  13  20
ATOM     19  C   UNL     1       0.942   1.944  -0.874  0.00  0.00    +0.129 C 
ATOM     20  N   UNL     1      -0.131   1.384  -0.041  0.00  0.00    -0.334 N 
ATOM     21  C   UNL     1      -1.446   1.865  -0.482  0.00  0.00    +0.129 C 
ENDBRANCH  13  20
BRANCH  18  22
ATOM     22  N   UNL     1       0.243   0.062   2.429  0.00  0.00    +0.058 N 
ATOM     23  O   UNL     1       0.403  -0.537   3.478  0.00  0.00    -0.126 OA
ATOM     24  O   UNL     1       0.202   1.279   2.423  0.00  0.00    -0.126 OA
ENDBRANCH  18  22
ENDBRANCH   1  16
BRANCH   5  25
ATOM     25  C   UNL     1       3.077  -4.299  -3.808  0.00  0.00    +0.397 C 
ATOM     26  O   UNL     1       3.128  -4.866  -4.874  0.00  0.00    -0.242 OA
ATOM     27  O   UNL     1       3.598  -3.069  -3.676  0.00  0.00    -0.242 OA
ENDBRANCH   5  25
TORSDOF 4
