REMARK  Name = ZINC66760676
REMARK  5 active torsions:
REMARK  status: ('A' for Active; 'I' for Inactive)
REMARK    1  A    between atoms: C_1  and  C_2
REMARK    2  A    between atoms: C_3  and  C_17
REMARK    3  A    between atoms: N_6  and  C_7
REMARK    4  A    between atoms: N_19  and  C_20
REMARK    5  A    between atoms: C_25  and  N_27
REMARK                            x       y       z     vdW  Elec       q    Type
REMARK                         _______ _______ _______ _____ _____    ______ ____
ROOT
ATOM      1  C   UNL     1       2.561  -0.675  -0.416  0.00  0.00    +0.068 C 
ATOM      2  C   UNL     1       1.298  -1.476  -0.232  0.00  0.00    +0.074 A 
ATOM      3  C   UNL     1       0.333  -1.704  -1.173  0.00  0.00    +0.170 A 
ATOM      4  N   UNL     1      -0.630  -2.462  -0.620  0.00  0.00    -0.124 NA
ATOM      5  N   UNL     1      -0.326  -2.721   0.604  0.00  0.00    -0.060 NA
ATOM      6  N   UNL     1       0.904  -2.113   0.893  0.00  0.00    -0.216 N 
ENDROOT
BRANCH   6   7
ATOM      7  C   UNL     1       1.590  -2.155   2.111  0.00  0.00    +0.076 A 
ATOM      8  C   UNL     1       2.943  -2.414   2.139  0.00  0.00    +0.028 A 
ATOM      9  C   UNL     1       3.632  -2.458   3.347  0.00  0.00    +0.004 A 
ATOM     10  C   UNL     1       2.993  -2.248   4.531  0.00  0.00    +0.028 A 
ATOM     11  C   UNL     1       1.613  -1.980   4.547  0.00  0.00    +0.073 A 
ATOM     12  C   UNL     1       0.905  -1.928   3.322  0.00  0.00    +0.026 A 
ATOM     13  C   UNL     1      -0.474  -1.654   3.342  0.00  0.00    +0.013 A 
ATOM     14  C   UNL     1      -1.073  -1.444   4.552  0.00  0.00    +0.020 A 
ATOM     15  C   UNL     1      -0.317  -1.504   5.720  0.00  0.00    +0.111 A 
ATOM     16  N   UNL     1       0.966  -1.771   5.699  0.00  0.00    -0.255 NA
ENDBRANCH   6   7
BRANCH   3  17
ATOM     17  C   UNL     1       0.346  -1.201  -2.559  0.00  0.00    +0.266 C 
ATOM     18  O   UNL     1       1.274  -0.520  -2.951  0.00  0.00    -0.268 OA
ATOM     19  N   UNL     1      -0.671  -1.497  -3.393  0.00  0.00    -0.305 N 
ATOM     20  H   UNL     1      -1.412  -2.041  -3.080  0.00  0.00    +0.149 HD
BRANCH  19  21
ATOM     21  C   UNL     1      -0.659  -0.998  -4.770  0.00  0.00    +0.096 C 
ATOM     22  C   UNL     1      -2.102  -0.888  -5.305  0.00  0.00    +0.024 C 
ATOM     23  C   UNL     1      -1.988  -1.309  -6.792  0.00  0.00    +0.004 C 
ATOM     24  C   UNL     1      -0.948  -2.455  -6.744  0.00  0.00    +0.027 C 
ATOM     25  C   UNL     1       0.075  -1.994  -5.685  0.00  0.00    +0.108 C 
BRANCH  25  26
ATOM     26  N   UNL     1       0.542  -3.142  -4.904  0.00  0.00    -0.334 N 
ATOM     27  C   UNL     1      -0.227  -4.173  -4.437  0.00  0.00    +0.105 A 
ATOM     28  C   UNL     1       0.598  -5.007  -3.776  0.00  0.00    +0.101 A 
ATOM     29  N   UNL     1       1.838  -4.498  -3.837  0.00  0.00    -0.352 N 
ATOM     30  C   UNL     1       1.813  -3.384  -4.516  0.00  0.00    +0.174 A 
ATOM     31  H   UNL     1       2.629  -4.898  -3.443  0.00  0.00    +0.166 HD
ENDBRANCH  25  26
ENDBRANCH  19  21
ENDBRANCH   3  17
TORSDOF 4
