REMARK  Name = ZINC09127793
REMARK  12 active torsions:
REMARK  status: ('A' for Active; 'I' for Inactive)
REMARK    1  A    between atoms: C_1  and  C_2
REMARK    2  A    between atoms: C_5  and  C_33
REMARK    3  A    between atoms: C_6  and  N_8
REMARK    4  A    between atoms: C_9  and  S_13
REMARK    5  A    between atoms: S_13  and  C_14
REMARK    6  A    between atoms: C_14  and  C_15
REMARK    7  A    between atoms: N_17  and  C_18
REMARK    8  A    between atoms: C_18  and  C_19
REMARK    9  A    between atoms: C_19  and  C_21
REMARK   10  A    between atoms: C_19  and  N_63
REMARK   11  A    between atoms: C_24  and  O_27
REMARK   12  A    between atoms: O_27  and  C_28
REMARK                            x       y       z     vdW  Elec       q    Type
REMARK                         _______ _______ _______ _____ _____    ______ ____
ROOT
ATOM      1  C   UNL     1      -0.578   0.915   0.201  0.00  0.00    +0.223 C 
ATOM      2  O   UNL     1      -0.456   2.110   0.369  0.00  0.00    -0.275 OA
ATOM      3  N   UNL     1       0.514   0.127   0.152  0.00  0.00    -0.316 N 
ATOM      4  H   UNL     1       0.417  -0.829   0.018  0.00  0.00    +0.149 HD
ENDROOT
BRANCH   1   5
ATOM      5  C   UNL     1      -1.950   0.312   0.048  0.00  0.00    +0.173 C 
BRANCH   5   6
ATOM      6  S   UNL     1      -3.199   1.617   0.159  0.00  0.00    -0.075 S 
BRANCH   6   8
ATOM      7  N   UNL     1      -5.943   1.124  -0.052  0.00  0.00    -0.187 N 
ATOM      8  C   UNL     1      -4.663   0.658  -0.047  0.00  0.00    +0.214 A 
ATOM      9  N   UNL     1      -4.727  -0.643  -0.232  0.00  0.00    -0.101 NA
ATOM     10  N   UNL     1      -5.949  -1.022  -0.342  0.00  0.00    -0.022 NA
ATOM     11  N   UNL     1      -6.746  -0.014  -0.248  0.00  0.00    -0.038 NA
BRANCH   7  17
ATOM     12  C   UNL     1      -5.723   5.378   2.407  0.00  0.00    +0.044 C 
ATOM     13  C   UNL     1      -6.278   4.534   1.288  0.00  0.00    -0.048 A 
ATOM     14  C   UNL     1      -7.208   5.069   0.415  0.00  0.00    +0.004 A 
ATOM     15  C   UNL     1      -7.719   4.297  -0.612  0.00  0.00    +0.006 A 
ATOM     16  C   UNL     1      -7.302   2.990  -0.769  0.00  0.00    -0.025 A 
ATOM     17  C   UNL     1      -6.369   2.451   0.105  0.00  0.00    +0.073 A 
ATOM     18  C   UNL     1      -5.861   3.226   1.139  0.00  0.00    +0.031 A 
ATOM     19  C   UNL     1      -7.860   2.150  -1.889  0.00  0.00    +0.046 C 
ENDBRANCH   7  17
ENDBRANCH   6   8
ENDBRANCH   5   6
ENDBRANCH   1   5
BRANCH   3  20
ATOM     20  C   UNL     1       1.849   0.715   0.295  0.00  0.00    +0.093 C 
BRANCH  20  21
ATOM     21  C   UNL     1       2.897  -0.400   0.313  0.00  0.00    -0.020 C 
BRANCH  21  22
ATOM     22  C   UNL     1       2.911  -1.099  -1.022  0.00  0.00    -0.059 A 
ATOM     23  C   UNL     1       3.576  -0.530  -2.092  0.00  0.00    +0.005 A 
ATOM     24  C   UNL     1       3.595  -1.171  -3.315  0.00  0.00    +0.046 A 
ATOM     25  C   UNL     1       2.936  -2.382  -3.473  0.00  0.00    +0.120 A 
ATOM     26  C   UNL     1       2.264  -2.948  -2.399  0.00  0.00    +0.046 A 
ATOM     27  C   UNL     1       2.253  -2.305  -1.176  0.00  0.00    +0.005 A 
BRANCH  25  28
ATOM     28  O   UNL     1       2.948  -3.011  -4.677  0.00  0.00    -0.495 OA
ATOM     29  C   UNL     1       3.659  -2.370  -5.737  0.00  0.00    +0.277 C 
ENDBRANCH  25  28
ENDBRANCH  21  22
BRANCH  21  34
ATOM     30  C   UNL     1       4.239   0.898   1.876  0.00  0.00    -0.078 C 
ATOM     31  C   UNL     1       5.747   0.963   2.225  0.00  0.00    -0.020 C 
ATOM     32  C   UNL     1       6.275  -0.405   1.734  0.00  0.00    -0.020 C 
ATOM     33  C   UNL     1       5.249  -0.879   0.688  0.00  0.00    -0.078 C 
ATOM     34  N   UNL     1       4.245   0.181   0.591  0.00  0.00    +0.385 N 
ATOM     35  H   UNL     1       4.496   0.828  -0.166  0.00  0.00    -0.081 HD
ENDBRANCH  21  34
ENDBRANCH  20  21
ENDBRANCH   3  20
TORSDOF 9
