REMARK  Name = ZINC14457509
REMARK  9 active torsions:
REMARK  status: ('A' for Active; 'I' for Inactive)
REMARK    1  A    between atoms: C_1  and  C_2
REMARK    2  A    between atoms: C_2  and  C_3
REMARK    3  A    between atoms: C_3  and  C_5
REMARK    4  A    between atoms: C_3  and  N_6
REMARK    5  A    between atoms: C_7  and  C_9
REMARK    6  A    between atoms: C_22  and  C_25
REMARK    7  A    between atoms: C_28  and  O_32
REMARK    8  A    between atoms: C_29  and  O_31
REMARK    9  A    between atoms: O_32  and  C_33
REMARK                            x       y       z     vdW  Elec       q    Type
REMARK                         _______ _______ _______ _____ _____    ______ ____
ROOT
ATOM      1  C   UNL     1      -1.072   2.338  -0.027  0.00  0.00    +0.037 A 
ATOM      2  C   UNL     1      -2.220   1.540  -0.033  0.00  0.00    +0.015 A 
ATOM      3  C   UNL     1      -3.460   2.134  -0.011  0.00  0.00    +0.024 A 
ATOM      4  C   UNL     1      -3.572   3.522   0.018  0.00  0.00    +0.031 A 
ATOM      5  C   UNL     1      -2.438   4.325   0.021  0.00  0.00    -0.019 A 
ATOM      6  C   UNL     1      -1.190   3.728   0.004  0.00  0.00    +0.019 A 
ATOM      7  C   UNL     1      -2.515   5.819   0.046  0.00  0.00    +0.049 C 
ATOM      8  C   UNL     1      -2.155   6.365   1.407  0.00  0.00    -0.023 C 
ATOM      9  C   UNL     1      -2.894   7.410   1.688  0.00  0.00    -0.030 C 
ATOM     10  C   UNL     1      -3.848   7.708   0.547  0.00  0.00    +0.033 C 
ATOM     11  C   UNL     1      -3.938   6.352  -0.212  0.00  0.00    +0.029 C 
ATOM     12  C   UNL     1      -4.963   5.471   0.507  0.00  0.00    +0.105 C 
ATOM     13  N   UNL     1      -4.839   4.100   0.050  0.00  0.00    -0.336 N 
ATOM     14  H   UNL     1      -5.620   3.601  -0.235  0.00  0.00    +0.147 HD
ENDROOT
BRANCH  12  15
ATOM     15  C   UNL     1      -4.705   5.506   1.992  0.00  0.00    -0.023 A 
ATOM     16  C   UNL     1      -3.843   4.589   2.564  0.00  0.00    +0.009 A 
ATOM     17  C   UNL     1      -3.599   4.620   3.924  0.00  0.00    +0.050 A 
ATOM     18  C   UNL     1      -4.227   5.566   4.719  0.00  0.00    +0.161 A 
ATOM     19  C   UNL     1      -5.099   6.485   4.144  0.00  0.00    +0.159 A 
ATOM     20  C   UNL     1      -5.335   6.452   2.779  0.00  0.00    +0.054 A 
BRANCH  19  21
ATOM     21  O   UNL     1      -5.717   7.415   4.920  0.00  0.00    -0.503 OA
ATOM     22  H   UNL     1      -6.570   7.128   5.275  0.00  0.00    +0.292 HD
ENDBRANCH  19  21
BRANCH  18  23
ATOM     23  O   UNL     1      -3.992   5.594   6.058  0.00  0.00    -0.491 OA
ATOM     24  C   UNL     1      -3.086   4.620   6.579  0.00  0.00    +0.277 C 
ENDBRANCH  18  23
ENDBRANCH  12  15
BRANCH   1  26
ATOM     25  N   UNL     1       0.377   0.369  -0.072  0.00  0.00    -0.309 N 
ATOM     26  C   UNL     1       0.263   1.712  -0.048  0.00  0.00    +0.244 C 
ATOM     27  O   UNL     1       1.261   2.406  -0.048  0.00  0.00    -0.270 OA
ATOM     28  H   UNL     1      -0.419  -0.185  -0.072  0.00  0.00    +0.149 HD
BRANCH  25  29
ATOM     29  C   UNL     1       1.703  -0.253  -0.099  0.00  0.00    +0.070 C 
ATOM     30  C   UNL     1       2.235  -0.381   1.330  0.00  0.00    +0.028 C 
BRANCH  29  32
ATOM     31  C   UNL     1       1.189  -1.507  -2.198  0.00  0.00    +0.005 C 
ATOM     32  C   UNL     1       1.602  -1.643  -0.731  0.00  0.00    +0.018 C 
ENDBRANCH  29  32
ENDBRANCH  25  29
ENDBRANCH   1  26
TORSDOF 6
