REMARK  Name = ZINC10166132
REMARK  9 active torsions:
REMARK  status: ('A' for Active; 'I' for Inactive)
REMARK    1  A    between atoms: C_1  and  C_2
REMARK    2  A    between atoms: N_8  and  C_9
REMARK    3  A    between atoms: C_9  and  C_10
REMARK    4  A    between atoms: C_10  and  C_11
REMARK    5  A    between atoms: C_17  and  C_27
REMARK    6  A    between atoms: C_19  and  C_23
REMARK    7  A    between atoms: C_20  and  N_22
REMARK    8  A    between atoms: C_23  and  O_25
REMARK    9  A    between atoms: O_25  and  C_26
REMARK                            x       y       z     vdW  Elec       q    Type
REMARK                         _______ _______ _______ _____ _____    ______ ____
ROOT
ATOM      1  C   UNL     1       3.986  -2.849  -2.251  0.00  0.00    +0.064 C 
ATOM      2  C   UNL     1       5.389  -2.354  -2.012  0.00  0.00    +0.022 A 
ATOM      3  C   UNL     1       6.411  -3.236  -1.984  0.00  0.00    +0.068 A 
ATOM      4  C   UNL     1       7.726  -2.778  -1.761  0.00  0.00    +0.141 A 
ATOM      5  C   UNL     1       7.941  -1.429  -1.575  0.00  0.00    +0.071 A 
ATOM      6  C   UNL     1       6.850  -0.551  -1.617  0.00  0.00    +0.259 A 
ATOM      7  O   UNL     1       7.026   0.647  -1.459  0.00  0.00    -0.267 OA
ATOM      8  N   UNL     1       5.609  -1.026  -1.827  0.00  0.00    -0.312 N 
ATOM      9  C   UNL     1       9.326  -0.897  -1.333  0.00  0.00    +0.100 C 
ATOM     10  C   UNL     1      10.351  -1.925  -1.725  0.00  0.00    +0.105 C 
ATOM     11  C   UNL     1      10.010  -3.227  -1.899  0.00  0.00    +0.195 C 
ATOM     12  O   UNL     1       8.749  -3.659  -1.733  0.00  0.00    -0.441 OA
ENDROOT
BRANCH   9  13
ATOM     13  C   UNL     1       9.487  -0.567   0.128  0.00  0.00    -0.033 A 
ATOM     14  C   UNL     1       9.785   0.727   0.516  0.00  0.00    +0.006 A 
ATOM     15  C   UNL     1       9.932   1.031   1.856  0.00  0.00    +0.022 A 
ATOM     16  C   UNL     1       9.783   0.041   2.810  0.00  0.00    +0.059 A 
ATOM     17  C   UNL     1       9.485  -1.254   2.422  0.00  0.00    +0.060 A 
ATOM     18  C   UNL     1       9.332  -1.556   1.081  0.00  0.00    +0.026 A 
ATOM     19 CL   UNL     1       9.297  -2.497   3.619  0.00  0.00    -0.082 Cl
ATOM     20 CL   UNL     1       9.969   0.423   4.494  0.00  0.00    -0.082 Cl
ENDBRANCH   9  13
BRANCH  11  21
ATOM     21  N   UNL     1      10.979  -4.126  -2.256  0.00  0.00    -0.329 N 
ATOM     22  H   UNL     1      10.954  -5.030  -1.907  0.00  0.00    +0.145 HD
ATOM     23  H   UNL     1      11.691  -3.859  -2.859  0.00  0.00    +0.145 HD
ENDBRANCH  11  21
BRANCH  10  24
ATOM     24  C   UNL     1      11.685  -1.531  -1.913  0.00  0.00    +0.341 C 
ATOM     25  O   UNL     1      12.544  -2.370  -2.119  0.00  0.00    -0.245 OA
BRANCH  24  26
ATOM     26  O   UNL     1      12.015  -0.223  -1.867  0.00  0.00    -0.465 OA
ATOM     27  C   UNL     1      13.391   0.106  -2.068  0.00  0.00    +0.280 C 
ENDBRANCH  24  26
ENDBRANCH  10  24
BRANCH   8  28
ATOM     28  C   UNL     1       4.477  -0.096  -1.863  0.00  0.00    +0.130 C 
BRANCH  28  29
ATOM     29  C   UNL     1       3.901   0.060  -0.455  0.00  0.00    +0.057 C 
BRANCH  29  30
ATOM     30  C   UNL     1       2.736   1.016  -0.491  0.00  0.00    -0.046 A 
ATOM     31  C   UNL     1       1.458   0.540  -0.712  0.00  0.00    +0.004 A 
ATOM     32  C   UNL     1       0.390   1.417  -0.745  0.00  0.00    +0.000 A 
ATOM     33  C   UNL     1       0.601   2.770  -0.558  0.00  0.00    +0.000 A 
ATOM     34  C   UNL     1       1.880   3.246  -0.338  0.00  0.00    +0.000 A 
ATOM     35  C   UNL     1       2.948   2.369  -0.305  0.00  0.00    +0.004 A 
ENDBRANCH  29  30
ENDBRANCH  28  29
ENDBRANCH   8  28
TORSDOF 7
