REMARK  Name = ZINC63491065
REMARK  10 active torsions:
REMARK  status: ('A' for Active; 'I' for Inactive)
REMARK    1  A    between atoms: C_1  and  C_2
REMARK    2  A    between atoms: C_7  and  O_30
REMARK    3  A    between atoms: C_13  and  C_15
REMARK    4  A    between atoms: C_15  and  C_16
REMARK    5  A    between atoms: N_18  and  C_19
REMARK    6  A    between atoms: C_19  and  C_20
REMARK    7  A    between atoms: C_20  and  C_21
REMARK    8  A    between atoms: O_30  and  C_31
REMARK    9  A    between atoms: C_31  and  C_32
REMARK   10  A    between atoms: C_32  and  C_34
REMARK                            x       y       z     vdW  Elec       q    Type
REMARK                         _______ _______ _______ _____ _____    ______ ____
ROOT
ATOM      1  C   UNL     1      -0.019   1.526   0.010  0.00  0.00    +0.013 C 
ATOM      2  C   UNL     1       0.002  -0.004   0.002  0.00  0.00    +0.034 C 
ATOM      3  C   UNL     1       0.705  -0.489  -1.241  0.00  0.00    +0.000 A 
ATOM      4  C   UNL     1      -0.005  -0.514  -2.432  0.00  0.00    +0.031 A 
ATOM      5  C   UNL     1       0.599  -0.943  -3.597  0.00  0.00    +0.083 A 
ATOM      6  C   UNL     1       1.926  -1.352  -3.580  0.00  0.00    +0.143 A 
ATOM      7  C   UNL     1       2.636  -1.332  -2.392  0.00  0.00    +0.093 A 
ATOM      8  C   UNL     1       2.025  -0.903  -1.219  0.00  0.00    +0.139 A 
ATOM      9  O   UNL     1       2.754  -0.916  -0.069  0.00  0.00    -0.425 OA
ATOM     10  C   UNL     1       2.223  -0.312   1.012  0.00  0.00    +0.316 C 
ATOM     11  O   UNL     1       2.898   0.355   1.760  0.00  0.00    -0.250 OA
ATOM     12  C   UNL     1       0.740  -0.510   1.245  0.00  0.00    +0.114 C 
ATOM     13 CL   UNL     1      -0.299  -0.971  -5.082  0.00  0.00    -0.080 Cl
ENDROOT
BRANCH  12  14
ATOM     14  C   UNL     1       0.441  -1.995   1.458  0.00  0.00    +0.111 C 
BRANCH  14  15
ATOM     15  C   UNL     1       1.070  -2.455   2.748  0.00  0.00    +0.214 C 
ATOM     16  O   UNL     1       1.695  -1.671   3.431  0.00  0.00    -0.276 OA
ATOM     17  N   UNL     1       0.937  -3.736   3.144  0.00  0.00    -0.315 N 
ATOM     18  H   UNL     1       0.437  -4.363   2.598  0.00  0.00    +0.149 HD
BRANCH  17  19
ATOM     19  C   UNL     1       1.548  -4.183   4.398  0.00  0.00    +0.108 C 
BRANCH  19  20
ATOM     20  C   UNL     1       1.249  -5.668   4.611  0.00  0.00    +0.052 C 
BRANCH  20  21
ATOM     21  C   UNL     1       1.878  -6.127   5.901  0.00  0.00    -0.040 C 
ATOM     22  C   UNL     1       1.281  -6.210   7.112  0.00  0.00    -0.001 A 
ATOM     23  C   UNL     1      -0.079  -5.908   7.573  0.00  0.00    +0.010 A 
ATOM     24  C   UNL     1      -0.387  -6.095   8.876  0.00  0.00    +0.001 A 
ATOM     25  C   UNL     1       0.559  -6.568   9.796  0.00  0.00    +0.002 A 
ATOM     26  C   UNL     1       1.828  -6.868   9.448  0.00  0.00    +0.026 A 
ATOM     27  C   UNL     1       2.261  -6.709   8.103  0.00  0.00    +0.043 A 
ATOM     28  N   UNL     1       3.418  -6.927   7.527  0.00  0.00    -0.380 N 
ATOM     29  C   UNL     1       3.302  -6.595   6.103  0.00  0.00    +0.144 C 
ATOM     30  H   UNL     1       4.217  -7.255   7.968  0.00  0.00    +0.160 HD
ENDBRANCH  20  21
ENDBRANCH  19  20
ENDBRANCH  17  19
ENDBRANCH  14  15
ENDBRANCH  12  14
BRANCH   6  31
ATOM     31  O   UNL     1       2.525  -1.772  -4.725  0.00  0.00    -0.486 OA
BRANCH  31  32
ATOM     32  C   UNL     1       3.892  -2.179  -4.631  0.00  0.00    +0.259 C 
BRANCH  32  33
ATOM     33  C   UNL     1       4.383  -2.609  -5.990  0.00  0.00    -0.043 C 
ATOM     34  C   UNL     1       3.576  -2.568  -7.021  0.00  0.00    +0.011 C 
ATOM     35  C   UNL     1       5.802  -3.086  -6.162  0.00  0.00    +0.042 C 
ENDBRANCH  32  33
ENDBRANCH  31  32
ENDBRANCH   6  31
TORSDOF 8
