REMARK  Name = ZINC01015565
REMARK  6 active torsions:
REMARK  status: ('A' for Active; 'I' for Inactive)
REMARK    1  A    between atoms: C_1  and  C_2
REMARK    2  A    between atoms: C_3  and  C_27
REMARK    3  A    between atoms: C_5  and  N_9
REMARK    4  A    between atoms: C_6  and  C_7
REMARK    5  A    between atoms: N_9  and  C_10
REMARK    6  A    between atoms: N_17  and  C_20
REMARK                            x       y       z     vdW  Elec       q    Type
REMARK                         _______ _______ _______ _____ _____    ______ ____
ROOT
ATOM      1  C   UNL     1       4.876   5.581  -0.218  0.00  0.00    +0.091 C 
ATOM      2  C   UNL     1       4.833   4.203  -0.112  0.00  0.00    +0.113 C 
ATOM      3  C   UNL     1       6.062   3.405   0.049  0.00  0.00    +0.256 C 
ATOM      4  O   UNL     1       7.153   3.941   0.092  0.00  0.00    -0.270 OA
ATOM      5  N   UNL     1       5.943   2.065   0.146  0.00  0.00    -0.263 N 
ATOM      6  C   UNL     1       4.747   1.462   0.100  0.00  0.00    +0.150 C 
ATOM      7  S   UNL     1       4.693  -0.244   0.231  0.00  0.00    -0.018 S 
ATOM      8  N   UNL     1       3.590   2.124  -0.044  0.00  0.00    -0.217 N 
ATOM      9  C   UNL     1       3.556   3.468  -0.159  0.00  0.00    +0.263 C 
ATOM     10  O   UNL     1       2.500   4.057  -0.294  0.00  0.00    -0.269 OA
ATOM     11  H   UNL     1       6.742   1.525   0.252  0.00  0.00    +0.157 HD
ENDROOT
BRANCH   8  12
ATOM     12  C   UNL     1       2.388   1.403  -0.082  0.00  0.00    +0.043 A 
ATOM     13  C   UNL     1       2.116   0.562  -1.152  0.00  0.00    +0.027 A 
ATOM     14  C   UNL     1       0.931  -0.148  -1.187  0.00  0.00    +0.040 A 
ATOM     15  C   UNL     1       0.016  -0.020  -0.156  0.00  0.00    +0.124 A 
ATOM     16  C   UNL     1       0.285   0.820   0.912  0.00  0.00    +0.040 A 
ATOM     17  C   UNL     1       1.469   1.531   0.951  0.00  0.00    +0.027 A 
ATOM     18  F   UNL     1      -1.142  -0.715  -0.192  0.00  0.00    -0.205 F 
ENDBRANCH   8  12
BRANCH   1  19
ATOM     19  N   UNL     1       6.065   6.213  -0.324  0.00  0.00    -0.313 N 
ATOM     20  H   UNL     1       6.882   5.698  -0.405  0.00  0.00    +0.152 HD
BRANCH  19  25
ATOM     21  C   UNL     1       8.129  10.831  -0.470  0.00  0.00    +0.046 C 
ATOM     22  C   UNL     1       6.995   9.843  -0.375  0.00  0.00    -0.021 A 
ATOM     23  C   UNL     1       5.718  10.250  -0.251  0.00  0.00    -0.007 A 
ATOM     24  S   UNL     1       4.806   8.722  -0.180  0.00  0.00    -0.077 S 
ATOM     25  C   UNL     1       6.116   7.598  -0.315  0.00  0.00    +0.087 A 
ATOM     26  C   UNL     1       7.232   8.421  -0.406  0.00  0.00    +0.083 A 
ATOM     27  C   UNL     1       5.188  11.659  -0.186  0.00  0.00    +0.052 C 
BRANCH  26  28
ATOM     28  C   UNL     1       8.554   7.882  -0.528  0.00  0.00    +0.102 C 
ATOM     29  N   UNL     1       9.602   7.455  -0.625  0.00  0.00    -0.191 NA
ENDBRANCH  26  28
ENDBRANCH  19  25
ENDBRANCH   1  19
TORSDOF 4
