REMARK  Name = ZINC40315843
REMARK  12 active torsions:
REMARK  status: ('A' for Active; 'I' for Inactive)
REMARK    1  A    between atoms: C_1  and  C_2
REMARK    2  A    between atoms: C_2  and  C_3
REMARK    3  A    between atoms: C_2  and  C_4
REMARK    4  A    between atoms: C_7  and  O_10
REMARK    5  A    between atoms: O_10  and  C_11
REMARK    6  A    between atoms: C_11  and  C_12
REMARK    7  A    between atoms: C_12  and  C_14
REMARK    8  A    between atoms: C_12  and  O_35
REMARK    9  A    between atoms: C_14  and  N_15
REMARK   10  A    between atoms: N_15  and  C_16
REMARK   11  A    between atoms: N_15  and  C_27
REMARK   12  A    between atoms: C_16  and  C_17
REMARK                            x       y       z     vdW  Elec       q    Type
REMARK                         _______ _______ _______ _____ _____    ______ ____
ROOT
ATOM      1  N   UNL     1      -9.115  -4.152  -2.116  0.00  0.00    +0.387 N 
ATOM      2  H   UNL     1      -9.996  -3.686  -2.279  0.00  0.00    -0.081 HD
ENDROOT
BRANCH   1   3
ATOM      3  C   UNL     1      -9.126  -4.767  -0.782  0.00  0.00    -0.045 C 
ATOM      4  C   UNL     1      -8.030  -5.842  -0.697  0.00  0.00    +0.009 C 
ATOM      5  C   UNL     1      -8.236  -6.707   0.570  0.00  0.00    +0.164 C 
ATOM      6  S   UNL     1     -10.053  -6.607   0.835  0.00  0.00    -0.033 S 
ATOM      7  O   UNL     1     -10.304  -5.969   2.080  0.00  0.00    -0.174 OA
ATOM      8  O   UNL     1     -10.629  -7.880   0.573  0.00  0.00    -0.174 OA
ATOM      9  C   UNL     1     -10.498  -5.454  -0.531  0.00  0.00    +0.151 C 
ENDBRANCH   1   3
BRANCH   1  10
ATOM     10  C   UNL     1      -8.022  -3.174  -2.197  0.00  0.00    -0.043 C 
BRANCH  10  11
ATOM     11  C   UNL     1      -8.361  -1.958  -1.333  0.00  0.00    +0.135 C 
BRANCH  11  12
ATOM     12  O   UNL     1      -8.305  -2.323   0.047  0.00  0.00    -0.390 OA
ATOM     13  H   UNL     1      -7.422  -2.570   0.353  0.00  0.00    +0.210 HD
ENDBRANCH  11  12
BRANCH  11  14
ATOM     14  C   UNL     1      -7.351  -0.841  -1.607  0.00  0.00    +0.258 C 
BRANCH  14  15
ATOM     15  O   UNL     1      -7.735   0.334  -0.889  0.00  0.00    -0.489 OA
BRANCH  15  19
ATOM     16  C   UNL     1      -5.315   3.650  -1.297  0.00  0.00    -0.045 A 
ATOM     17  C   UNL     1      -6.439   3.710  -0.493  0.00  0.00    +0.007 A 
ATOM     18  C   UNL     1      -7.251   2.601  -0.355  0.00  0.00    +0.046 A 
ATOM     19  C   UNL     1      -6.938   1.427  -1.024  0.00  0.00    +0.121 A 
ATOM     20  C   UNL     1      -5.810   1.369  -1.830  0.00  0.00    +0.046 A 
ATOM     21  C   UNL     1      -5.005   2.482  -1.969  0.00  0.00    +0.007 A 
BRANCH  16  23
ATOM     22  C   UNL     1      -5.246   6.020  -2.025  0.00  0.00    +0.012 C 
ATOM     23  C   UNL     1      -4.431   4.862  -1.445  0.00  0.00    +0.013 C 
ATOM     24  C   UNL     1      -3.880   5.262  -0.075  0.00  0.00    +0.012 C 
ENDBRANCH  16  23
ENDBRANCH  15  19
ENDBRANCH  14  15
ENDBRANCH  11  14
ENDBRANCH  10  11
ENDBRANCH   1  10
BRANCH   1  25
ATOM     25  C   UNL     1      -8.917  -5.193  -3.134  0.00  0.00    -0.042 C 
BRANCH  25  26
ATOM     26  C   UNL     1     -10.131  -6.085  -3.183  0.00  0.00    -0.056 A 
ATOM     27  C   UNL     1     -10.066  -7.356  -2.702  0.00  0.00    +0.002 A 
ATOM     28  C   UNL     1     -11.178  -8.195  -2.739  0.00  0.00    +0.001 A 
ATOM     29  C   UNL     1     -12.361  -7.768  -3.258  0.00  0.00    +0.008 A 
ATOM     30  C   UNL     1     -12.467  -6.462  -3.764  0.00  0.00    -0.018 A 
ATOM     31  C   UNL     1     -11.338  -5.606  -3.720  0.00  0.00    -0.017 A 
ATOM     32  C   UNL     1     -11.445  -4.297  -4.221  0.00  0.00    +0.009 A 
ATOM     33  C   UNL     1     -12.630  -3.868  -4.735  0.00  0.00    +0.001 A 
ATOM     34  C   UNL     1     -13.743  -4.707  -4.771  0.00  0.00    +0.001 A 
ATOM     35  C   UNL     1     -13.672  -5.985  -4.308  0.00  0.00    +0.008 A 
ENDBRANCH  25  26
ENDBRANCH   1  25
TORSDOF 10
