REMARK  Name = ZINC09753074
REMARK  6 active torsions:
REMARK  status: ('A' for Active; 'I' for Inactive)
REMARK    1  A    between atoms: C_1  and  C_2
REMARK    2  A    between atoms: N_8  and  C_24
REMARK    3  A    between atoms: N_12  and  C_17
REMARK    4  A    between atoms: C_24  and  C_25
REMARK    5  A    between atoms: N_27  and  C_28
REMARK    6  A    between atoms: C_28  and  C_29
REMARK                            x       y       z     vdW  Elec       q    Type
REMARK                         _______ _______ _______ _____ _____    ______ ____
ROOT
ATOM      1  C   UNL     1       1.228   3.340  -0.270  0.00  0.00    +0.045 C 
ATOM      2  C   UNL     1       1.151   1.835  -0.281  0.00  0.00    -0.029 A 
ATOM      3  C   UNL     1       2.293   1.089  -0.486  0.00  0.00    +0.005 A 
ATOM      4  C   UNL     1       2.232  -0.292  -0.498  0.00  0.00    +0.001 A 
ATOM      5  C   UNL     1       1.020  -0.930  -0.302  0.00  0.00    +0.009 A 
ATOM      6  C   UNL     1      -0.123  -0.191  -0.095  0.00  0.00    +0.017 A 
ATOM      7  C   UNL     1      -0.074   1.202  -0.083  0.00  0.00    +0.046 A 
ATOM      8  N   UNL     1      -1.349   1.730   0.136  0.00  0.00    -0.259 N 
ATOM      9  C   UNL     1      -2.279   0.764   0.286  0.00  0.00    +0.259 C 
ATOM     10  O   UNL     1      -3.465   0.922   0.488  0.00  0.00    -0.272 OA
ATOM     11  C   UNL     1      -1.558  -0.543   0.149  0.00  0.00    +0.193 C 
ATOM     12  N   UNL     1      -1.752  -1.433   1.289  0.00  0.00    -0.243 N 
ATOM     13  C   UNL     1      -2.555  -2.487   1.151  0.00  0.00    +0.231 C 
ATOM     14  O   UNL     1      -2.740  -3.261   2.066  0.00  0.00    -0.274 OA
ATOM     15  C   UNL     1      -3.232  -2.682  -0.199  0.00  0.00    +0.168 C 
ATOM     16  S   UNL     1      -2.240  -1.525  -1.242  0.00  0.00    -0.111 S 
ENDROOT
BRANCH  12  17
ATOM     17  C   UNL     1      -1.106  -1.184   2.506  0.00  0.00    +0.039 A 
ATOM     18  C   UNL     1      -1.458  -0.077   3.266  0.00  0.00    +0.026 A 
ATOM     19  C   UNL     1      -0.823   0.164   4.469  0.00  0.00    +0.040 A 
ATOM     20  C   UNL     1       0.172  -0.692   4.911  0.00  0.00    +0.124 A 
ATOM     21  C   UNL     1       0.529  -1.793   4.151  0.00  0.00    +0.040 A 
ATOM     22  C   UNL     1      -0.107  -2.041   2.950  0.00  0.00    +0.026 A 
ATOM     23  F   UNL     1       0.796  -0.451   6.085  0.00  0.00    -0.205 F 
ENDBRANCH  12  17
BRANCH   8  24
ATOM     24  C   UNL     1      -1.641   3.164   0.202  0.00  0.00    +0.209 C 
BRANCH  24  25
ATOM     25  C   UNL     1      -1.916   3.685  -1.185  0.00  0.00    +0.231 C 
ATOM     26  O   UNL     1      -1.872   2.933  -2.135  0.00  0.00    -0.274 OA
ATOM     27  N   UNL     1      -2.210   4.987  -1.370  0.00  0.00    -0.310 N 
ATOM     28  H   UNL     1      -2.245   5.589  -0.610  0.00  0.00    +0.149 HD
BRANCH  27  29
ATOM     29  C   UNL     1      -2.477   5.494  -2.718  0.00  0.00    +0.139 C 
BRANCH  29  30
ATOM     30  C   UNL     1      -2.777   6.969  -2.650  0.00  0.00    -0.030 A 
ATOM     31  C   UNL     1      -4.080   7.402  -2.485  0.00  0.00    +0.005 A 
ATOM     32  C   UNL     1      -4.354   8.756  -2.418  0.00  0.00    +0.000 A 
ATOM     33  C   UNL     1      -3.328   9.675  -2.525  0.00  0.00    +0.000 A 
ATOM     34  C   UNL     1      -2.026   9.242  -2.696  0.00  0.00    +0.000 A 
ATOM     35  C   UNL     1      -1.751   7.889  -2.758  0.00  0.00    +0.005 A 
ENDBRANCH  29  30
ENDBRANCH  27  29
ENDBRANCH  24  25
ENDBRANCH   8  24
TORSDOF 5
