REMARK  Name = ZINC39302155
REMARK  8 active torsions:
REMARK  status: ('A' for Active; 'I' for Inactive)
REMARK    1  A    between atoms: C_1  and  C_2
REMARK    2  A    between atoms: C_2  and  C_3
REMARK    3  A    between atoms: C_8  and  N_9
REMARK    4  A    between atoms: C_10  and  C_31
REMARK    5  A    between atoms: C_12  and  C_15
REMARK    6  A    between atoms: N_17  and  C_18
REMARK    7  A    between atoms: C_18  and  C_19
REMARK    8  A    between atoms: C_19  and  N_20
REMARK                            x       y       z     vdW  Elec       q    Type
REMARK                         _______ _______ _______ _____ _____    ______ ____
ROOT
ATOM      1  N   UNL     1       3.041  -0.203  -0.239  0.00  0.00    -0.234 N 
ATOM      2  C   UNL     1       3.663  -1.145   0.569  0.00  0.00    +0.055 C 
ATOM      3  C   UNL     1       4.041  -0.614   1.730  0.00  0.00    +0.028 C 
ATOM      4  C   UNL     1       3.629   0.842   1.696  0.00  0.00    +0.183 C 
ATOM      5  N   UNL     1       2.992   1.014   0.376  0.00  0.00    -0.220 NA
ATOM      6  H   UNL     1       3.472   1.714  -0.170  0.00  0.00    +0.146 HD
ENDROOT
BRANCH   2   7
ATOM      7  C   UNL     1       3.877  -2.561   0.189  0.00  0.00    -0.002 A 
ATOM      8  C   UNL     1       5.124  -3.157   0.375  0.00  0.00    +0.010 A 
ATOM      9  C   UNL     1       5.310  -4.472   0.014  0.00  0.00    +0.004 A 
ATOM     10  C   UNL     1       4.268  -5.214  -0.531  0.00  0.00    -0.044 A 
ATOM     11  C   UNL     1       3.032  -4.632  -0.712  0.00  0.00    -0.044 A 
ATOM     12  C   UNL     1       2.835  -3.308  -0.351  0.00  0.00    +0.013 A 
ATOM     13  C   UNL     1       1.858  -5.384  -1.282  0.00  0.00    +0.035 C 
ATOM     14  C   UNL     1       2.326  -6.644  -2.006  0.00  0.00    +0.005 C 
ATOM     15  C   UNL     1       3.249  -7.427  -1.065  0.00  0.00    +0.005 C 
ATOM     16  C   UNL     1       4.552  -6.645  -0.907  0.00  0.00    +0.035 C 
ENDBRANCH   2   7
BRANCH   1  22
ATOM     17  C   UNL     1       1.200  -0.220  -1.800  0.00  0.00    -0.025 A 
ATOM     18  C   UNL     1       0.707  -0.475  -3.064  0.00  0.00    +0.005 A 
ATOM     19  C   UNL     1       1.541  -0.979  -4.045  0.00  0.00    +0.000 A 
ATOM     20  C   UNL     1       2.872  -1.230  -3.764  0.00  0.00    +0.002 A 
ATOM     21  C   UNL     1       3.371  -0.978  -2.501  0.00  0.00    +0.025 A 
ATOM     22  C   UNL     1       2.537  -0.466  -1.515  0.00  0.00    +0.053 A 
BRANCH  17  24
ATOM     23  C   UNL     1       0.409   1.854  -0.694  0.00  0.00    +0.009 C 
ATOM     24  C   UNL     1       0.290   0.329  -0.731  0.00  0.00    +0.033 C 
ENDBRANCH  17  24
ENDBRANCH   1  22
BRANCH   4  25
ATOM     25  C   UNL     1       2.649   1.137   2.803  0.00  0.00    +0.236 C 
ATOM     26  O   UNL     1       1.531   1.523   2.536  0.00  0.00    -0.274 OA
ATOM     27  N   UNL     1       3.016   0.972   4.089  0.00  0.00    -0.312 N 
ATOM     28  H   UNL     1       3.911   0.664   4.303  0.00  0.00    +0.149 HD
BRANCH  27  29
ATOM     29  C   UNL     1       2.064   1.260   5.165  0.00  0.00    +0.126 C 
BRANCH  29  30
ATOM     30  C   UNL     1       2.728   0.992   6.518  0.00  0.00    +0.145 C 
BRANCH  30  31
ATOM     31  N   UNL     1       1.776   1.279   7.594  0.00  0.00    -0.291 N 
ATOM     32  C   UNL     1       1.603   2.510   8.223  0.00  0.00    +0.070 A 
ATOM     33  C   UNL     1       2.204   3.750   8.068  0.00  0.00    +0.028 A 
ATOM     34  C   UNL     1       1.808   4.810   8.861  0.00  0.00    +0.002 A 
ATOM     35  C   UNL     1       0.815   4.638   9.810  0.00  0.00    +0.002 A 
ATOM     36  C   UNL     1       0.212   3.406   9.972  0.00  0.00    +0.028 A 
ATOM     37  C   UNL     1       0.602   2.337   9.180  0.00  0.00    +0.067 A 
ATOM     38  N   UNL     1       0.196   1.007   9.103  0.00  0.00    -0.306 N 
ATOM     39  H   UNL     1      -0.489   0.590   9.648  0.00  0.00    +0.170 HD
ATOM     40  C   UNL     1       0.914   0.400   8.139  0.00  0.00    +0.328 A 
ATOM     41  O   UNL     1       0.804  -0.767   7.813  0.00  0.00    -0.247 OA
ENDBRANCH  30  31
ENDBRANCH  29  30
ENDBRANCH  27  29
ENDBRANCH   4  25
TORSDOF 7
