REMARK  Name = ZINC16309856
REMARK  2 active torsions:
REMARK  status: ('A' for Active; 'I' for Inactive)
REMARK    1  A    between atoms: C_9  and  C_12
REMARK    2  A    between atoms: N_14  and  N_15
REMARK                            x       y       z     vdW  Elec       q    Type
REMARK                         _______ _______ _______ _____ _____    ______ ____
ROOT
ATOM      1  C   UNL     1       4.835  -2.690  -0.179  0.00  0.00    +0.276 C 
ATOM      2  O   UNL     1       5.544  -2.146  -0.999  0.00  0.00    -0.270 OA
ATOM      3  N   UNL     1       5.179  -3.896   0.315  0.00  0.00    -0.203 N 
ATOM      4  H   UNL     1       4.612  -4.331   0.971  0.00  0.00    +0.177 HD
ENDROOT
BRANCH   3   5
ATOM      5  N   UNL     1       6.355  -4.522  -0.120  0.00  0.00    -0.174 NA
ATOM      6  C   UNL     1       6.634  -5.739   0.277  0.00  0.00    +0.153 C 
ATOM      7  C   UNL     1       5.755  -6.669   1.023  0.00  0.00    +0.030 A 
ATOM      8  C   UNL     1       4.455  -6.568   1.508  0.00  0.00    +0.027 A 
ATOM      9  C   UNL     1       3.891  -7.632   2.183  0.00  0.00    +0.020 A 
ATOM     10  C   UNL     1       4.617  -8.796   2.376  0.00  0.00    +0.032 A 
ATOM     11  C   UNL     1       5.909  -8.906   1.898  0.00  0.00    +0.041 A 
ATOM     12  C   UNL     1       6.493  -7.843   1.215  0.00  0.00    +0.057 A 
ATOM     13  N   UNL     1       7.752  -7.695   0.642  0.00  0.00    -0.279 N 
ATOM     14  C   UNL     1       7.892  -6.486   0.072  0.00  0.00    +0.269 C 
ATOM     15  O   UNL     1       8.881  -6.077  -0.507  0.00  0.00    -0.268 OA
ATOM     16 BR   UNL     1       6.884 -10.502   2.173  0.00  0.00    -0.048 Br
ATOM     17 BR   UNL     1       2.124  -7.501   2.845  0.00  0.00    -0.050 Br
ATOM     18  H   UNL     1       8.440  -8.379   0.649  0.00  0.00    +0.155 HD
ENDBRANCH   3   5
BRANCH   1  27
ATOM     19  C   UNL     1      -0.197   1.178  -0.071  0.00  0.00    +0.004 A 
ATOM     20  C   UNL     1       0.944   1.901  -0.365  0.00  0.00    +0.004 A 
ATOM     21  C   UNL     1       2.168   1.264  -0.441  0.00  0.00    +0.049 A 
ATOM     22  C   UNL     1       2.255  -0.103  -0.223  0.00  0.00    +0.163 A 
ATOM     23  C   UNL     1       1.108  -0.830   0.075  0.00  0.00    +0.162 A 
ATOM     24  C   UNL     1      -0.118  -0.184   0.149  0.00  0.00    +0.049 A 
ATOM     25  O   UNL     1       1.171  -2.170   0.301  0.00  0.00    -0.484 OA
ATOM     26  C   UNL     1       2.353  -2.843  -0.146  0.00  0.00    +0.283 C 
ATOM     27  C   UNL     1       3.571  -2.017   0.289  0.00  0.00    +0.297 C 
ATOM     28  O   UNL     1       3.466  -0.718  -0.305  0.00  0.00    -0.472 OA
ENDBRANCH   1  27
TORSDOF 2
