REMARK  Name = ZINC02199527
REMARK  12 active torsions:
REMARK  status: ('A' for Active; 'I' for Inactive)
REMARK    1  A    between atoms: C_1  and  C_2
REMARK    2  A    between atoms: C_2  and  O_3
REMARK    3  A    between atoms: O_3  and  C_4
REMARK    4  A    between atoms: C_6  and  C_11
REMARK    5  A    between atoms: C_9  and  O_10
REMARK    6  A    between atoms: N_12  and  N_13
REMARK    7  A    between atoms: C_14  and  C_16
REMARK    8  A    between atoms: C_16  and  S_17
REMARK    9  A    between atoms: S_17  and  C_18
REMARK   10  A    between atoms: C_21  and  C_30
REMARK   11  A    between atoms: N_22  and  C_23
REMARK   12  A    between atoms: C_26  and  C_29
REMARK                            x       y       z     vdW  Elec       q    Type
REMARK                         _______ _______ _______ _____ _____    ______ ____
ROOT
ATOM      1  S   UNL     1      -1.448   2.336   0.022  0.00  0.00    -0.076 S 
ENDROOT
BRANCH   1   2
ATOM      2  C   UNL     1      -0.016   1.310   0.009  0.00  0.00    +0.197 A 
ATOM      3  N   UNL     1       0.002  -0.004   0.002  0.00  0.00    -0.122 NA
ATOM      4  N   UNL     1       1.214  -0.430  -0.012  0.00  0.00    -0.128 NA
ATOM      5  C   UNL     1       2.047   0.585  -0.014  0.00  0.00    +0.169 A 
ATOM      6  N   UNL     1       1.285   1.733  -0.001  0.00  0.00    -0.270 N 
BRANCH   6   7
ATOM      7  C   UNL     1       1.747   3.056   0.002  0.00  0.00    +0.051 A 
ATOM      8  C   UNL     1       2.450   3.550  -1.089  0.00  0.00    +0.026 A 
ATOM      9  C   UNL     1       2.898   4.856  -1.086  0.00  0.00    +0.005 A 
ATOM     10  C   UNL     1       2.658   5.669   0.007  0.00  0.00    -0.050 A 
ATOM     11  C   UNL     1       1.963   5.178   1.097  0.00  0.00    +0.005 A 
ATOM     12  C   UNL     1       1.507   3.874   1.098  0.00  0.00    +0.026 A 
ATOM     13  C   UNL     1       3.154   7.092   0.010  0.00  0.00    +0.044 C 
ENDBRANCH   6   7
BRANCH   5  14
ATOM     14  C   UNL     1       3.523   0.510  -0.030  0.00  0.00    +0.020 A 
ATOM     15  C   UNL     1       4.286   1.639   0.276  0.00  0.00    +0.011 A 
ATOM     16  C   UNL     1       5.663   1.560   0.265  0.00  0.00    +0.001 A 
ATOM     17  C   UNL     1       6.289   0.369  -0.058  0.00  0.00    +0.000 A 
ATOM     18  C   UNL     1       5.539  -0.751  -0.367  0.00  0.00    +0.001 A 
ATOM     19  C   UNL     1       4.161  -0.689  -0.355  0.00  0.00    +0.011 A 
ENDBRANCH   5  14
ENDBRANCH   1   2
BRANCH   1  20
ATOM     20  C   UNL     1      -2.742   1.071   0.022  0.00  0.00    +0.174 C 
BRANCH  20  22
ATOM     21  N   UNL     1      -5.214   0.984   0.035  0.00  0.00    -0.206 N 
ATOM     22  C   UNL     1      -4.094   1.735   0.033  0.00  0.00    +0.242 C 
ATOM     23  O   UNL     1      -4.176   2.945   0.039  0.00  0.00    -0.273 OA
ATOM     24  H   UNL     1      -5.149   0.016   0.029  0.00  0.00    +0.177 HD
BRANCH  21  26
ATOM     25  C   UNL     1      -7.549   0.878   0.046  0.00  0.00    +0.138 C 
ATOM     26  N   UNL     1      -6.471   1.601   0.044  0.00  0.00    -0.188 NA
BRANCH  25  29
ATOM     27  C   UNL     1     -11.272   1.366   0.068  0.00  0.00    +0.162 A 
ATOM     28  C   UNL     1     -10.034   0.751   0.058  0.00  0.00    +0.059 A 
ATOM     29  C   UNL     1      -8.873   1.528   0.056  0.00  0.00    -0.002 A 
ATOM     30  C   UNL     1      -8.968   2.922   0.070  0.00  0.00    +0.013 A 
ATOM     31  C   UNL     1     -10.207   3.527   0.073  0.00  0.00    +0.050 A 
ATOM     32  C   UNL     1     -11.360   2.756   0.075  0.00  0.00    +0.158 A 
BRANCH  32  33
ATOM     33  O   UNL     1     -12.579   3.358   0.084  0.00  0.00    -0.503 OA
ATOM     34  H   UNL     1     -12.927   3.528   0.970  0.00  0.00    +0.292 HD
ENDBRANCH  32  33
BRANCH  27  35
ATOM     35  O   UNL     1     -12.405   0.613   0.070  0.00  0.00    -0.489 OA
BRANCH  35  37
ATOM     36  C   UNL     1     -13.614  -1.480   0.066  0.00  0.00    +0.048 C 
ATOM     37  C   UNL     1     -12.240  -0.807   0.062  0.00  0.00    +0.226 C 
ENDBRANCH  35  37
ENDBRANCH  27  35
ENDBRANCH  25  29
ENDBRANCH  21  26
ENDBRANCH  20  22
ENDBRANCH   1  20
TORSDOF 10
