REMARK  Name = ZINC16286261
REMARK  7 active torsions:
REMARK  status: ('A' for Active; 'I' for Inactive)
REMARK    1  A    between atoms: C_1  and  C_2
REMARK    2  A    between atoms: C_2  and  C_35
REMARK    3  A    between atoms: C_6  and  C_27
REMARK    4  A    between atoms: C_12  and  S_16
REMARK    5  A    between atoms: S_16  and  C_17
REMARK    6  A    between atoms: C_17  and  C_18
REMARK    7  A    between atoms: C_21  and  N_24
REMARK                            x       y       z     vdW  Elec       q    Type
REMARK                         _______ _______ _______ _____ _____    ______ ____
ROOT
ATOM      1  C   UNL     1      -0.019   1.526   0.010  0.00  0.00    +0.011 C 
ATOM      2  C   UNL     1       0.002  -0.004   0.002  0.00  0.00    -0.023 C 
ATOM      3  C   UNL     1       0.740  -0.502  -1.243  0.00  0.00    +0.058 C 
ATOM      4  C   UNL     1       2.167  -0.010  -1.215  0.00  0.00    +0.017 C 
ATOM      5  C   UNL     1       2.812   0.187  -0.045  0.00  0.00    +0.025 C 
ATOM      6  C   UNL     1       4.237   0.678  -0.019  0.00  0.00    +0.099 C 
ATOM      7  C   UNL     1       4.902   0.491  -1.350  0.00  0.00    +0.069 A 
ATOM      8  C   UNL     1       6.310   0.533  -1.453  0.00  0.00    +0.280 A 
ATOM      9  O   UNL     1       6.994   0.715  -0.456  0.00  0.00    -0.265 OA
ATOM     10  N   UNL     1       6.893   0.371  -2.651  0.00  0.00    -0.185 NA
ATOM     11  C   UNL     1       6.171   0.172  -3.734  0.00  0.00    +0.172 A 
ATOM     12  N   UNL     1       4.810   0.123  -3.676  0.00  0.00    -0.322 N 
ATOM     13  C   UNL     1       4.168   0.282  -2.476  0.00  0.00    +0.112 A 
ATOM     14  N   UNL     1       2.796   0.228  -2.407  0.00  0.00    -0.304 N 
ATOM     15  C   UNL     1       2.173  -0.054   1.183  0.00  0.00    +0.162 C 
ATOM     16  O   UNL     1       2.788   0.115   2.218  0.00  0.00    -0.292 OA
ATOM     17  C   UNL     1       0.743  -0.516   1.242  0.00  0.00    +0.086 C 
ATOM     18  C   UNL     1      -1.432  -0.538   0.002  0.00  0.00    +0.011 C 
ATOM     19  H   UNL     1       2.269   0.359  -3.210  0.00  0.00    +0.153 HD
ATOM     20  H   UNL     1       4.296  -0.025  -4.485  0.00  0.00    +0.169 HD
ENDROOT
BRANCH   6  21
ATOM     21  C   UNL     1       4.248   2.142   0.337  0.00  0.00    +0.002 A 
ATOM     22  C   UNL     1       4.842   2.762   1.386  0.00  0.00    +0.012 A 
ATOM     23  C   UNL     1       4.718   4.133   1.512  0.00  0.00    +0.008 A 
ATOM     24  C   UNL     1       4.007   4.817   0.584  0.00  0.00    +0.045 A 
ATOM     25  S   UNL     1       3.489   3.513  -0.520  0.00  0.00    -0.101 S 
ENDBRANCH   6  21
BRANCH  11  26
ATOM     26  S   UNL     1       6.978  -0.035  -5.286  0.00  0.00    -0.083 S 
BRANCH  26  27
ATOM     27  C   UNL     1       8.742   0.103  -4.885  0.00  0.00    +0.112 C 
BRANCH  27  28
ATOM     28  C   UNL     1       9.557  -0.058  -6.143  0.00  0.00    -0.037 A 
ATOM     29  C   UNL     1       9.977  -1.314  -6.539  0.00  0.00    +0.007 A 
ATOM     30  C   UNL     1      10.725  -1.461  -7.692  0.00  0.00    +0.033 A 
ATOM     31  C   UNL     1      11.052  -0.352  -8.449  0.00  0.00    +0.126 A 
ATOM     32  C   UNL     1      10.632   0.904  -8.054  0.00  0.00    +0.033 A 
ATOM     33  C   UNL     1       9.881   1.051  -6.903  0.00  0.00    +0.007 A 
BRANCH  31  34
ATOM     34  N   UNL     1      11.854  -0.510  -9.684  0.00  0.00    +0.056 N 
ATOM     35  O   UNL     1      12.222  -1.608 -10.030  0.00  0.00    -0.126 OA
ATOM     36  O   UNL     1      12.141   0.460 -10.346  0.00  0.00    -0.126 OA
ENDBRANCH  31  34
ENDBRANCH  27  28
ENDBRANCH  26  27
ENDBRANCH  11  26
TORSDOF 5
