REMARK  Name = ZINC29391095
REMARK  6 active torsions:
REMARK  status: ('A' for Active; 'I' for Inactive)
REMARK    1  A    between atoms: C_1  and  O_2
REMARK    2  A    between atoms: O_2  and  C_3
REMARK    3  A    between atoms: C_8  and  C_9
REMARK    4  A    between atoms: C_9  and  C_10
REMARK    5  A    between atoms: C_19  and  C_24
REMARK    6  A    between atoms: C_19  and  C_30
REMARK                            x       y       z     vdW  Elec       q    Type
REMARK                         _______ _______ _______ _____ _____    ______ ____
ROOT
ATOM      1  C   UNL     1       2.945   3.168  -1.567  0.00  0.00    +0.072 C 
ATOM      2  N   UNL     1       2.325   2.037  -1.477  0.00  0.00    -0.390 N 
ATOM      3  N   UNL     1       2.309   4.328  -1.209  0.00  0.00    -0.319 N 
ATOM      4  C   UNL     1       2.898   5.671  -1.264  0.00  0.00    +0.117 C 
ATOM      5  C   UNL     1       1.848   6.662  -0.735  0.00  0.00    +0.078 C 
ATOM      6  C   UNL     1       0.805   5.801  -0.029  0.00  0.00    +0.033 C 
ATOM      7  C   UNL     1       0.930   4.423  -0.715  0.00  0.00    +0.111 C 
ATOM      8  C   UNL     1      -0.604   6.282  -0.057  0.00  0.00    +0.026 C 
ATOM      9  C   UNL     1      -1.041   7.449  -0.869  0.00  0.00    +0.024 C 
ATOM     10  C   UNL     1       0.024   8.264  -1.567  0.00  0.00    +0.076 C 
ATOM     11  C   UNL     1       1.212   7.390  -1.892  0.00  0.00    +0.138 C 
ATOM     12  O   UNL     1       1.631   7.280  -3.020  0.00  0.00    -0.297 OA
ATOM     13  H   UNL     1       1.287   2.006  -1.113  0.00  0.00    +0.157 HD
ATOM     14  H   UNL     1       2.835   1.106  -1.765  0.00  0.00    +0.157 HD
ENDROOT
BRANCH   8  15
ATOM     15  C   UNL     1      -1.453   5.113  -0.485  0.00  0.00    -0.037 A 
ATOM     16  C   UNL     1      -1.732   4.096   0.410  0.00  0.00    +0.004 A 
ATOM     17  C   UNL     1      -2.514   3.026   0.018  0.00  0.00    +0.000 A 
ATOM     18  C   UNL     1      -3.010   2.968  -1.271  0.00  0.00    +0.000 A 
ATOM     19  C   UNL     1      -2.728   3.982  -2.167  0.00  0.00    +0.000 A 
ATOM     20  C   UNL     1      -1.949   5.054  -1.774  0.00  0.00    +0.004 A 
ENDBRANCH   8  15
BRANCH   8  21
ATOM     21  C   UNL     1      -0.990   6.579   1.370  0.00  0.00    -0.037 A 
ATOM     22  C   UNL     1      -2.241   6.222   1.836  0.00  0.00    +0.004 A 
ATOM     23  C   UNL     1      -2.593   6.490   3.146  0.00  0.00    +0.000 A 
ATOM     24  C   UNL     1      -1.697   7.125   3.986  0.00  0.00    +0.000 A 
ATOM     25  C   UNL     1      -0.448   7.487   3.518  0.00  0.00    +0.000 A 
ATOM     26  C   UNL     1      -0.094   7.214   2.210  0.00  0.00    +0.004 A 
ENDBRANCH   8  21
BRANCH   1  27
ATOM     27  C   UNL     1       4.366   3.211  -2.066  0.00  0.00    +0.107 C 
BRANCH  27  33
ATOM     28  C   UNL     1       4.548   1.261  -3.631  0.00  0.00    +0.124 A 
ATOM     29  C   UNL     1       4.975  -0.026  -3.927  0.00  0.00    +0.046 A 
ATOM     30  C   UNL     1       5.675  -0.753  -2.984  0.00  0.00    +0.004 A 
ATOM     31  C   UNL     1       5.952  -0.200  -1.748  0.00  0.00    +0.001 A 
ATOM     32  C   UNL     1       5.532   1.084  -1.453  0.00  0.00    +0.007 A 
ATOM     33  C   UNL     1       4.827   1.814  -2.390  0.00  0.00    +0.001 A 
BRANCH  28  35
ATOM     34  C   UNL     1       3.609   1.346  -5.814  0.00  0.00    +0.277 C 
ATOM     35  O   UNL     1       3.860   1.979  -4.557  0.00  0.00    -0.495 OA
ENDBRANCH  28  35
ENDBRANCH  27  33
ENDBRANCH   1  27
TORSDOF 5
