REMARK  Name = ZINC16741535
REMARK  12 active torsions:
REMARK  status: ('A' for Active; 'I' for Inactive)
REMARK    1  A    between atoms: C_1  and  C_2
REMARK    2  A    between atoms: C_2  and  C_3
REMARK    3  A    between atoms: C_3  and  C_4
REMARK    4  A    between atoms: C_4  and  C_5
REMARK    5  A    between atoms: C_5  and  N_6
REMARK    6  A    between atoms: C_10  and  C_11
REMARK    7  A    between atoms: N_13  and  C_28
REMARK    8  A    between atoms: C_15  and  C_16
REMARK    9  A    between atoms: C_18  and  C_27
REMARK   10  A    between atoms: C_23  and  C_26
REMARK   11  A    between atoms: C_34  and  C_40
REMARK   12  A    between atoms: C_35  and  C_38
REMARK                            x       y       z     vdW  Elec       q    Type
REMARK                         _______ _______ _______ _____ _____    ______ ____
ROOT
ATOM      1  C   UNL     1       1.165   1.859   0.262  0.00  0.00    +0.021 A 
ATOM      2  C   UNL     1      -0.104   1.618   0.776  0.00  0.00    +0.123 A 
ATOM      3  N   UNL     1      -0.262   0.288   0.866  0.00  0.00    -0.239 N 
ATOM      4  N   UNL     1       0.891  -0.358   0.416  0.00  0.00    -0.166 NA
ATOM      5  C   UNL     1       1.775   0.538   0.043  0.00  0.00    +0.100 A 
ENDROOT
BRANCH   5   6
ATOM      6  C   UNL     1       3.130   0.271  -0.495  0.00  0.00    +0.003 A 
ATOM      7  C   UNL     1       3.674   1.102  -1.474  0.00  0.00    +0.017 A 
ATOM      8  C   UNL     1       4.931   0.852  -1.975  0.00  0.00    -0.008 A 
ATOM      9  C   UNL     1       5.673  -0.233  -1.509  0.00  0.00    +0.127 A 
ATOM     10  C   UNL     1       5.127  -1.055  -0.529  0.00  0.00    -0.001 A 
ATOM     11  C   UNL     1       3.873  -0.811  -0.021  0.00  0.00    +0.017 A 
ATOM     12  C   UNL     1       6.158  -2.124  -0.221  0.00  0.00    +0.083 C 
ATOM     13  C   UNL     1       7.436  -1.527  -0.856  0.00  0.00    +0.175 C 
ATOM     14  O   UNL     1       6.911  -0.663  -1.877  0.00  0.00    -0.488 OA
ATOM     15  C   UNL     1       8.233  -0.729   0.178  0.00  0.00    +0.052 C 
ATOM     16  C   UNL     1       5.510   1.757  -3.032  0.00  0.00    +0.047 C 
ENDBRANCH   5   6
BRANCH   1  21
ATOM     17  N   UNL     1      -0.957   4.709  -1.966  0.00  0.00    -0.234 N 
ATOM     18  C   UNL     1      -0.260   3.764  -1.310  0.00  0.00    +0.253 C 
ATOM     19  O   UNL     1      -0.696   2.631  -1.238  0.00  0.00    -0.270 OA
ATOM     20  C   UNL     1       1.026   4.095  -0.679  0.00  0.00    +0.042 C 
ATOM     21  C   UNL     1       1.750   3.118   0.002  0.00  0.00    +0.025 C 
ATOM     22  C   UNL     1       1.516   5.417  -0.766  0.00  0.00    -0.016 C 
ATOM     23  C   UNL     1       0.770   6.361  -1.456  0.00  0.00    +0.117 C 
ATOM     24  C   UNL     1      -0.504   5.971  -2.064  0.00  0.00    +0.264 C 
ATOM     25  O   UNL     1      -1.162   6.800  -2.666  0.00  0.00    -0.269 OA
ATOM     26  C   UNL     1       2.828   5.794  -0.126  0.00  0.00    +0.046 C 
BRANCH  23  27
ATOM     27  C   UNL     1       1.239   7.709  -1.568  0.00  0.00    +0.105 C 
ATOM     28  N   UNL     1       1.611   8.779  -1.657  0.00  0.00    -0.191 NA
ENDBRANCH  23  27
BRANCH  17  29
ATOM     29  C   UNL     1      -2.236   4.356  -2.586  0.00  0.00    +0.117 C 
BRANCH  29  30
ATOM     30  C   UNL     1      -3.369   4.574  -1.581  0.00  0.00    +0.019 C 
BRANCH  30  31
ATOM     31  C   UNL     1      -4.705   4.204  -2.229  0.00  0.00    +0.001 C 
BRANCH  31  33
ATOM     32  C   UNL     1      -7.173   4.053  -1.871  0.00  0.00    +0.004 C 
ATOM     33  C   UNL     1      -5.837   4.422  -1.223  0.00  0.00    -0.003 C 
ENDBRANCH  31  33
ENDBRANCH  30  31
ENDBRANCH  29  30
ENDBRANCH  17  29
ENDBRANCH   1  21
BRANCH   3  34
ATOM     34  C   UNL     1      -1.412  -0.355   1.341  0.00  0.00    +0.065 A 
ATOM     35  C   UNL     1      -2.501   0.392   1.770  0.00  0.00    +0.028 A 
ATOM     36  C   UNL     1      -3.635  -0.245   2.232  0.00  0.00    +0.002 A 
ATOM     37  C   UNL     1      -3.683  -1.627   2.279  0.00  0.00    +0.000 A 
ATOM     38  C   UNL     1      -2.598  -2.374   1.858  0.00  0.00    +0.002 A 
ATOM     39  C   UNL     1      -1.463  -1.742   1.389  0.00  0.00    +0.028 A 
ENDBRANCH   3  34
TORSDOF 8
