REMARK  Name = ZINC13759920
REMARK  10 active torsions:
REMARK  status: ('A' for Active; 'I' for Inactive)
REMARK    1  A    between atoms: C_1  and  C_2
REMARK    2  A    between atoms: C_5  and  S_8
REMARK    3  A    between atoms: S_8  and  N_11
REMARK    4  A    between atoms: N_11  and  C_12
REMARK    5  A    between atoms: C_12  and  C_13
REMARK    6  A    between atoms: C_13  and  C_14
REMARK    7  A    between atoms: C_14  and  C_15
REMARK    8  A    between atoms: C_15  and  N_66
REMARK    9  A    between atoms: C_27  and  O_28
REMARK   10  A    between atoms: O_28  and  C_29
REMARK                            x       y       z     vdW  Elec       q    Type
REMARK                         _______ _______ _______ _____ _____    ______ ____
ROOT
ATOM      1  C   UNL     1       0.002  -0.004   0.002  0.00  0.00    -0.078 C 
ATOM      2  C   UNL     1      -0.019   1.526   0.010  0.00  0.00    -0.019 C 
ATOM      3  C   UNL     1       1.419   2.052  -0.001  0.00  0.00    -0.003 C 
ATOM      4  C   UNL     1       2.145   1.505  -1.233  0.00  0.00    -0.008 C 
ATOM      5  C   UNL     1       2.100  -0.024  -1.209  0.00  0.00    -0.026 C 
ATOM      6  C   UNL     1       2.822  -0.541   0.036  0.00  0.00    +0.034 C 
ATOM      7  C   UNL     1       4.309  -0.342  -0.118  0.00  0.00    +0.035 A 
ATOM      8  C   UNL     1       4.882  -0.115  -1.356  0.00  0.00    +0.127 A 
ATOM      9  C   UNL     1       6.259   0.057  -1.458  0.00  0.00    +0.046 A 
ATOM     10  C   UNL     1       7.053   0.005  -0.331  0.00  0.00    +0.007 A 
ATOM     11  C   UNL     1       6.482  -0.216   0.908  0.00  0.00    +0.046 A 
ATOM     12  C   UNL     1       5.111  -0.391   1.016  0.00  0.00    +0.127 A 
ATOM     13  O   UNL     1       4.135  -0.045  -2.489  0.00  0.00    -0.493 OA
ATOM     14  C   UNL     1       2.810  -0.577  -2.449  0.00  0.00    +0.217 C 
ATOM     15  N   UNL     1       0.691  -0.468  -1.221  0.00  0.00    +0.386 N 
ATOM     16  H   UNL     1       0.222  -0.065  -2.041  0.00  0.00    -0.081 HD
ENDROOT
BRANCH  12  17
ATOM     17  O   UNL     1       4.550  -0.610   2.234  0.00  0.00    -0.495 OA
ATOM     18  C   UNL     1       5.432  -0.649   3.357  0.00  0.00    +0.277 C 
ENDBRANCH  12  17
BRANCH  15  19
ATOM     19  C   UNL     1       0.627  -1.941  -1.309  0.00  0.00    -0.078 C 
BRANCH  19  20
ATOM     20  C   UNL     1      -0.825  -2.357  -1.550  0.00  0.00    -0.017 C 
BRANCH  20  21
ATOM     21  C   UNL     1      -0.906  -3.881  -1.667  0.00  0.00    +0.015 C 
BRANCH  21  22
ATOM     22  C   UNL     1      -2.358  -4.297  -1.908  0.00  0.00    +0.106 C 
BRANCH  22  23
ATOM     23  N   UNL     1      -2.436  -5.756  -2.020  0.00  0.00    -0.190 NA
ATOM     24  H   UNL     1      -1.628  -6.276  -2.158  0.00  0.00    +0.148 HD
BRANCH  23  25
ATOM     25  S   UNL     1      -3.902  -6.518  -1.911  0.00  0.00    +0.058 S 
ATOM     26  O   UNL     1      -3.652  -7.906  -2.083  0.00  0.00    -0.153 OA
ATOM     27  O   UNL     1      -4.546  -5.997  -0.756  0.00  0.00    -0.153 OA
BRANCH  25  32
ATOM     28  C   UNL     1      -7.184  -4.757  -6.658  0.00  0.00    +0.044 C 
ATOM     29  C   UNL     1      -6.365  -5.197  -5.472  0.00  0.00    -0.050 A 
ATOM     30  C   UNL     1      -5.559  -6.316  -5.566  0.00  0.00    +0.005 A 
ATOM     31  C   UNL     1      -4.807  -6.720  -4.478  0.00  0.00    +0.029 A 
ATOM     32  C   UNL     1      -4.861  -6.004  -3.297  0.00  0.00    +0.105 A 
ATOM     33  C   UNL     1      -5.670  -4.888  -3.201  0.00  0.00    +0.029 A 
ATOM     34  C   UNL     1      -6.419  -4.481  -4.290  0.00  0.00    +0.005 A 
ENDBRANCH  25  32
ENDBRANCH  23  25
ENDBRANCH  22  23
ENDBRANCH  21  22
ENDBRANCH  20  21
ENDBRANCH  19  20
ENDBRANCH  15  19
TORSDOF 8
