REMARK  Name = ZINC07726428
REMARK  8 active torsions:
REMARK  status: ('A' for Active; 'I' for Inactive)
REMARK    1  A    between atoms: C_1  and  C_2
REMARK    2  A    between atoms: C_6  and  C_14
REMARK    3  A    between atoms: C_12  and  C_13
REMARK    4  A    between atoms: C_14  and  N_48
REMARK    5  A    between atoms: C_15  and  C_16
REMARK    6  A    between atoms: C_15  and  N_48
REMARK    7  A    between atoms: C_21  and  C_22
REMARK    8  A    between atoms: C_21  and  N_48
REMARK                            x       y       z     vdW  Elec       q    Type
REMARK                         _______ _______ _______ _____ _____    ______ ____
ROOT
ATOM      1  C   UNL     1       3.045   3.738  -0.061  0.00  0.00    -0.041 C 
ENDROOT
BRANCH   1   7
ATOM      2  C   UNL     1      -2.888   0.920   0.975  0.00  0.00    +0.044 C 
ATOM      3  C   UNL     1      -1.450   1.281   0.707  0.00  0.00    -0.044 A 
ATOM      4  C   UNL     1      -1.067   2.615   0.699  0.00  0.00    +0.004 A 
ATOM      5  C   UNL     1       0.233   2.961   0.459  0.00  0.00    +0.012 A 
ATOM      6  C   UNL     1       1.184   1.964   0.219  0.00  0.00    +0.019 A 
ATOM      7  C   UNL     1       2.586   2.303  -0.042  0.00  0.00    -0.046 A 
ATOM      8  C   UNL     1       3.459   1.289  -0.266  0.00  0.00    +0.094 A 
ATOM      9  C   UNL     1       3.004  -0.047  -0.243  0.00  0.00    +0.337 A 
ATOM     10  O   UNL     1       3.797  -0.949  -0.446  0.00  0.00    -0.245 OA
ATOM     11  O   UNL     1       1.719  -0.350  -0.003  0.00  0.00    -0.422 OA
ATOM     12  C   UNL     1       0.799   0.612   0.228  0.00  0.00    +0.142 A 
ATOM     13  C   UNL     1      -0.527   0.283   0.474  0.00  0.00    -0.005 A 
ATOM     14  C   UNL     1      -0.958  -1.161   0.487  0.00  0.00    +0.048 C 
ENDBRANCH   1   7
BRANCH   1  15
ATOM     15  N   UNL     1       3.211   4.205   1.332  0.00  0.00    +0.392 N 
ATOM     16  H   UNL     1       2.352   4.001   1.856  0.00  0.00    -0.080 HD
BRANCH  15  17
ATOM     17  C   UNL     1       4.342   3.498   1.970  0.00  0.00    -0.002 C 
BRANCH  17  18
ATOM     18  C   UNL     1       5.606   3.697   1.174  0.00  0.00    +0.089 A 
ATOM     19  C   UNL     1       6.545   4.630   1.410  0.00  0.00    +0.042 A 
ATOM     20  C   UNL     1       7.549   4.458   0.430  0.00  0.00    +0.041 A 
ATOM     21  C   UNL     1       7.163   3.430  -0.347  0.00  0.00    +0.195 A 
ATOM     22  O   UNL     1       5.988   2.970   0.112  0.00  0.00    -0.470 OA
ENDBRANCH  17  18
ENDBRANCH  15  17
BRANCH  15  23
ATOM     23  C   UNL     1       3.451   5.663   1.351  0.00  0.00    -0.002 C 
BRANCH  23  24
ATOM     24  C   UNL     1       3.256   6.167   2.758  0.00  0.00    +0.089 A 
ATOM     25  C   UNL     1       4.225   6.329   3.677  0.00  0.00    +0.042 A 
ATOM     26  C   UNL     1       3.601   6.819   4.847  0.00  0.00    +0.041 A 
ATOM     27  C   UNL     1       2.288   6.927   4.574  0.00  0.00    +0.195 A 
ATOM     28  O   UNL     1       2.086   6.536   3.305  0.00  0.00    -0.470 OA
ENDBRANCH  23  24
ENDBRANCH  15  23
ENDBRANCH   1  15
TORSDOF 6
