REMARK  Name = ZINC34820504
REMARK  9 active torsions:
REMARK  status: ('A' for Active; 'I' for Inactive)
REMARK    1  A    between atoms: C_1  and  C_2
REMARK    2  A    between atoms: C_2  and  C_4
REMARK    3  A    between atoms: C_2  and  N_21
REMARK    4  A    between atoms: C_9  and  O_10
REMARK    5  A    between atoms: O_10  and  C_11
REMARK    6  A    between atoms: C_11  and  C_13
REMARK    7  A    between atoms: C_11  and  C_14
REMARK    8  A    between atoms: N_19  and  C_20
REMARK    9  A    between atoms: N_21  and  C_22
REMARK                            x       y       z     vdW  Elec       q    Type
REMARK                         _______ _______ _______ _____ _____    ______ ____
ROOT
ATOM      1  C   UNL     1       0.748  -0.711   1.151  0.00  0.00    -0.020 A 
ATOM      2  C   UNL     1       0.053  -1.355   2.156  0.00  0.00    +0.005 A 
ATOM      3  C   UNL     1       0.738  -1.998   3.170  0.00  0.00    +0.000 A 
ATOM      4  C   UNL     1       2.121  -1.998   3.181  0.00  0.00    +0.004 A 
ATOM      5  C   UNL     1       2.821  -1.355   2.179  0.00  0.00    +0.046 A 
ATOM      6  C   UNL     1       2.135  -0.714   1.157  0.00  0.00    +0.123 A 
ENDROOT
BRANCH   1   8
ATOM      7  C   UNL     1      -0.036   1.493   0.329  0.00  0.00    -0.009 C 
ATOM      8  C   UNL     1      -0.000  -0.010   0.047  0.00  0.00    -0.041 C 
BRANCH   8   9
ATOM      9  N   UNL     1      -1.373  -0.529  -0.021  0.00  0.00    +0.382 N 
ATOM     10  C   UNL     1      -2.065   0.066  -1.171  0.00  0.00    -0.100 C 
ATOM     11  H   UNL     1      -1.349  -1.532  -0.125  0.00  0.00    -0.085 HD
ATOM     12  H   UNL     1      -1.865  -0.290   0.828  0.00  0.00    -0.085 HD
ENDBRANCH   8   9
ENDBRANCH   1   8
BRANCH   6  13
ATOM     13  O   UNL     1       2.821  -0.086   0.166  0.00  0.00    -0.480 OA
BRANCH  13  14
ATOM     14  C   UNL     1       4.242  -0.022   0.301  0.00  0.00    +0.256 C 
ATOM     15  C   UNL     1       4.864  -1.309  -0.244  0.00  0.00    +0.062 C 
BRANCH  14  16
ATOM     16  C   UNL     1       4.768   1.158  -0.475  0.00  0.00    +0.261 C 
ATOM     17  O   UNL     1       4.001   1.873  -1.084  0.00  0.00    -0.271 OA
ATOM     18  N   UNL     1       6.090   1.418  -0.493  0.00  0.00    -0.237 N 
ATOM     19  C   UNL     1       6.560   2.473  -1.188  0.00  0.00    +0.306 C 
ATOM     20  O   UNL     1       5.792   3.190  -1.798  0.00  0.00    -0.252 OA
ATOM     21  N   UNL     1       7.883   2.733  -1.206  0.00  0.00    -0.302 N 
ATOM     22  C   UNL     1       8.394   3.880  -1.960  0.00  0.00    +0.129 C 
ATOM     23  H   UNL     1       6.704   0.846  -0.006  0.00  0.00    +0.159 HD
ATOM     24  H   UNL     1       8.496   2.161  -0.719  0.00  0.00    +0.150 HD
ENDBRANCH  14  16
ENDBRANCH  13  14
ENDBRANCH   6  13
TORSDOF 5
