REMARK  Name = ZINC65150976
REMARK  7 active torsions:
REMARK  status: ('A' for Active; 'I' for Inactive)
REMARK    1  A    between atoms: C_1  and  C_2
REMARK    2  A    between atoms: C_6  and  S_8
REMARK    3  A    between atoms: S_8  and  C_9
REMARK    4  A    between atoms: N_12  and  C_19
REMARK    5  A    between atoms: C_19  and  C_20
REMARK    6  A    between atoms: N_22  and  C_23
REMARK    7  A    between atoms: C_23  and  C_24
REMARK                            x       y       z     vdW  Elec       q    Type
REMARK                         _______ _______ _______ _____ _____    ______ ____
ROOT
ATOM      1  C   UNL     1      -0.074  -4.668   2.211  0.00  0.00    +0.146 A 
ATOM      2  C   UNL     1      -0.208  -5.732   3.213  0.00  0.00    +0.194 A 
ATOM      3  N   UNL     1      -0.260  -5.732   4.519  0.00  0.00    -0.146 NA
ATOM      4  N   UNL     1      -0.394  -7.061   4.946  0.00  0.00    -0.203 N 
ATOM      5  C   UNL     1      -0.419  -7.842   3.846  0.00  0.00    +0.352 A 
ATOM      6  O   UNL     1      -0.527  -9.056   3.829  0.00  0.00    -0.244 OA
ATOM      7  N   UNL     1      -0.306  -7.042   2.771  0.00  0.00    -0.247 N 
ATOM      8  C   UNL     1      -0.274  -7.285   1.411  0.00  0.00    +0.117 A 
ATOM      9  C   UNL     1      -0.150  -6.273   0.541  0.00  0.00    +0.130 A 
ATOM     10  N   UNL     1      -0.058  -4.995   0.934  0.00  0.00    -0.243 NA
ENDROOT
BRANCH   1  11
ATOM     11  S   UNL     1       0.055  -2.982   2.705  0.00  0.00    -0.066 S 
BRANCH  11  17
ATOM     12  C   UNL     1      -2.503  -0.687  -1.241  0.00  0.00    +0.044 C 
ATOM     13  C   UNL     1      -1.190  -1.053  -0.598  0.00  0.00    -0.049 A 
ATOM     14  C   UNL     1       0.000  -0.689  -1.200  0.00  0.00    +0.003 A 
ATOM     15  C   UNL     1       1.207  -1.023  -0.613  0.00  0.00    +0.001 A 
ATOM     16  C   UNL     1       1.227  -1.722   0.578  0.00  0.00    +0.015 A 
ATOM     17  C   UNL     1       0.034  -2.090   1.186  0.00  0.00    +0.015 A 
ATOM     18  C   UNL     1      -1.177  -1.747   0.596  0.00  0.00    +0.018 A 
ENDBRANCH  11  17
ENDBRANCH   1  11
BRANCH   4  19
ATOM     19  C   UNL     1      -0.488  -7.518   6.335  0.00  0.00    +0.244 C 
BRANCH  19  20
ATOM     20  C   UNL     1       0.893  -7.800   6.866  0.00  0.00    +0.235 C 
ATOM     21  O   UNL     1       1.862  -7.634   6.155  0.00  0.00    -0.274 OA
ATOM     22  N   UNL     1       1.053  -8.235   8.132  0.00  0.00    -0.310 N 
ATOM     23  H   UNL     1       0.278  -8.367   8.700  0.00  0.00    +0.149 HD
BRANCH  22  24
ATOM     24  C   UNL     1       2.396  -8.509   8.648  0.00  0.00    +0.139 C 
BRANCH  24  25
ATOM     25  C   UNL     1       2.299  -8.979  10.076  0.00  0.00    -0.030 A 
ATOM     26  C   UNL     1       2.333  -8.062  11.110  0.00  0.00    +0.008 A 
ATOM     27  C   UNL     1       2.244  -8.492  12.420  0.00  0.00    +0.038 A 
ATOM     28  C   UNL     1       2.119  -9.843  12.697  0.00  0.00    +0.123 A 
ATOM     29  C   UNL     1       2.085 -10.761  11.662  0.00  0.00    +0.038 A 
ATOM     30  C   UNL     1       2.169 -10.328  10.352  0.00  0.00    +0.008 A 
ATOM     31  F   UNL     1       2.032 -10.265  13.978  0.00  0.00    -0.205 F 
ENDBRANCH  24  25
ENDBRANCH  22  24
ENDBRANCH  19  20
ENDBRANCH   4  19
TORSDOF 6
