REMARK  Name = ZINC04984375
REMARK  8 active torsions:
REMARK  status: ('A' for Active; 'I' for Inactive)
REMARK    1  A    between atoms: C_1  and  O_2
REMARK    2  A    between atoms: O_2  and  C_3
REMARK    3  A    between atoms: C_8  and  C_9
REMARK    4  A    between atoms: C_18  and  O_20
REMARK    5  A    between atoms: O_20  and  C_21
REMARK    6  A    between atoms: C_21  and  C_23
REMARK    7  A    between atoms: C_28  and  C_29
REMARK    8  A    between atoms: C_28  and  N_58
REMARK                            x       y       z     vdW  Elec       q    Type
REMARK                         _______ _______ _______ _____ _____    ______ ____
ROOT
ATOM      1  C   UNL     1       2.763   1.021   1.333  0.00  0.00    +0.060 C 
ATOM      2  C   UNL     1       2.966   2.484   1.738  0.00  0.00    -0.004 C 
ATOM      3  C   UNL     1       3.987   3.127   0.785  0.00  0.00    -0.067 C 
ATOM      4  C   UNL     1       5.195   2.169   0.671  0.00  0.00    -0.017 C 
ATOM      5  C   UNL     1       4.837   1.219  -0.491  0.00  0.00    -0.013 C 
ATOM      6  C   UNL     1       3.446   1.689  -0.973  0.00  0.00    -0.026 C 
ATOM      7  C   UNL     1       2.385   0.942  -0.149  0.00  0.00    +0.171 C 
ATOM      8  N   UNL     1       3.394   3.090  -0.547  0.00  0.00    +0.389 N 
ATOM      9  H   UNL     1       2.420   3.413  -0.509  0.00  0.00    -0.080 HD
ENDROOT
BRANCH   1  15
ATOM     10  C   UNL     1       1.887  -0.747   2.880  0.00  0.00    +0.124 A 
ATOM     11  C   UNL     1       0.871  -1.296   3.649  0.00  0.00    +0.046 A 
ATOM     12  C   UNL     1      -0.368  -0.686   3.691  0.00  0.00    +0.004 A 
ATOM     13  C   UNL     1      -0.594   0.473   2.972  0.00  0.00    +0.001 A 
ATOM     14  C   UNL     1       0.419   1.026   2.211  0.00  0.00    +0.007 A 
ATOM     15  C   UNL     1       1.660   0.419   2.165  0.00  0.00    +0.001 A 
BRANCH  10  17
ATOM     16  C   UNL     1       3.267  -2.547   3.594  0.00  0.00    +0.277 C 
ATOM     17  O   UNL     1       3.105  -1.349   2.832  0.00  0.00    -0.495 OA
ENDBRANCH  10  17
ENDBRANCH   1  15
BRANCH   7  18
ATOM     18  O   UNL     1       1.087   1.558  -0.353  0.00  0.00    -0.457 OA
BRANCH  18  19
ATOM     19  C   UNL     1       0.050   0.733  -0.606  0.00  0.00    +0.375 C 
ATOM     20  O   UNL     1       0.227  -0.469  -0.655  0.00  0.00    -0.241 OA
BRANCH  19  21
ATOM     21  C   UNL     1      -1.288   1.286  -0.829  0.00  0.00    +0.211 A 
ATOM     22  C   UNL     1      -2.418   0.568  -1.104  0.00  0.00    +0.056 A 
ATOM     23  C   UNL     1      -3.462   1.495  -1.239  0.00  0.00    +0.042 A 
ATOM     24  C   UNL     1      -2.930   2.724  -1.051  0.00  0.00    +0.196 A 
ATOM     25  O   UNL     1      -1.621   2.593  -0.804  0.00  0.00    -0.456 OA
ENDBRANCH  19  21
ENDBRANCH  18  19
ENDBRANCH   7  18
BRANCH   8  26
ATOM     26  C   UNL     1       4.163   3.957  -1.498  0.00  0.00    -0.042 C 
BRANCH  26  27
ATOM     27  C   UNL     1       3.585   3.846  -2.886  0.00  0.00    -0.064 A 
ATOM     28  C   UNL     1       4.129   2.955  -3.792  0.00  0.00    +0.002 A 
ATOM     29  C   UNL     1       3.596   2.850  -5.063  0.00  0.00    +0.000 A 
ATOM     30  C   UNL     1       2.524   3.642  -5.431  0.00  0.00    +0.000 A 
ATOM     31  C   UNL     1       1.984   4.537  -4.526  0.00  0.00    +0.000 A 
ATOM     32  C   UNL     1       2.514   4.639  -3.254  0.00  0.00    +0.002 A 
ENDBRANCH  26  27
ENDBRANCH   8  26
TORSDOF 7
