REMARK  Name = ZINC24832861
REMARK  8 active torsions:
REMARK  status: ('A' for Active; 'I' for Inactive)
REMARK    1  A    between atoms: C_1  and  N_2
REMARK    2  A    between atoms: C_3  and  C_11
REMARK    3  A    between atoms: N_7  and  C_10
REMARK    4  A    between atoms: C_11  and  O_12
REMARK    5  A    between atoms: O_12  and  C_13
REMARK    6  A    between atoms: C_13  and  C_15
REMARK    7  A    between atoms: N_21  and  S_22
REMARK    8  A    between atoms: S_22  and  C_25
REMARK                            x       y       z     vdW  Elec       q    Type
REMARK                         _______ _______ _______ _____ _____    ______ ____
ROOT
ATOM      1  C   UNL     1      -6.887   3.882   5.474  0.00  0.00    +0.188 C 
ATOM      2  C   UNL     1      -7.399   5.061   4.641  0.00  0.00    +0.032 C 
ATOM      3  C   UNL     1      -8.882   5.289   4.944  0.00  0.00    +0.003 C 
ATOM      4  C   UNL     1      -9.054   5.633   6.426  0.00  0.00    +0.017 C 
ATOM      5  C   UNL     1      -8.561   4.460   7.279  0.00  0.00    +0.110 C 
ATOM      6  N   UNL     1      -7.181   4.140   6.890  0.00  0.00    -0.163 NA
ENDROOT
BRANCH   6   7
ATOM      7  S   UNL     1      -5.978   4.073   8.027  0.00  0.00    +0.062 S 
ATOM      8  O   UNL     1      -6.593   3.678   9.245  0.00  0.00    -0.153 OA
ATOM      9  O   UNL     1      -4.907   3.345   7.442  0.00  0.00    -0.153 OA
BRANCH   7  10
ATOM     10  C   UNL     1      -5.396   5.719   8.268  0.00  0.00    +0.106 A 
ATOM     11  C   UNL     1      -4.237   6.140   7.643  0.00  0.00    +0.028 A 
ATOM     12  C   UNL     1      -3.783   7.433   7.827  0.00  0.00    +0.002 A 
ATOM     13  C   UNL     1      -4.482   8.301   8.645  0.00  0.00    +0.000 A 
ATOM     14  C   UNL     1      -5.638   7.877   9.275  0.00  0.00    +0.002 A 
ATOM     15  C   UNL     1      -6.095   6.587   9.086  0.00  0.00    +0.028 A 
ENDBRANCH   7  10
ENDBRANCH   6   7
BRANCH   1  16
ATOM     16  C   UNL     1      -5.399   3.738   5.285  0.00  0.00    +0.327 C 
ATOM     17  O   UNL     1      -4.679   4.701   5.402  0.00  0.00    -0.249 OA
BRANCH  16  18
ATOM     18  O   UNL     1      -4.874   2.539   4.986  0.00  0.00    -0.457 OA
BRANCH  18  19
ATOM     19  C   UNL     1      -3.433   2.475   4.817  0.00  0.00    +0.285 C 
BRANCH  19  22
ATOM     20  C   UNL     1      -0.695   1.804   4.387  0.00  0.00    +0.154 C 
ATOM     21  N   UNL     1      -1.711   0.753   4.284  0.00  0.00    -0.297 N 
ATOM     22  C   UNL     1      -3.028   1.061   4.488  0.00  0.00    +0.066 A 
ATOM     23  C   UNL     1      -3.964   0.092   4.393  0.00  0.00    +0.095 A 
ATOM     24  C   UNL     1      -3.560  -1.227   4.076  0.00  0.00    +0.257 A 
ATOM     25  O   UNL     1      -4.387  -2.116   3.980  0.00  0.00    -0.268 OA
ATOM     26  N   UNL     1      -2.251  -1.491   3.888  0.00  0.00    -0.264 N 
ATOM     27  C   UNL     1      -1.339  -0.506   3.989  0.00  0.00    +0.332 A 
ATOM     28  O   UNL     1      -0.163  -0.758   3.812  0.00  0.00    -0.246 OA
ATOM     29  C   UNL     1      -1.821  -2.854   3.566  0.00  0.00    +0.157 C 
ENDBRANCH  19  22
ENDBRANCH  18  19
ENDBRANCH  16  18
ENDBRANCH   1  16
TORSDOF 6
