REMARK  Name = ZINC11013168
REMARK  10 active torsions:
REMARK  status: ('A' for Active; 'I' for Inactive)
REMARK    1  A    between atoms: C_1  and  N_2
REMARK    2  A    between atoms: N_2  and  C_3
REMARK    3  A    between atoms: N_2  and  S_4
REMARK    4  A    between atoms: S_4  and  C_7
REMARK    5  A    between atoms: C_17  and  C_19
REMARK    6  A    between atoms: C_19  and  N_57
REMARK    7  A    between atoms: C_20  and  N_57
REMARK    8  A    between atoms: C_21  and  C_22
REMARK    9  A    between atoms: C_21  and  N_57
REMARK   10  A    between atoms: C_24  and  N_29
REMARK                            x       y       z     vdW  Elec       q    Type
REMARK                         _______ _______ _______ _____ _____    ______ ____
ROOT
ATOM      1  C   UNL     1       1.182  -0.679   0.073  0.00  0.00    +0.106 A 
ATOM      2  C   UNL     1      -0.023   0.001   0.067  0.00  0.00    +0.030 A 
ATOM      3  C   UNL     1      -0.034   1.381   0.053  0.00  0.00    +0.026 A 
ATOM      4  C   UNL     1       1.164   2.087   0.045  0.00  0.00    +0.039 A 
ATOM      5  C   UNL     1       2.370   1.405   0.054  0.00  0.00    -0.024 A 
ATOM      6  C   UNL     1       2.373   0.020   0.067  0.00  0.00    +0.034 A 
ATOM      7  C   UNL     1       3.687   2.136   0.056  0.00  0.00    +0.038 C 
ATOM      8  C   UNL     1       3.508   3.563  -0.459  0.00  0.00    +0.024 C 
ATOM      9  C   UNL     1       2.364   4.232   0.314  0.00  0.00    +0.114 C 
ATOM     10  N   UNL     1       1.131   3.488   0.023  0.00  0.00    -0.273 N 
ATOM     11  C   UNL     1      -0.013   4.141  -0.261  0.00  0.00    +0.203 C 
ATOM     12  O   UNL     1      -0.996   3.521  -0.609  0.00  0.00    -0.277 OA
ENDROOT
BRANCH   1  13
ATOM     13  S   UNL     1       1.197  -2.441   0.089  0.00  0.00    +0.060 S 
ATOM     14  O   UNL     1       2.446  -2.831   0.644  0.00  0.00    -0.153 OA
ATOM     15  O   UNL     1      -0.045  -2.853   0.644  0.00  0.00    -0.153 OA
BRANCH  13  17
ATOM     16  C   UNL     1       2.471  -3.157  -2.186  0.00  0.00    +0.131 C 
ATOM     17  N   UNL     1       1.201  -2.945  -1.488  0.00  0.00    -0.183 NA
ATOM     18  C   UNL     1      -0.066  -3.179  -2.186  0.00  0.00    +0.131 C 
ENDBRANCH  13  17
ENDBRANCH   1  13
BRANCH  11  19
ATOM     19  C   UNL     1      -0.071   5.643  -0.148  0.00  0.00    +0.019 C 
BRANCH  19  21
ATOM     20  C   UNL     1      -2.336   5.632   0.709  0.00  0.00    -0.095 C 
ATOM     21  N   UNL     1      -1.460   6.087  -0.391  0.00  0.00    +0.386 N 
ATOM     22  H   UNL     1      -1.791   5.677  -1.272  0.00  0.00    -0.081 HD
BRANCH  21  23
ATOM     23  C   UNL     1      -1.508   7.560  -0.499  0.00  0.00    -0.041 C 
BRANCH  23  24
ATOM     24  C   UNL     1      -2.882   7.969  -0.963  0.00  0.00    -0.043 A 
ATOM     25  C   UNL     1      -3.773   8.534  -0.070  0.00  0.00    +0.036 A 
ATOM     26  C   UNL     1      -5.032   8.914  -0.497  0.00  0.00    +0.126 A 
ATOM     27  C   UNL     1      -5.404   8.719  -1.814  0.00  0.00    +0.034 A 
ATOM     28  C   UNL     1      -4.516   8.148  -2.706  0.00  0.00    +0.022 A 
ATOM     29  C   UNL     1      -3.254   7.772  -2.281  0.00  0.00    +0.042 A 
ATOM     30 CL   UNL     1      -2.138   7.056  -3.401  0.00  0.00    -0.083 Cl
BRANCH  26  31
ATOM     31  N   UNL     1      -5.984   9.524   0.458  0.00  0.00    +0.056 N 
ATOM     32  O   UNL     1      -7.095   9.854   0.084  0.00  0.00    -0.126 OA
ATOM     33  O   UNL     1      -5.656   9.697   1.619  0.00  0.00    -0.126 OA
ENDBRANCH  26  31
ENDBRANCH  23  24
ENDBRANCH  21  23
ENDBRANCH  19  21
ENDBRANCH  11  19
TORSDOF 7
