REMARK  Name = ZINC32604025
REMARK  5 active torsions:
REMARK  status: ('A' for Active; 'I' for Inactive)
REMARK    1  A    between atoms: C_3  and  C_18
REMARK    2  A    between atoms: N_7  and  S_8
REMARK    3  A    between atoms: S_8  and  C_11
REMARK    4  A    between atoms: C_14  and  N_17
REMARK    5  A    between atoms: C_19  and  C_20
REMARK                            x       y       z     vdW  Elec       q    Type
REMARK                         _______ _______ _______ _____ _____    ______ ____
ROOT
ATOM      1  C   UNL     1      -2.067   4.453  -0.374  0.00  0.00    +0.005 A 
ATOM      2  C   UNL     1      -3.273   3.771  -0.375  0.00  0.00    +0.028 A 
ATOM      3  C   UNL     1      -3.266   2.375  -0.344  0.00  0.00    +0.066 A 
ATOM      4  N   UNL     1      -2.116   1.705  -0.319  0.00  0.00    -0.231 NA
ATOM      5  C   UNL     1      -0.952   2.332  -0.312  0.00  0.00    +0.138 A 
ATOM      6  C   UNL     1      -0.891   3.723  -0.342  0.00  0.00    +0.045 A 
ATOM      7  N   UNL     1       0.226   1.594  -0.281  0.00  0.00    -0.199 N 
ATOM      8  H   UNL     1       1.184   2.095  -0.083  0.00  0.00    +0.175 HD
ENDROOT
BRANCH   7   9
ATOM      9  S   UNL     1       0.185  -0.041  -0.540  0.00  0.00    +0.073 S 
ATOM     10  O   UNL     1       1.530  -0.496  -0.479  0.00  0.00    -0.150 OA
ATOM     11  O   UNL     1      -0.834  -0.561   0.302  0.00  0.00    -0.150 OA
BRANCH   9  12
ATOM     12  C   UNL     1      -0.356  -0.292  -2.198  0.00  0.00    +0.109 A 
ATOM     13  C   UNL     1      -1.691  -0.547  -2.458  0.00  0.00    +0.030 A 
ATOM     14  C   UNL     1      -2.119  -0.738  -3.756  0.00  0.00    +0.024 A 
ATOM     15  C   UNL     1      -1.206  -0.685  -4.802  0.00  0.00    +0.025 A 
ATOM     16  C   UNL     1       0.134  -0.435  -4.538  0.00  0.00    +0.024 A 
ATOM     17  C   UNL     1       0.555  -0.239  -3.237  0.00  0.00    +0.030 A 
BRANCH  15  18
ATOM     18  N   UNL     1      -1.635  -0.884  -6.116  0.00  0.00    -0.358 N 
ATOM     19  H   UNL     1      -0.912  -0.842  -6.944  0.00  0.00    +0.142 HD
ATOM     20  H   UNL     1      -2.697  -1.081  -6.324  0.00  0.00    +0.142 HD
ENDBRANCH  15  18
ENDBRANCH   9  12
ENDBRANCH   7   9
BRANCH   3  21
ATOM     21  C   UNL     1      -4.541   1.638  -0.345  0.00  0.00    +0.028 C 
ATOM     22  C   UNL     1      -4.544   0.302  -0.208  0.00  0.00    +0.011 C 
BRANCH  22  23
ATOM     23  C   UNL     1      -5.818  -0.438  -0.229  0.00  0.00    -0.007 A 
ATOM     24  C   UNL     1      -7.026   0.249  -0.385  0.00  0.00    +0.011 A 
ATOM     25  C   UNL     1      -8.214  -0.450  -0.410  0.00  0.00    +0.020 A 
ATOM     26  C   UNL     1      -8.215  -1.828  -0.269  0.00  0.00    +0.042 A 
ATOM     27  C   UNL     1      -7.023  -2.515  -0.108  0.00  0.00    +0.040 A 
ATOM     28  C   UNL     1      -5.825  -1.829  -0.088  0.00  0.00    +0.049 A 
ATOM     29 CL   UNL     1      -4.332  -2.691   0.113  0.00  0.00    -0.083 Cl
ATOM     30 CL   UNL     1      -9.717  -2.698  -0.294  0.00  0.00    -0.083 Cl
ENDBRANCH  22  23
ENDBRANCH   3  21
TORSDOF 5
