REMARK  Name = ZINC13009012
REMARK  14 active torsions:
REMARK  status: ('A' for Active; 'I' for Inactive)
REMARK    1  A    between atoms: C_1  and  C_2
REMARK    2  A    between atoms: C_2  and  C_3
REMARK    3  A    between atoms: C_3  and  C_5
REMARK    4  A    between atoms: C_3  and  N_33
REMARK    5  A    between atoms: C_8  and  S_17
REMARK    6  A    between atoms: N_9  and  C_10
REMARK    7  A    between atoms: C_10  and  C_11
REMARK    8  A    between atoms: S_17  and  C_18
REMARK    9  A    between atoms: C_18  and  C_19
REMARK   10  A    between atoms: N_21  and  C_22
REMARK   11  A    between atoms: C_24  and  S_29
REMARK   12  A    between atoms: S_29  and  C_32
REMARK   13  A    between atoms: N_33  and  C_34
REMARK   14  A    between atoms: N_33  and  C_35
REMARK                            x       y       z     vdW  Elec       q    Type
REMARK                         _______ _______ _______ _____ _____    ______ ____
ROOT
ATOM      1  C   UNL     1      -1.103  -2.323  -0.046  0.00  0.00    +0.121 A 
ATOM      2  N   UNL     1      -0.662  -3.225  -0.876  0.00  0.00    -0.135 NA
ATOM      3  N   UNL     1      -0.708  -4.388  -0.331  0.00  0.00    -0.123 NA
ATOM      4  C   UNL     1      -1.185  -4.289   0.889  0.00  0.00    +0.192 A 
ATOM      5  N   UNL     1      -1.447  -2.968   1.110  0.00  0.00    -0.303 N 
ENDROOT
BRANCH   1   6
ATOM      6  C   UNL     1      -1.208  -0.843  -0.308  0.00  0.00    +0.000 C 
BRANCH   6   7
ATOM      7  N   UNL     1      -1.796  -0.621  -1.636  0.00  0.00    +0.383 N 
ATOM      8  C   UNL     1      -3.177  -1.121  -1.649  0.00  0.00    -0.096 C 
ATOM      9  C   UNL     1      -1.792   0.816  -1.939  0.00  0.00    -0.096 C 
ATOM     10  H   UNL     1      -1.253  -1.113  -2.330  0.00  0.00    -0.082 HD
ENDBRANCH   6   7
BRANCH   6  12
ATOM     11  C   UNL     1       0.793  -0.434   1.132  0.00  0.00    +0.002 C 
ATOM     12  C   UNL     1       0.186  -0.215  -0.256  0.00  0.00    -0.011 C 
ENDBRANCH   6  12
ENDBRANCH   1   6
BRANCH   5  13
ATOM     13  C   UNL     1      -1.988  -2.366   2.332  0.00  0.00    +0.160 C 
BRANCH  13  14
ATOM     14  C   UNL     1      -3.493  -2.341   2.256  0.00  0.00    -0.028 A 
ATOM     15  C   UNL     1      -4.140  -1.252   1.703  0.00  0.00    +0.005 A 
ATOM     16  C   UNL     1      -5.520  -1.230   1.633  0.00  0.00    +0.000 A 
ATOM     17  C   UNL     1      -6.254  -2.297   2.117  0.00  0.00    +0.000 A 
ATOM     18  C   UNL     1      -5.607  -3.387   2.669  0.00  0.00    +0.000 A 
ATOM     19  C   UNL     1      -4.226  -3.411   2.735  0.00  0.00    +0.005 A 
ENDBRANCH  13  14
ENDBRANCH   5  13
BRANCH   4  20
ATOM     20  S   UNL     1      -1.434  -5.612   2.026  0.00  0.00    -0.077 S 
BRANCH  20  21
ATOM     21  C   UNL     1      -0.884  -7.082   1.117  0.00  0.00    +0.173 C 
BRANCH  21  22
ATOM     22  C   UNL     1      -1.046  -8.301   1.988  0.00  0.00    +0.228 C 
ATOM     23  O   UNL     1      -1.489  -8.189   3.111  0.00  0.00    -0.275 OA
ATOM     24  N   UNL     1      -0.698  -9.516   1.518  0.00  0.00    -0.284 N 
ATOM     25  H   UNL     1      -0.422  -9.618   0.594  0.00  0.00    +0.155 HD
BRANCH  24  26
ATOM     26  C   UNL     1      -0.735 -10.630   2.365  0.00  0.00    +0.054 A 
ATOM     27  C   UNL     1      -0.617 -10.465   3.738  0.00  0.00    +0.051 A 
ATOM     28  C   UNL     1      -0.654 -11.566   4.571  0.00  0.00    +0.090 A 
ATOM     29  C   UNL     1      -0.808 -12.833   4.038  0.00  0.00    +0.028 A 
ATOM     30  C   UNL     1      -0.926 -13.002   2.671  0.00  0.00    +0.024 A 
ATOM     31  C   UNL     1      -0.895 -11.904   1.833  0.00  0.00    +0.062 A 
ATOM     32 CL   UNL     1      -1.051 -12.116   0.117  0.00  0.00    -0.082 Cl
BRANCH  28  33
ATOM     33  S   UNL     1      -0.504 -11.357   6.314  0.00  0.00    -0.006 S 
ATOM     34  O   UNL     1       0.026 -12.589   6.783  0.00  0.00    -0.170 OA
ATOM     35  O   UNL     1       0.224 -10.147   6.473  0.00  0.00    -0.170 OA
ATOM     36  C   UNL     1      -2.206 -11.144   6.906  0.00  0.00    +0.200 C 
ENDBRANCH  28  33
ENDBRANCH  24  26
ENDBRANCH  21  22
ENDBRANCH  20  21
ENDBRANCH   4  20
TORSDOF 10
