REMARK  Name = ZINC39590178
REMARK  4 active torsions:
REMARK  status: ('A' for Active; 'I' for Inactive)
REMARK    1  A    between atoms: C_4  and  N_7
REMARK    2  A    between atoms: C_8  and  C_10
REMARK    3  A    between atoms: C_13  and  N_17
REMARK    4  A    between atoms: C_18  and  C_20
REMARK                            x       y       z     vdW  Elec       q    Type
REMARK                         _______ _______ _______ _____ _____    ______ ____
ROOT
ATOM      1  C   UNL     1       4.086  -2.096  -3.712  0.00  0.00    +0.086 C 
ATOM      2  C   UNL     1       4.670  -3.312  -3.705  0.00  0.00    +0.021 C 
ATOM      3  N   UNL     1       5.322  -3.789  -4.786  0.00  0.00    -0.320 N 
ATOM      4  C   UNL     1       6.350  -4.825  -4.543  0.00  0.00    +0.219 C 
ATOM      5  S   UNL     1       5.662  -5.630  -3.032  0.00  0.00    -0.114 S 
ATOM      6  C   UNL     1       4.630  -4.207  -2.476  0.00  0.00    +0.123 C 
ATOM      7  H   UNL     1       5.125  -3.468  -5.680  0.00  0.00    +0.148 HD
ENDROOT
BRANCH   1   9
ATOM      8  N   UNL     1       2.833  -0.411  -2.565  0.00  0.00    -0.309 N 
ATOM      9  C   UNL     1       3.417  -1.627  -2.558  0.00  0.00    +0.239 C 
ATOM     10  O   UNL     1       3.367  -2.320  -1.558  0.00  0.00    -0.271 OA
ATOM     11  H   UNL     1       2.873   0.141  -3.361  0.00  0.00    +0.149 HD
BRANCH   8  15
ATOM     12  C   UNL     1      -0.039   1.586  -0.123  0.00  0.00    +0.000 C 
ATOM     13  C   UNL     1       1.397   2.113  -0.129  0.00  0.00    +0.002 C 
ATOM     14  C   UNL     1       2.122   1.605  -1.378  0.00  0.00    +0.022 C 
ATOM     15  C   UNL     1       2.140   0.075  -1.369  0.00  0.00    +0.073 C 
ATOM     16  C   UNL     1       0.704  -0.452  -1.363  0.00  0.00    +0.022 C 
ATOM     17  C   UNL     1      -0.021   0.056  -0.115  0.00  0.00    +0.002 C 
ENDBRANCH   8  15
ENDBRANCH   1   9
BRANCH   4  18
ATOM     18  N   UNL     1       7.658  -4.223  -4.276  0.00  0.00    -0.284 N 
ATOM     19  C   UNL     1       8.772  -4.979  -4.330  0.00  0.00    +0.251 C 
ATOM     20  O   UNL     1       8.685  -6.179  -4.508  0.00  0.00    -0.270 OA
ATOM     21  H   UNL     1       7.722  -3.279  -4.060  0.00  0.00    +0.152 HD
BRANCH  19  22
ATOM     22  C   UNL     1      10.094  -4.353  -4.173  0.00  0.00    +0.101 A 
ATOM     23  C   UNL     1      11.257  -5.100  -4.346  0.00  0.00    +0.020 A 
ATOM     24  C   UNL     1      12.493  -4.473  -4.190  0.00  0.00    +0.018 A 
ATOM     25  C   UNL     1      12.552  -3.154  -3.873  0.00  0.00    +0.086 A 
ATOM     26  N   UNL     1      11.425  -2.421  -3.703  0.00  0.00    -0.328 N 
ATOM     27  C   UNL     1      10.207  -2.976  -3.849  0.00  0.00    +0.261 A 
ATOM     28  O   UNL     1       9.205  -2.300  -3.697  0.00  0.00    -0.267 OA
ATOM     29  H   UNL     1      11.497  -1.481  -3.477  0.00  0.00    +0.168 HD
ENDBRANCH  19  22
ENDBRANCH   4  18
TORSDOF 4
