REMARK  Name = ZINC65526762
REMARK  7 active torsions:
REMARK  status: ('A' for Active; 'I' for Inactive)
REMARK    1  A    between atoms: C_1  and  C_2
REMARK    2  A    between atoms: C_4  and  N_15
REMARK    3  A    between atoms: C_6  and  C_14
REMARK    4  A    between atoms: N_8  and  C_10
REMARK    5  A    between atoms: C_10  and  C_11
REMARK    6  A    between atoms: C_16  and  C_18
REMARK    7  A    between atoms: C_18  and  C_19
REMARK                            x       y       z     vdW  Elec       q    Type
REMARK                         _______ _______ _______ _____ _____    ______ ____
ROOT
ATOM      1  N   UNL     1       1.684   0.493  -1.742  0.00  0.00    -0.309 N 
ATOM      2  C   UNL     1       1.242   1.415  -2.620  0.00  0.00    +0.217 C 
ATOM      3  O   UNL     1       0.086   1.397  -2.988  0.00  0.00    -0.276 OA
ATOM      4  H   UNL     1       2.608   0.507  -1.448  0.00  0.00    +0.149 HD
ENDROOT
BRANCH   1   7
ATOM      5  C   UNL     1      -0.019   1.526   0.010  0.00  0.00    +0.027 C 
ATOM      6  C   UNL     1       0.002  -0.004   0.002  0.00  0.00    +0.088 C 
ATOM      7  C   UNL     1       0.768  -0.531  -1.233  0.00  0.00    +0.109 C 
ATOM      8  C   UNL     1       1.556  -1.748  -0.707  0.00  0.00    +0.092 C 
ATOM      9  N   UNL     1       1.201  -1.869   0.725  0.00  0.00    -0.227 NA
ATOM     10  N   UNL     1       0.790  -0.523   1.151  0.00  0.00    -0.249 NA
ATOM     11  C   UNL     1       1.143  -3.012  -1.464  0.00  0.00    +0.027 C 
ATOM     12  H   UNL     1       0.227  -0.562   1.987  0.00  0.00    +0.141 HD
BRANCH   9  13
ATOM     13  C   UNL     1       2.347  -2.345   1.513  0.00  0.00    +0.227 C 
BRANCH  13  14
ATOM     14  C   UNL     1       1.916  -2.572   2.939  0.00  0.00    +0.371 C 
ATOM     15  O   UNL     1       0.761  -2.358   3.268  0.00  0.00    -0.245 OA
ATOM     16  O   UNL     1       2.721  -2.970   3.763  0.00  0.00    -0.245 OA
ENDBRANCH  13  14
ENDBRANCH   9  13
ENDBRANCH   1   7
BRANCH   2  17
ATOM     17  C   UNL     1       2.183   2.469  -3.144  0.00  0.00    +0.142 C 
BRANCH  17  18
ATOM     18  C   UNL     1       1.436   3.383  -4.116  0.00  0.00    +0.183 C 
ATOM     19  N   UNL     1       0.958   2.609  -5.269  0.00  0.00    -0.363 N 
ATOM     20  C   UNL     1       1.515   3.110  -6.334  0.00  0.00    +0.060 A 
ATOM     21  C   UNL     1       1.429   2.767  -7.760  0.00  0.00    +0.029 A 
ATOM     22  C   UNL     1       2.138   3.479  -8.659  0.00  0.00    +0.022 A 
ATOM     23  C   UNL     1       2.969   4.553  -8.290  0.00  0.00    +0.043 A 
ATOM     24  C   UNL     1       3.119   4.949  -7.008  0.00  0.00    +0.047 A 
ATOM     25  C   UNL     1       2.394   4.245  -5.943  0.00  0.00    +0.062 A 
ATOM     26  N   UNL     1       2.347   4.404  -4.650  0.00  0.00    -0.363 N 
ATOM     27 CL   UNL     1       3.837   5.402  -9.531  0.00  0.00    -0.083 Cl
ATOM     28  H   UNL     1       0.341   1.861  -5.242  0.00  0.00    +0.162 HD
ATOM     29  H   UNL     1       2.824   5.072  -4.135  0.00  0.00    +0.162 HD
ENDBRANCH  17  18
ENDBRANCH   2  17
TORSDOF 5
