REMARK  Name = ZINC14923219
REMARK  15 active torsions:
REMARK  status: ('A' for Active; 'I' for Inactive)
REMARK    1  A    between atoms: C_1  and  C_2
REMARK    2  A    between atoms: C_2  and  C_3
REMARK    3  A    between atoms: C_3  and  C_4
REMARK    4  A    between atoms: C_4  and  C_5
REMARK    5  A    between atoms: C_5  and  C_36
REMARK    6  A    between atoms: N_6  and  N_7
REMARK    7  A    between atoms: C_8  and  C_10
REMARK    8  A    between atoms: C_10  and  C_12
REMARK    9  A    between atoms: C_10  and  N_21
REMARK   10  A    between atoms: C_12  and  S_13
REMARK   11  A    between atoms: S_13  and  C_14
REMARK   12  A    between atoms: C_14  and  C_15
REMARK   13  A    between atoms: C_22  and  C_24
REMARK   14  A    between atoms: C_26  and  N_33
REMARK   15  A    between atoms: C_28  and  N_30
REMARK                            x       y       z     vdW  Elec       q    Type
REMARK                         _______ _______ _______ _____ _____    ______ ____
ROOT
ATOM      1  C   UNL     1      -2.597   4.183   0.037  0.00  0.00    +0.171 C 
ENDROOT
BRANCH   1   3
ATOM      2  N   UNL     1      -4.385   4.620  -1.616  0.00  0.00    -0.205 N 
ATOM      3  C   UNL     1      -3.389   3.817  -1.192  0.00  0.00    +0.253 C 
ATOM      4  O   UNL     1      -3.130   2.799  -1.799  0.00  0.00    -0.272 OA
ATOM      5  H   UNL     1      -4.591   5.434  -1.130  0.00  0.00    +0.177 HD
BRANCH   2   7
ATOM      6  C   UNL     1      -6.066   5.043  -3.161  0.00  0.00    +0.034 C 
ATOM      7  N   UNL     1      -5.121   4.279  -2.758  0.00  0.00    -0.189 NA
ATOM      8  C   UNL     1      -6.388   6.307  -2.406  0.00  0.00    +0.062 C 
BRANCH   6   9
ATOM      9  C   UNL     1      -6.858   4.676  -4.390  0.00  0.00    +0.052 C 
BRANCH   9  10
ATOM     10  C   UNL     1      -8.310   4.398  -3.996  0.00  0.00    +0.006 C 
BRANCH  10  12
ATOM     11  C   UNL     1     -10.567   3.748  -4.850  0.00  0.00    +0.004 C 
ATOM     12  C   UNL     1      -9.115   4.026  -5.244  0.00  0.00    -0.003 C 
ENDBRANCH  10  12
ENDBRANCH   9  10
ENDBRANCH   6   9
ENDBRANCH   2   7
ENDBRANCH   1   3
BRANCH   1  13
ATOM     13  N   UNL     1      -1.320   3.464   0.027  0.00  0.00    -0.299 N 
ATOM     14  C   UNL     1      -1.305   2.116   0.020  0.00  0.00    +0.245 C 
ATOM     15  O   UNL     1      -2.351   1.497   0.021  0.00  0.00    -0.270 OA
ATOM     16  H   UNL     1      -0.486   3.958   0.026  0.00  0.00    +0.150 HD
BRANCH  14  17
ATOM     17  C   UNL     1      -0.017   1.391   0.010  0.00  0.00    +0.041 A 
ATOM     18  C   UNL     1       1.186   2.100   0.002  0.00  0.00    +0.046 A 
ATOM     19  C   UNL     1       2.385   1.417  -0.013  0.00  0.00    +0.129 A 
ATOM     20  C   UNL     1       2.396   0.034  -0.020  0.00  0.00    +0.065 A 
ATOM     21  C   UNL     1       1.208  -0.674  -0.013  0.00  0.00    +0.129 A 
ATOM     22  C   UNL     1       0.002  -0.004   0.002  0.00  0.00    +0.046 A 
BRANCH  21  23
ATOM     23  N   UNL     1       1.230  -2.154  -0.021  0.00  0.00    +0.057 N 
ATOM     24  O   UNL     1       0.184  -2.779  -0.015  0.00  0.00    -0.126 OA
ATOM     25  O   UNL     1       2.293  -2.748  -0.035  0.00  0.00    -0.126 OA
ENDBRANCH  21  23
BRANCH  19  26
ATOM     26  N   UNL     1       3.661   2.167  -0.020  0.00  0.00    +0.057 N 
ATOM     27  O   UNL     1       4.720   1.565  -0.033  0.00  0.00    -0.126 OA
ATOM     28  O   UNL     1       3.652   3.385  -0.014  0.00  0.00    -0.126 OA
ENDBRANCH  19  26
ENDBRANCH  14  17
ENDBRANCH   1  13
BRANCH   1  29
ATOM     29  C   UNL     1      -3.389   3.797   1.288  0.00  0.00    +0.101 C 
BRANCH  29  30
ATOM     30  S   UNL     1      -2.505   4.370   2.764  0.00  0.00    -0.154 S 
BRANCH  30  31
ATOM     31  C   UNL     1      -3.561   3.842   4.141  0.00  0.00    +0.104 C 
BRANCH  31  32
ATOM     32  C   UNL     1      -2.933   4.262   5.446  0.00  0.00    -0.038 A 
ATOM     33  C   UNL     1      -2.061   3.411   6.098  0.00  0.00    +0.004 A 
ATOM     34  C   UNL     1      -1.481   3.798   7.292  0.00  0.00    +0.000 A 
ATOM     35  C   UNL     1      -1.781   5.031   7.838  0.00  0.00    +0.000 A 
ATOM     36  C   UNL     1      -2.657   5.880   7.188  0.00  0.00    +0.000 A 
ATOM     37  C   UNL     1      -3.233   5.496   5.992  0.00  0.00    +0.004 A 
ENDBRANCH  31  32
ENDBRANCH  30  31
ENDBRANCH  29  30
ENDBRANCH   1  29
TORSDOF 13
