REMARK  Name = ZINC34802361
REMARK  5 active torsions:
REMARK  status: ('A' for Active; 'I' for Inactive)
REMARK    1  A    between atoms: C_3  and  N_14
REMARK    2  A    between atoms: C_4  and  N_11
REMARK    3  A    between atoms: C_6  and  C_7
REMARK    4  A    between atoms: N_17  and  C_20
REMARK    5  A    between atoms: C_20  and  C_21
REMARK                            x       y       z     vdW  Elec       q    Type
REMARK                         _______ _______ _______ _____ _____    ______ ____
ROOT
ATOM      1  N   UNL     1       3.582   2.122  -0.021  0.00  0.00    -0.332 N 
ATOM      2  C   UNL     1       4.217   2.520  -1.287  0.00  0.00    +0.086 C 
ATOM      3  C   UNL     1       5.687   2.090  -1.249  0.00  0.00    -0.059 C 
ATOM      4  N   UNL     1       6.327   2.644  -0.050  0.00  0.00    +0.386 N 
ATOM      5  C   UNL     1       5.716   2.068   1.155  0.00  0.00    -0.059 C 
ATOM      6  C   UNL     1       4.245   2.502   1.236  0.00  0.00    +0.086 C 
ATOM      7  H   UNL     1       6.209   3.646  -0.039  0.00  0.00    -0.081 HD
ENDROOT
BRANCH   1  10
ATOM      8  C   UNL     1      -0.017   1.378   0.010  0.00  0.00    +0.014 A 
ATOM      9  C   UNL     1       1.169   2.087   0.002  0.00  0.00    +0.026 A 
ATOM     10  C   UNL     1       2.381   1.409  -0.013  0.00  0.00    +0.060 A 
ATOM     11  C   UNL     1       2.396   0.020  -0.021  0.00  0.00    +0.148 A 
ATOM     12  C   UNL     1       1.207  -0.682  -0.013  0.00  0.00    +0.047 A 
ATOM     13  C   UNL     1       0.002  -0.004   0.002  0.00  0.00    +0.057 A 
BRANCH  13  14
ATOM     14  C   UNL     1      -1.294  -0.774   0.010  0.00  0.00    +0.417 C 
ATOM     15  F   UNL     1      -2.368   0.122   0.025  0.00  0.00    -0.166 F 
ATOM     16  F   UNL     1      -1.369  -1.573  -1.136  0.00  0.00    -0.166 F 
ATOM     17  F   UNL     1      -1.347  -1.585   1.149  0.00  0.00    -0.166 F 
ENDBRANCH  13  14
BRANCH  11  18
ATOM     18  N   UNL     1       3.686  -0.707  -0.037  0.00  0.00    +0.058 N 
ATOM     19  O   UNL     1       3.698  -1.916  -0.044  0.00  0.00    -0.126 OA
ATOM     20  O   UNL     1       4.726  -0.092  -0.044  0.00  0.00    -0.126 OA
ENDBRANCH  11  18
ENDBRANCH   1  10
BRANCH   4  21
ATOM     21  C   UNL     1       7.761   2.325  -0.070  0.00  0.00    -0.003 C 
BRANCH  21  22
ATOM     22  C   UNL     1       8.442   2.995   1.095  0.00  0.00    +0.095 A 
ATOM     23  N   UNL     1       7.729   3.716   1.915  0.00  0.00    -0.197 NA
ATOM     24  C   UNL     1       8.264   4.343   2.974  0.00  0.00    +0.282 A 
ATOM     25  O   UNL     1       7.565   5.009   3.721  0.00  0.00    -0.265 OA
ATOM     26  C   UNL     1       9.718   4.213   3.220  0.00  0.00    +0.075 A 
ATOM     27  C   UNL     1      10.520   4.802   4.303  0.00  0.00    -0.023 A 
ATOM     28  C   UNL     1      11.835   4.528   4.300  0.00  0.00    -0.004 A 
ATOM     29  S   UNL     1      12.082   3.485   2.882  0.00  0.00    -0.075 S 
ATOM     30  C   UNL     1      10.410   3.427   2.299  0.00  0.00    +0.092 A 
ATOM     31  N   UNL     1       9.770   2.829   1.261  0.00  0.00    -0.339 N 
ATOM     32  C   UNL     1      12.556   5.185   5.447  0.00  0.00    +0.043 C 
ATOM     33  C   UNL     1      11.580   6.275   5.944  0.00  0.00    +0.010 C 
ATOM     34  C   UNL     1      10.219   5.699   5.507  0.00  0.00    +0.037 C 
ATOM     35  H   UNL     1      10.270   2.283   0.635  0.00  0.00    +0.167 HD
ENDBRANCH  21  22
ENDBRANCH   4  21
TORSDOF 5
