REMARK  Name = ZINC59461838
REMARK  8 active torsions:
REMARK  status: ('A' for Active; 'I' for Inactive)
REMARK    1  A    between atoms: C_1  and  C_2
REMARK    2  A    between atoms: C_5  and  C_8
REMARK    3  A    between atoms: C_15  and  C_19
REMARK    4  A    between atoms: C_16  and  C_18
REMARK    5  A    between atoms: C_19  and  C_21
REMARK    6  A    between atoms: C_19  and  C_28
REMARK    7  A    between atoms: C_28  and  C_29
REMARK    8  A    between atoms: C_28  and  C_31
REMARK                            x       y       z     vdW  Elec       q    Type
REMARK                         _______ _______ _______ _____ _____    ______ ____
ROOT
ATOM      1  C   UNL     1      -0.644  -3.599  -1.390  0.00  0.00    +0.080 A 
ATOM      2  C   UNL     1      -0.454  -4.011  -0.100  0.00  0.00    +0.077 A 
ATOM      3  S   UNL     1      -0.208  -5.765  -0.346  0.00  0.00    -0.056 S 
ATOM      4  C   UNL     1      -0.382  -5.768  -2.125  0.00  0.00    +0.196 A 
ATOM      5  N   UNL     1      -0.608  -4.490  -2.369  0.00  0.00    -0.221 NA
ATOM      6  N   UNL     1      -0.306  -6.832  -3.014  0.00  0.00    -0.194 N 
ATOM      7  C   UNL     1      -0.077  -8.121  -2.693  0.00  0.00    +0.277 A 
ATOM      8  C   UNL     1      -0.079  -8.868  -3.894  0.00  0.00    +0.049 A 
ATOM      9  C   UNL     1      -0.309  -8.018  -4.915  0.00  0.00    +0.039 A 
ATOM     10  N   UNL     1      -0.459  -6.760  -4.405  0.00  0.00    -0.292 N 
ATOM     11  C   UNL     1      -0.394  -8.394  -6.372  0.00  0.00    +0.065 C 
ATOM     12  O   UNL     1       0.101  -8.563  -1.572  0.00  0.00    -0.265 OA
ATOM     13  H   UNL     1      -0.637  -5.956  -4.917  0.00  0.00    +0.187 HD
ENDROOT
BRANCH   1  18
ATOM     14  C   UNL     1      -1.614   1.958  -2.551  0.00  0.00    +0.044 C 
ATOM     15  C   UNL     1      -1.360   0.504  -2.247  0.00  0.00    -0.050 A 
ATOM     16  C   UNL     1      -1.324  -0.419  -3.277  0.00  0.00    +0.004 A 
ATOM     17  C   UNL     1      -1.091  -1.752  -3.005  0.00  0.00    +0.010 A 
ATOM     18  C   UNL     1      -0.893  -2.168  -1.689  0.00  0.00    +0.001 A 
ATOM     19  C   UNL     1      -0.931  -1.233  -0.655  0.00  0.00    +0.010 A 
ATOM     20  C   UNL     1      -1.159   0.098  -0.940  0.00  0.00    +0.004 A 
ENDBRANCH   1  18
BRANCH   8  21
ATOM     21  C   UNL     1       0.138 -10.355  -4.012  0.00  0.00    +0.087 C 
BRANCH  21  22
ATOM     22  C   UNL     1      -1.016 -11.083  -3.373  0.00  0.00    -0.037 A 
ATOM     23  C   UNL     1      -1.178 -11.053  -2.001  0.00  0.00    +0.005 A 
ATOM     24  C   UNL     1      -2.237 -11.720  -1.414  0.00  0.00    +0.015 A 
ATOM     25  C   UNL     1      -3.134 -12.419  -2.201  0.00  0.00    +0.018 A 
ATOM     26  C   UNL     1      -2.972 -12.450  -3.575  0.00  0.00    +0.015 A 
ATOM     27  C   UNL     1      -1.916 -11.778  -4.160  0.00  0.00    +0.005 A 
ATOM     28 BR   UNL     1      -4.583 -13.334  -1.400  0.00  0.00    -0.050 Br
ENDBRANCH  21  22
BRANCH  21  29
ATOM     29  C   UNL     1       1.438 -10.738  -3.302  0.00  0.00    +0.205 C 
BRANCH  29  30
ATOM     30  C   UNL     1       1.651 -12.190  -3.417  0.00  0.00    +0.082 C 
ATOM     31  N   UNL     1       1.815 -13.311  -3.506  0.00  0.00    -0.195 NA
ENDBRANCH  29  30
BRANCH  29  32
ATOM     32  C   UNL     1       2.566 -10.026  -3.926  0.00  0.00    +0.082 C 
ATOM     33  N   UNL     1       3.436  -9.477  -4.407  0.00  0.00    -0.195 NA
ENDBRANCH  29  32
ENDBRANCH  21  29
ENDBRANCH   8  21
TORSDOF 6
