REMARK  Name = ZINC08870709
REMARK  9 active torsions:
REMARK  status: ('A' for Active; 'I' for Inactive)
REMARK    1  A    between atoms: C_1  and  C_2
REMARK    2  A    between atoms: C_5  and  S_9
REMARK    3  A    between atoms: C_6  and  C_8
REMARK    4  A    between atoms: S_9  and  N_12
REMARK    5  A    between atoms: N_12  and  C_13
REMARK    6  A    between atoms: C_15  and  S_24
REMARK    7  A    between atoms: C_16  and  O_23
REMARK    8  A    between atoms: S_24  and  C_25
REMARK    9  A    between atoms: C_25  and  C_26
REMARK                            x       y       z     vdW  Elec       q    Type
REMARK                         _______ _______ _______ _____ _____    ______ ____
ROOT
ATOM      1  C   UNL     1       3.875   2.379  -1.790  0.00  0.00    +0.057 A 
ATOM      2  C   UNL     1       4.391   3.115  -0.748  0.00  0.00    +0.043 A 
ATOM      3  C   UNL     1       4.914   4.393  -0.966  0.00  0.00    +0.052 A 
ATOM      4  C   UNL     1       4.923   4.945  -2.233  0.00  0.00    +0.138 A 
ATOM      5  C   UNL     1       4.401   4.214  -3.316  0.00  0.00    +0.026 A 
ATOM      6  C   UNL     1       3.877   2.916  -3.095  0.00  0.00    +0.008 A 
ATOM      7  C   UNL     1       3.353   2.192  -4.178  0.00  0.00    +0.010 A 
ATOM      8  C   UNL     1       3.363   2.740  -5.424  0.00  0.00    +0.001 A 
ATOM      9  C   UNL     1       3.882   4.015  -5.642  0.00  0.00    +0.001 A 
ATOM     10  C   UNL     1       4.395   4.748  -4.617  0.00  0.00    +0.012 A 
ENDROOT
BRANCH   1  11
ATOM     11  N   UNL     1       3.357   1.103  -1.558  0.00  0.00    -0.216 N 
ATOM     12  H   UNL     1       3.466   0.406  -2.224  0.00  0.00    +0.174 HD
BRANCH  11  13
ATOM     13  S   UNL     1       2.555   0.779  -0.145  0.00  0.00    +0.073 S 
ATOM     14  O   UNL     1       3.429   1.151   0.912  0.00  0.00    -0.150 OA
ATOM     15  O   UNL     1       2.026  -0.534  -0.270  0.00  0.00    -0.150 OA
BRANCH  13  20
ATOM     16  C   UNL     1      -2.169   4.523   0.124  0.00  0.00    +0.044 C 
ATOM     17  C   UNL     1      -0.989   3.588   0.057  0.00  0.00    -0.050 A 
ATOM     18  C   UNL     1       0.034   3.699   0.980  0.00  0.00    +0.005 A 
ATOM     19  C   UNL     1       1.119   2.844   0.915  0.00  0.00    +0.029 A 
ATOM     20  C   UNL     1       1.176   1.873  -0.067  0.00  0.00    +0.111 A 
ATOM     21  C   UNL     1       0.151   1.760  -0.987  0.00  0.00    -0.024 A 
ATOM     22  C   UNL     1      -0.931   2.618  -0.926  0.00  0.00    +0.008 A 
ATOM     23  C   UNL     1       0.214   0.702  -2.058  0.00  0.00    +0.046 C 
ENDBRANCH  13  20
ENDBRANCH  11  13
ENDBRANCH   1  11
BRANCH   4  24
ATOM     24  O   UNL     1       5.433   6.191  -2.432  0.00  0.00    -0.505 OA
ATOM     25  H   UNL     1       6.378   6.201  -2.637  0.00  0.00    +0.292 HD
ENDBRANCH   4  24
BRANCH   3  26
ATOM     26  S   UNL     1       5.568   5.310   0.389  0.00  0.00    -0.114 S 
BRANCH  26  27
ATOM     27  C   UNL     1       5.345   4.208   1.813  0.00  0.00    +0.148 C 
BRANCH  27  28
ATOM     28  C   UNL     1       5.870   4.880   3.055  0.00  0.00    +0.115 A 
ATOM     29  C   UNL     1       5.160   5.665   3.886  0.00  0.00    +0.045 A 
ATOM     30  C   UNL     1       6.040   6.079   4.912  0.00  0.00    +0.041 A 
ATOM     31  C   UNL     1       7.236   5.523   4.647  0.00  0.00    +0.195 A 
ATOM     32  O   UNL     1       7.126   4.793   3.525  0.00  0.00    -0.467 OA
ENDBRANCH  27  28
ENDBRANCH  26  27
ENDBRANCH   3  26
TORSDOF 7
