REMARK  Name = ZINC66230839
REMARK  9 active torsions:
REMARK  status: ('A' for Active; 'I' for Inactive)
REMARK    1  A    between atoms: C_1  and  C_2
REMARK    2  A    between atoms: C_2  and  C_4
REMARK    3  A    between atoms: C_2  and  O_15
REMARK    4  A    between atoms: C_6  and  C_7
REMARK    5  A    between atoms: C_6  and  C_9
REMARK    6  A    between atoms: N_11  and  C_12
REMARK    7  A    between atoms: C_12  and  C_13
REMARK    8  A    between atoms: C_12  and  C_14
REMARK    9  A    between atoms: O_15  and  C_16
REMARK                            x       y       z     vdW  Elec       q    Type
REMARK                         _______ _______ _______ _____ _____    ______ ____
ROOT
ATOM      1  C   UNL     1       0.768  -0.712  -1.225  0.00  0.00    +0.218 C 
ATOM      2  O   UNL     1       2.024  -0.270  -1.411  0.00  0.00    -0.287 OA
ATOM      3  C   UNL     1       0.221  -1.599  -2.105  0.00  0.00    +0.159 C 
ENDROOT
BRANCH   3   4
ATOM      4  C   UNL     1       1.004  -2.070  -3.256  0.00  0.00    +0.258 C 
ATOM      5  O   UNL     1       2.141  -1.669  -3.424  0.00  0.00    -0.269 OA
ATOM      6  N   UNL     1       0.463  -2.946  -4.125  0.00  0.00    -0.308 N 
ATOM      7  H   UNL     1      -0.443  -3.266  -3.991  0.00  0.00    +0.149 HD
BRANCH   6   8
ATOM      8  C   UNL     1       1.243  -3.416  -5.273  0.00  0.00    +0.067 C 
ATOM      9  C   UNL     1       0.720  -4.783  -5.721  0.00  0.00    +0.027 C 
ATOM     10  C   UNL     1       1.110  -2.417  -6.424  0.00  0.00    +0.027 C 
ENDBRANCH   6   8
ENDBRANCH   3   4
BRANCH   1  12
ATOM     11  C   UNL     1      -0.292   1.273  -0.184  0.00  0.00    +0.061 C 
ATOM     12  C   UNL     1      -0.034  -0.229  -0.045  0.00  0.00    +0.242 C 
BRANCH  12  13
ATOM     13  O   UNL     1       0.693  -0.477   1.160  0.00  0.00    -0.481 OA
BRANCH  13  14
ATOM     14  C   UNL     1      -0.031  -0.600   2.303  0.00  0.00    +0.124 A 
ATOM     15  C   UNL     1      -1.400  -0.376   2.286  0.00  0.00    +0.065 A 
ATOM     16  C   UNL     1      -2.134  -0.501   3.451  0.00  0.00    +0.046 A 
ATOM     17  C   UNL     1      -1.505  -0.848   4.633  0.00  0.00    +0.040 A 
ATOM     18  C   UNL     1      -0.139  -1.071   4.652  0.00  0.00    +0.046 A 
ATOM     19  C   UNL     1       0.598  -0.954   3.488  0.00  0.00    +0.065 A 
ATOM     20 CL   UNL     1       0.648  -1.506   6.137  0.00  0.00    -0.083 Cl
ATOM     21 CL   UNL     1      -3.848  -0.222   3.430  0.00  0.00    -0.083 Cl
ENDBRANCH  13  14
ENDBRANCH  12  13
ENDBRANCH   1  12
BRANCH   3  22
ATOM     22  C   UNL     1      -1.116  -2.070  -1.907  0.00  0.00    +0.108 C 
ATOM     23  N   UNL     1      -2.177  -2.444  -1.750  0.00  0.00    -0.191 NA
ENDBRANCH   3  22
TORSDOF 6
