REMARK  Name = ZINC09616685
REMARK  7 active torsions:
REMARK  status: ('A' for Active; 'I' for Inactive)
REMARK    1  A    between atoms: C_4  and  C_7
REMARK    2  A    between atoms: C_10  and  S_20
REMARK    3  A    between atoms: N_11  and  C_12
REMARK    4  A    between atoms: S_20  and  C_21
REMARK    5  A    between atoms: C_21  and  C_22
REMARK    6  A    between atoms: N_24  and  C_25
REMARK    7  A    between atoms: C_26  and  C_30
REMARK                            x       y       z     vdW  Elec       q    Type
REMARK                         _______ _______ _______ _____ _____    ______ ____
ROOT
ATOM      1  C   UNL     1      -6.085   2.686   0.045  0.00  0.00    +0.169 A 
ATOM      2  N   UNL     1      -5.199   3.655   0.046  0.00  0.00    -0.128 NA
ATOM      3  N   UNL     1      -4.012   3.164   0.038  0.00  0.00    -0.122 NA
ATOM      4  C   UNL     1      -4.064   1.851   0.031  0.00  0.00    +0.197 A 
ATOM      5  N   UNL     1      -5.386   1.499   0.030  0.00  0.00    -0.267 N 
ENDROOT
BRANCH   5   6
ATOM      6  C   UNL     1      -5.918   0.201   0.019  0.00  0.00    +0.086 A 
ATOM      7  C   UNL     1      -6.175  -0.455   1.215  0.00  0.00    +0.032 A 
ATOM      8  C   UNL     1      -6.703  -1.732   1.203  0.00  0.00    +0.040 A 
ATOM      9  C   UNL     1      -6.967  -2.362  -0.002  0.00  0.00    +0.126 A 
ATOM     10  C   UNL     1      -6.708  -1.713  -1.197  0.00  0.00    +0.078 A 
ATOM     11  C   UNL     1      -6.184  -0.433  -1.189  0.00  0.00    +0.150 A 
ATOM     12  F   UNL     1      -5.929   0.201  -2.355  0.00  0.00    -0.203 F 
ATOM     13  F   UNL     1      -7.479  -3.613  -0.011  0.00  0.00    -0.205 F 
ENDBRANCH   5   6
BRANCH   1  17
ATOM     14  C   UNL     1     -10.310   3.127   0.065  0.00  0.00    +0.000 A 
ATOM     15  C   UNL     1      -9.506   4.210  -0.243  0.00  0.00    +0.001 A 
ATOM     16  C   UNL     1      -8.133   4.073  -0.251  0.00  0.00    +0.011 A 
ATOM     17  C   UNL     1      -7.556   2.839   0.052  0.00  0.00    +0.020 A 
ATOM     18  C   UNL     1      -8.373   1.749   0.357  0.00  0.00    +0.011 A 
ATOM     19  C   UNL     1      -9.744   1.901   0.367  0.00  0.00    +0.001 A 
ENDBRANCH   1  17
BRANCH   4  20
ATOM     20  S   UNL     1      -2.689   0.750   0.019  0.00  0.00    -0.076 S 
BRANCH  20  21
ATOM     21  C   UNL     1      -1.330   1.944   0.019  0.00  0.00    +0.173 C 
BRANCH  21  22
ATOM     22  C   UNL     1      -0.014   1.209   0.009  0.00  0.00    +0.228 C 
ATOM     23  O   UNL     1       0.002  -0.004   0.002  0.00  0.00    -0.275 OA
ATOM     24  N   UNL     1       1.143   1.898   0.001  0.00  0.00    -0.279 N 
ATOM     25  H   UNL     1       1.130   2.868   0.007  0.00  0.00    +0.155 HD
BRANCH  24  26
ATOM     26  C   UNL     1       2.354   1.221  -0.014  0.00  0.00    +0.084 A 
ATOM     27  C   UNL     1       3.639   1.750  -0.029  0.00  0.00    +0.065 A 
ATOM     28  C   UNL     1       4.730   0.805  -0.039  0.00  0.00    +0.022 A 
ATOM     29  C   UNL     1       4.410  -0.501  -0.044  0.00  0.00    +0.048 A 
ATOM     30  S   UNL     1       2.630  -0.488  -0.026  0.00  0.00    -0.081 S 
BRANCH  27  31
ATOM     31  C   UNL     1       3.875   3.198  -0.031  0.00  0.00    +0.244 C 
ATOM     32  O   UNL     1       2.932   3.968  -0.019  0.00  0.00    -0.270 OA
ATOM     33  N   UNL     1       5.135   3.675  -0.045  0.00  0.00    -0.325 N 
ATOM     34  H   UNL     1       5.886   3.061  -0.055  0.00  0.00    +0.145 HD
ATOM     35  H   UNL     1       5.291   4.632  -0.047  0.00  0.00    +0.145 HD
ENDBRANCH  27  31
ENDBRANCH  24  26
ENDBRANCH  21  22
ENDBRANCH  20  21
ENDBRANCH   4  20
TORSDOF 7
