REMARK  Name = ZINC39886755
REMARK  1 active torsions:
REMARK  status: ('A' for Active; 'I' for Inactive)
REMARK    1  A    between atoms: C_6  and  C_7
REMARK                            x       y       z     vdW  Elec       q    Type
REMARK                         _______ _______ _______ _____ _____    ______ ____
ROOT
ATOM      1  C   UNL     1      -1.293  -0.775   0.010  0.00  0.00    +0.072 C 
ATOM      2  C   UNL     1      -1.376  -1.547  -1.244  0.00  0.00    +0.032 A 
ATOM      3  C   UNL     1      -1.840  -2.810  -1.458  0.00  0.00    +0.110 A 
ATOM      4  N   UNL     1      -1.844  -3.207  -2.729  0.00  0.00    -0.225 NA
ATOM      5  C   UNL     1      -1.383  -2.442  -3.695  0.00  0.00    +0.147 A 
ATOM      6  S   UNL     1      -1.295  -2.790  -5.420  0.00  0.00    -0.023 SA
ATOM      7  S   UNL     1      -0.897  -1.049  -2.883  0.00  0.00    -0.063 S 
ATOM      8  S   UNL     1      -2.355  -3.809  -0.084  0.00  0.00    -0.091 S 
ATOM      9  C   UNL     1      -2.447  -2.664   1.284  0.00  0.00    +0.152 C 
ATOM     10  C   UNL     1      -1.355  -1.588   1.302  0.00  0.00    +0.110 C 
ATOM     11  C   UNL     1      -2.042  -0.624   2.295  0.00  0.00    +0.235 C 
ATOM     12  O   UNL     1      -1.495   0.120   3.074  0.00  0.00    -0.274 OA
ATOM     13  N   UNL     1      -3.372  -0.775   2.123  0.00  0.00    -0.162 N 
ATOM     14  C   UNL     1      -3.706  -1.859   1.394  0.00  0.00    +0.244 C 
ATOM     15  O   UNL     1      -4.791  -2.128   0.937  0.00  0.00    -0.273 OA
ATOM     16  C   UNL     1      -4.281   0.086   2.622  0.00  0.00    +0.313 C 
ATOM     17  O   UNL     1      -3.915   1.053   3.260  0.00  0.00    -0.252 OA
ATOM     18  N   UNL     1      -5.595  -0.125   2.412  0.00  0.00    -0.313 N 
ATOM     19  H   UNL     1      -5.887  -0.897   1.902  0.00  0.00    +0.147 HD
ATOM     20  H   UNL     1      -6.250   0.495   2.771  0.00  0.00    +0.147 HD
ENDROOT
BRANCH   1  26
ATOM     21  C   UNL     1      -0.017   1.378   0.010  0.00  0.00    +0.007 A 
ATOM     22  C   UNL     1       1.170   2.086   0.002  0.00  0.00    +0.038 A 
ATOM     23  C   UNL     1       2.379   1.410  -0.013  0.00  0.00    +0.123 A 
ATOM     24  C   UNL     1       2.396   0.026  -0.021  0.00  0.00    +0.038 A 
ATOM     25  C   UNL     1       1.208  -0.680  -0.013  0.00  0.00    +0.007 A 
ATOM     26  C   UNL     1       0.002  -0.004   0.002  0.00  0.00    -0.038 A 
ATOM     27  F   UNL     1       3.540   2.101  -0.021  0.00  0.00    -0.205 F 
ENDBRANCH   1  26
TORSDOF 1
