REMARK  Name = ZINC43227048
REMARK  13 active torsions:
REMARK  status: ('A' for Active; 'I' for Inactive)
REMARK    1  A    between atoms: C_1  and  C_2
REMARK    2  A    between atoms: C_2  and  C_3
REMARK    3  A    between atoms: C_3  and  C_4
REMARK    4  A    between atoms: C_4  and  C_6
REMARK    5  A    between atoms: C_4  and  N_35
REMARK    6  A    between atoms: C_8  and  C_11
REMARK    7  A    between atoms: N_13  and  C_14
REMARK    8  A    between atoms: C_14  and  C_15
REMARK    9  A    between atoms: C_15  and  C_34
REMARK   10  A    between atoms: C_19  and  C_33
REMARK   11  A    between atoms: C_28  and  C_30
REMARK   12  A    between atoms: C_30  and  C_31
REMARK   13  A    between atoms: C_30  and  C_32
REMARK                            x       y       z     vdW  Elec       q    Type
REMARK                         _______ _______ _______ _____ _____    ______ ____
ROOT
ATOM      1  C   UNL     1      -4.546  -4.934   5.769  0.00  0.00    -0.013 C 
ATOM      2  C   UNL     1      -3.370  -5.858   5.449  0.00  0.00    +0.008 C 
ATOM      3  C   UNL     1      -3.905  -7.260   5.143  0.00  0.00    +0.001 C 
ATOM      4  C   UNL     1      -4.634  -7.798   6.374  0.00  0.00    +0.011 C 
ATOM      5  C   UNL     1      -5.814  -6.886   6.721  0.00  0.00    -0.003 C 
ATOM      6  C   UNL     1      -5.318  -5.465   6.970  0.00  0.00    +0.007 C 
ATOM      7  C   UNL     1      -4.435  -5.470   8.220  0.00  0.00    +0.009 C 
ATOM      8  C   UNL     1      -5.331  -5.698   9.436  0.00  0.00    +0.036 C 
ATOM      9  C   UNL     1      -6.247  -6.873   9.213  0.00  0.00    -0.043 A 
ATOM     10  C   UNL     1      -6.476  -7.418   7.970  0.00  0.00    -0.038 A 
ATOM     11  C   UNL     1      -7.341  -8.495   7.835  0.00  0.00    +0.005 A 
ATOM     12  C   UNL     1      -7.971  -9.029   8.941  0.00  0.00    +0.004 A 
ATOM     13  C   UNL     1      -7.739  -8.486  10.191  0.00  0.00    -0.045 A 
ATOM     14  C   UNL     1      -6.881  -7.414  10.325  0.00  0.00    +0.007 A 
ATOM     15  C   UNL     1      -6.820  -6.888   5.568  0.00  0.00    +0.016 C 
ATOM     16  C   UNL     1      -4.017  -3.534   6.084  0.00  0.00    +0.013 C 
ENDROOT
BRANCH  13  17
ATOM     17  C   UNL     1      -8.421  -9.065  11.404  0.00  0.00    +0.013 C 
ATOM     18  C   UNL     1      -9.938  -8.961  11.233  0.00  0.00    +0.012 C 
ATOM     19  C   UNL     1      -8.025 -10.534  11.560  0.00  0.00    +0.012 C 
ENDBRANCH  13  17
BRANCH   1  20
ATOM     20  C   UNL     1      -5.479  -4.864   4.558  0.00  0.00    +0.111 C 
BRANCH  20  23
ATOM     21  C   UNL     1      -5.422  -4.022   2.272  0.00  0.00    +0.263 C 
ATOM     22  O   UNL     1      -6.564  -4.416   2.130  0.00  0.00    -0.269 OA
ATOM     23  N   UNL     1      -4.790  -4.198   3.449  0.00  0.00    -0.310 N 
ATOM     24  H   UNL     1      -3.879  -3.885   3.563  0.00  0.00    +0.149 HD
BRANCH  21  27
ATOM     25  C   UNL     1      -2.929  -2.324   0.238  0.00  0.00    +0.065 A 
ATOM     26  N   UNL     1      -3.475  -2.906   1.270  0.00  0.00    -0.241 NA
ATOM     27  C   UNL     1      -4.730  -3.353   1.158  0.00  0.00    +0.133 A 
ATOM     28  C   UNL     1      -5.333  -3.154  -0.055  0.00  0.00    +0.079 A 
ATOM     29  S   UNL     1      -4.134  -2.367  -0.930  0.00  0.00    -0.081 S 
BRANCH  25  30
ATOM     30  C   UNL     1      -1.543  -1.743   0.123  0.00  0.00    -0.018 C 
BRANCH  30  31
ATOM     31  N   UNL     1      -0.944  -2.155  -1.154  0.00  0.00    +0.384 N 
ATOM     32  H   UNL     1      -1.513  -1.820  -1.916  0.00  0.00    -0.089 HD
ATOM     33  H   UNL     1      -0.016  -1.766  -1.231  0.00  0.00    -0.089 HD
ATOM     34  H   UNL     1      -0.891  -3.162  -1.191  0.00  0.00    -0.089 HD
ENDBRANCH  30  31
BRANCH  30  35
ATOM     35  C   UNL     1      -1.624  -0.216   0.179  0.00  0.00    -0.010 C 
BRANCH  35  37
ATOM     36  C   UNL     1      -0.291   1.896   0.244  0.00  0.00    +0.004 C 
ATOM     37  C   UNL     1      -0.210   0.369   0.188  0.00  0.00    -0.005 C 
ENDBRANCH  35  37
ENDBRANCH  30  35
ENDBRANCH  25  30
ENDBRANCH  21  27
ENDBRANCH  20  23
ENDBRANCH   1  20
TORSDOF 8
