REMARK  Name = ZINC01084345
REMARK  7 active torsions:
REMARK  status: ('A' for Active; 'I' for Inactive)
REMARK    1  A    between atoms: C_1  and  C_2
REMARK    2  A    between atoms: C_7  and  N_22
REMARK    3  A    between atoms: C_8  and  C_13
REMARK    4  A    between atoms: N_14  and  C_15
REMARK    5  A    between atoms: C_15  and  C_16
REMARK    6  A    between atoms: N_22  and  C_23
REMARK    7  A    between atoms: C_23  and  C_24
REMARK                            x       y       z     vdW  Elec       q    Type
REMARK                         _______ _______ _______ _____ _____    ______ ____
ROOT
ATOM      1  C   UNL     1      -0.052   1.502   0.010  0.00  0.00    +0.045 C 
ATOM      2  C   UNL     1      -0.018  -0.005   0.002  0.00  0.00    -0.034 A 
ATOM      3  C   UNL     1      -0.001  -0.698  -1.217  0.00  0.00    +0.008 A 
ATOM      4  C   UNL     1       0.030  -2.060  -1.215  0.00  0.00    +0.047 A 
ATOM      5  C   UNL     1       0.044  -2.752   0.010  0.00  0.00    +0.142 A 
ATOM      6  N   UNL     1       0.075  -4.084   0.004  0.00  0.00    -0.214 NA
ATOM      7  C   UNL     1       0.089  -4.785   1.129  0.00  0.00    +0.135 A 
ATOM      8  C   UNL     1       0.072  -4.110   2.370  0.00  0.00    +0.095 A 
ATOM      9  C   UNL     1       0.040  -2.698   2.366  0.00  0.00    +0.269 A 
ATOM     10  O   UNL     1       0.023  -2.076   3.414  0.00  0.00    -0.266 OA
ATOM     11  N   UNL     1       0.028  -2.048   1.182  0.00  0.00    -0.267 N 
ATOM     12  C   UNL     1       0.001  -0.686   1.169  0.00  0.00    +0.099 A 
ENDROOT
BRANCH   8  13
ATOM     13  C   UNL     1       0.087  -4.856   3.629  0.00  0.00    +0.095 C 
ATOM     14  N   UNL     1       0.181  -4.221   4.759  0.00  0.00    -0.385 N 
ATOM     15  H   UNL     1       0.168  -3.252   4.773  0.00  0.00    +0.159 HD
BRANCH  14  16
ATOM     16  C   UNL     1       0.308  -4.971   6.012  0.00  0.00    +0.149 C 
BRANCH  16  17
ATOM     17  C   UNL     1       1.654  -4.693   6.630  0.00  0.00    -0.010 A 
ATOM     18  C   UNL     1       2.748  -5.483   6.314  0.00  0.00    +0.008 A 
ATOM     19  C   UNL     1       3.967  -5.191   6.906  0.00  0.00    +0.020 A 
ATOM     20  C   UNL     1       4.050  -4.128   7.786  0.00  0.00    +0.111 A 
ATOM     21  N   UNL     1       2.988  -3.397   8.064  0.00  0.00    -0.263 NA
ATOM     22  C   UNL     1       1.814  -3.643   7.514  0.00  0.00    +0.116 A 
ENDBRANCH  16  17
ENDBRANCH  14  16
ENDBRANCH   8  13
BRANCH   7  23
ATOM     23  N   UNL     1       0.121  -6.161   1.090  0.00  0.00    -0.324 N 
ATOM     24  H   UNL     1       0.131  -6.670   1.915  0.00  0.00    +0.148 HD
BRANCH  23  25
ATOM     25  C   UNL     1       0.138  -6.856  -0.200  0.00  0.00    +0.139 C 
BRANCH  25  26
ATOM     26  C   UNL     1       0.172  -8.345   0.033  0.00  0.00    -0.012 A 
ATOM     27  C   UNL     1       1.383  -9.011   0.148  0.00  0.00    +0.008 A 
ATOM     28  C   UNL     1       1.365 -10.380   0.361  0.00  0.00    +0.020 A 
ATOM     29  C   UNL     1       0.149 -11.032   0.451  0.00  0.00    +0.111 A 
ATOM     30  N   UNL     1      -0.983 -10.367   0.336  0.00  0.00    -0.263 NA
ATOM     31  C   UNL     1      -1.004  -9.063   0.139  0.00  0.00    +0.115 A 
ENDBRANCH  25  26
ENDBRANCH  23  25
ENDBRANCH   7  23
TORSDOF 6
