REMARK  Name = ZINC11879710
REMARK  9 active torsions:
REMARK  status: ('A' for Active; 'I' for Inactive)
REMARK    1  A    between atoms: C_1  and  C_2
REMARK    2  A    between atoms: C_2  and  C_4
REMARK    3  A    between atoms: C_2  and  N_12
REMARK    4  A    between atoms: C_13  and  C_15
REMARK    5  A    between atoms: C_15  and  N_57
REMARK    6  A    between atoms: C_24  and  N_57
REMARK    7  A    between atoms: C_25  and  C_26
REMARK    8  A    between atoms: C_25  and  N_57
REMARK    9  A    between atoms: C_26  and  C_27
REMARK                            x       y       z     vdW  Elec       q    Type
REMARK                         _______ _______ _______ _____ _____    ______ ____
ROOT
ATOM      1  C   UNL     1      -0.762   1.245   3.714  0.00  0.00    +0.020 C 
ATOM      2  C   UNL     1      -0.968   2.721   4.116  0.00  0.00    +0.033 C 
ATOM      3  C   UNL     1      -0.841   2.742   5.624  0.00  0.00    -0.045 A 
ATOM      4  C   UNL     1      -1.234   3.700   6.545  0.00  0.00    +0.004 A 
ATOM      5  C   UNL     1      -1.011   3.500   7.893  0.00  0.00    +0.000 A 
ATOM      6  C   UNL     1      -0.393   2.342   8.326  0.00  0.00    +0.000 A 
ATOM      7  C   UNL     1      -0.000   1.387   7.410  0.00  0.00    +0.004 A 
ATOM      8  C   UNL     1      -0.223   1.584   6.058  0.00  0.00    -0.045 A 
ATOM      9  C   UNL     1       0.107   0.705   4.870  0.00  0.00    +0.033 C 
ENDROOT
BRANCH   1  11
ATOM     10  N   UNL     1      -2.801   0.531   2.510  0.00  0.00    -0.307 N 
ATOM     11  C   UNL     1      -2.078   0.515   3.647  0.00  0.00    +0.204 C 
ATOM     12  O   UNL     1      -2.488  -0.087   4.617  0.00  0.00    -0.277 OA
ATOM     13  H   UNL     1      -2.441   0.951   1.713  0.00  0.00    +0.149 HD
BRANCH  10  15
ATOM     14  C   UNL     1      -3.991  -1.582   2.194  0.00  0.00    +0.036 C 
ATOM     15  C   UNL     1      -4.130  -0.085   2.477  0.00  0.00    +0.138 C 
BRANCH  15  16
ATOM     16  C   UNL     1      -4.954   0.557   1.391  0.00  0.00    +0.151 A 
ATOM     17  N   UNL     1      -6.213   0.164   1.005  0.00  0.00    -0.292 N 
ATOM     18  H   UNL     1      -6.719  -0.572   1.384  0.00  0.00    +0.172 HD
ATOM     19  C   UNL     1      -6.625   0.977   0.012  0.00  0.00    +0.342 A 
ATOM     20  O   UNL     1      -7.695   0.922  -0.568  0.00  0.00    -0.245 OA
ATOM     21  N   UNL     1      -5.633   1.861  -0.224  0.00  0.00    -0.227 N 
ATOM     22  H   UNL     1      -5.639   2.568  -0.887  0.00  0.00    +0.194 HD
ATOM     23  N   UNL     1      -4.591   1.565   0.666  0.00  0.00    -0.155 NA
ENDBRANCH  15  16
ENDBRANCH  10  15
ENDBRANCH   1  11
BRANCH   1  25
ATOM     24  C   UNL     1       0.082  -0.253   2.010  0.00  0.00    -0.095 C 
ATOM     25  N   UNL     1      -0.063   1.161   2.415  0.00  0.00    +0.388 N 
ATOM     26  H   UNL     1      -0.616   1.656   1.706  0.00  0.00    -0.081 HD
BRANCH  25  27
ATOM     27  C   UNL     1       1.268   1.797   2.515  0.00  0.00    -0.073 C 
BRANCH  27  28
ATOM     28  C   UNL     1       1.760   2.129   1.104  0.00  0.00    +0.016 C 
BRANCH  28  29
ATOM     29  C   UNL     1       3.108   2.796   1.187  0.00  0.00    -0.049 A 
ATOM     30  C   UNL     1       3.195   4.172   1.285  0.00  0.00    +0.003 A 
ATOM     31  C   UNL     1       4.432   4.783   1.365  0.00  0.00    +0.000 A 
ATOM     32  C   UNL     1       5.583   4.019   1.337  0.00  0.00    +0.000 A 
ATOM     33  C   UNL     1       5.497   2.643   1.234  0.00  0.00    +0.000 A 
ATOM     34  C   UNL     1       4.260   2.031   1.158  0.00  0.00    +0.003 A 
ENDBRANCH  28  29
ENDBRANCH  27  28
ENDBRANCH  25  27
ENDBRANCH   1  25
TORSDOF 7
