REMARK  Name = ZINC35524748
REMARK  5 active torsions:
REMARK  status: ('A' for Active; 'I' for Inactive)
REMARK    1  A    between atoms: C_1  and  N_2
REMARK    2  A    between atoms: N_2  and  C_3
REMARK    3  A    between atoms: N_2  and  C_4
REMARK    4  A    between atoms: C_4  and  C_5
REMARK    5  A    between atoms: C_24  and  C_26
REMARK                            x       y       z     vdW  Elec       q    Type
REMARK                         _______ _______ _______ _____ _____    ______ ____
ROOT
ATOM      1  C   UNL     1       2.213  -0.068  -1.133  0.00  0.00    +0.116 A 
ATOM      2  N   UNL     1       2.551   1.100  -1.648  0.00  0.00    -0.219 NA
ATOM      3  C   UNL     1       3.799   1.541  -1.634  0.00  0.00    +0.133 A 
ATOM      4  C   UNL     1       4.812   0.734  -1.047  0.00  0.00    +0.051 A 
ATOM      5  C   UNL     1       6.245   1.009  -0.919  0.00  0.00    -0.025 A 
ATOM      6  C   UNL     1       6.996   0.068  -0.313  0.00  0.00    -0.004 A 
ATOM      7  S   UNL     1       5.862  -1.224   0.118  0.00  0.00    -0.073 S 
ATOM      8  C   UNL     1       4.375  -0.497  -0.519  0.00  0.00    +0.114 A 
ATOM      9  N   UNL     1       3.107  -0.858  -0.570  0.00  0.00    -0.227 NA
ATOM     10  C   UNL     1       8.473   0.109  -0.062  0.00  0.00    +0.043 C 
ATOM     11  C   UNL     1       9.081   1.221  -0.929  0.00  0.00    +0.005 C 
ATOM     12  C   UNL     1       8.236   2.488  -0.765  0.00  0.00    +0.005 C 
ATOM     13  C   UNL     1       6.878   2.296  -1.441  0.00  0.00    +0.037 C 
ATOM     14  N   UNL     1       4.113   2.771  -2.184  0.00  0.00    -0.312 N 
ATOM     15  C   UNL     1       4.597   2.869  -3.569  0.00  0.00    +0.125 C 
ATOM     16  C   UNL     1       3.691   3.841  -4.336  0.00  0.00    +0.126 C 
ATOM     17  N   UNL     1       3.547   5.072  -3.546  0.00  0.00    -0.298 N 
ATOM     18  C   UNL     1       3.064   4.973  -2.162  0.00  0.00    +0.126 C 
ATOM     19  C   UNL     1       3.965   4.003  -1.397  0.00  0.00    +0.125 C 
ATOM     20  C   UNL     1       3.854   6.270  -4.082  0.00  0.00    +0.219 C 
ATOM     21  O   UNL     1       3.827   7.268  -3.393  0.00  0.00    -0.275 OA
ENDROOT
BRANCH  20  22
ATOM     22  C   UNL     1       4.230   6.370  -5.538  0.00  0.00    +0.075 C 
ATOM     23  C   UNL     1       2.991   6.130  -6.436  0.00  0.00    +0.013 C 
ATOM     24  C   UNL     1       3.381   6.843  -7.755  0.00  0.00    +0.001 C 
ATOM     25  C   UNL     1       4.135   8.107  -7.293  0.00  0.00    +0.001 C 
ATOM     26  C   UNL     1       4.674   7.807  -5.883  0.00  0.00    +0.013 C 
ENDBRANCH  20  22
BRANCH   1  27
ATOM     27  C   UNL     1       0.772  -0.506  -1.184  0.00  0.00    -0.002 C 
BRANCH  27  29
ATOM     28  C   UNL     1       0.034   1.431   0.023  0.00  0.00    -0.096 C 
ATOM     29  N   UNL     1       0.074  -0.037   0.020  0.00  0.00    +0.381 N 
ATOM     30  C   UNL     1      -1.297  -0.565   0.029  0.00  0.00    -0.096 C 
ATOM     31  H   UNL     1       0.564  -0.362   0.841  0.00  0.00    -0.082 HD
ENDBRANCH  27  29
ENDBRANCH   1  27
TORSDOF 3
