REMARK  Name = ZINC00834403
REMARK  5 active torsions:
REMARK  status: ('A' for Active; 'I' for Inactive)
REMARK    1  A    between atoms: C_6  and  S_7
REMARK    2  A    between atoms: S_7  and  N_10
REMARK    3  A    between atoms: N_10  and  C_11
REMARK    4  A    between atoms: N_19  and  S_20
REMARK    5  A    between atoms: S_20  and  C_23
REMARK                            x       y       z     vdW  Elec       q    Type
REMARK                         _______ _______ _______ _____ _____    ______ ____
ROOT
ATOM      1  C   UNL     1      -0.336   2.272   2.636  0.00  0.00    +0.049 A 
ATOM      2  C   UNL     1       0.324   1.110   3.031  0.00  0.00    +0.026 A 
ATOM      3  C   UNL     1       0.864   1.008   4.293  0.00  0.00    +0.030 A 
ATOM      4  C   UNL     1       0.744   2.063   5.192  0.00  0.00    +0.073 A 
ATOM      5  C   UNL     1       0.073   3.235   4.798  0.00  0.00    +0.014 A 
ATOM      6  C   UNL     1      -0.464   3.331   3.517  0.00  0.00    +0.035 A 
ATOM      7  C   UNL     1       0.128   4.126   5.960  0.00  0.00    +0.048 A 
ATOM      8  C   UNL     1       0.811   3.442   6.956  0.00  0.00    +0.054 A 
ATOM      9  N   UNL     1       1.172   2.237   6.498  0.00  0.00    -0.214 N 
ATOM     10  C   UNL     1       1.051   4.049   8.319  0.00  0.00    +0.056 C 
ATOM     11  C   UNL     1      -0.061   5.071   8.586  0.00  0.00    +0.014 C 
ATOM     12  C   UNL     1      -0.112   6.112   7.468  0.00  0.00    +0.080 C 
ATOM     13  C   UNL     1      -0.377   5.435   6.141  0.00  0.00    +0.166 C 
ATOM     14  O   UNL     1      -1.001   5.996   5.263  0.00  0.00    -0.292 OA
ENDROOT
BRANCH   9  15
ATOM     15  S   UNL     1       2.014   1.111   7.372  0.00  0.00    +0.084 S 
ATOM     16  O   UNL     1       2.665   0.269   6.430  0.00  0.00    -0.148 OA
ATOM     17  O   UNL     1       2.724   1.823   8.376  0.00  0.00    -0.148 OA
BRANCH  15  18
ATOM     18  C   UNL     1       0.829   0.109   8.208  0.00  0.00    +0.111 A 
ATOM     19  C   UNL     1       0.398   0.460   9.473  0.00  0.00    +0.030 A 
ATOM     20  C   UNL     1      -0.536  -0.323  10.127  0.00  0.00    +0.022 A 
ATOM     21  C   UNL     1      -1.029  -1.464   9.519  0.00  0.00    +0.041 A 
ATOM     22  C   UNL     1      -0.592  -1.817   8.255  0.00  0.00    +0.022 A 
ATOM     23  C   UNL     1       0.337  -1.031   7.600  0.00  0.00    +0.030 A 
ATOM     24 CL   UNL     1      -2.196  -2.450  10.342  0.00  0.00    -0.084 Cl
ENDBRANCH  15  18
ENDBRANCH   9  15
BRANCH   1  25
ATOM     25  N   UNL     1      -0.875   2.366   1.349  0.00  0.00    -0.216 N 
ATOM     26  H   UNL     1      -1.832   2.285   1.217  0.00  0.00    +0.174 HD
BRANCH  25  27
ATOM     27  S   UNL     1       0.122   2.614   0.050  0.00  0.00    +0.072 S 
ATOM     28  O   UNL     1      -0.719   2.744  -1.088  0.00  0.00    -0.150 OA
ATOM     29  O   UNL     1       1.147   1.633   0.131  0.00  0.00    -0.150 OA
BRANCH  27  35
ATOM     30  C   UNL     1       0.262   5.334  -0.120  0.00  0.00    +0.030 A 
ATOM     31  C   UNL     1       0.871   6.561   0.067  0.00  0.00    +0.022 A 
ATOM     32  C   UNL     1       2.125   6.630   0.647  0.00  0.00    +0.041 A 
ATOM     33  C   UNL     1       2.767   5.470   1.044  0.00  0.00    +0.022 A 
ATOM     34  C   UNL     1       2.155   4.244   0.862  0.00  0.00    +0.030 A 
ATOM     35  C   UNL     1       0.902   4.177   0.282  0.00  0.00    +0.109 A 
ATOM     36 CL   UNL     1       2.893   8.169   0.876  0.00  0.00    -0.084 Cl
ENDBRANCH  27  35
ENDBRANCH  25  27
ENDBRANCH   1  25
TORSDOF 5
