REMARK  Name = ZINC09915892
REMARK  13 active torsions:
REMARK  status: ('A' for Active; 'I' for Inactive)
REMARK    1  A    between atoms: C_1  and  C_2
REMARK    2  A    between atoms: C_2  and  C_26
REMARK    3  A    between atoms: C_3  and  C_24
REMARK    4  A    between atoms: C_3  and  O_25
REMARK    5  A    between atoms: C_4  and  C_22
REMARK    6  A    between atoms: C_4  and  O_23
REMARK    7  A    between atoms: C_5  and  C_20
REMARK    8  A    between atoms: C_5  and  O_21
REMARK    9  A    between atoms: C_6  and  C_8
REMARK   10  A    between atoms: C_6  and  O_9
REMARK   11  A    between atoms: O_9  and  C_10
REMARK   12  A    between atoms: C_13  and  N_17
REMARK   13  A    between atoms: C_26  and  O_27
REMARK                            x       y       z     vdW  Elec       q    Type
REMARK                         _______ _______ _______ _____ _____    ______ ____
ROOT
ATOM      1  C   UNL     1      -2.543   0.531  -0.874  0.00  0.00    +0.047 C 
ATOM      2  C   UNL     1      -1.645  -0.701  -0.709  0.00  0.00    +0.125 C 
ATOM      3  C   UNL     1      -0.563  -0.430   0.326  0.00  0.00    +0.125 C 
ATOM      4  C   UNL     1       0.704   0.203  -0.223  0.00  0.00    +0.129 C 
ATOM      5  C   UNL     1       1.114  -0.331  -1.587  0.00  0.00    +0.159 C 
ATOM      6  C   UNL     1      -0.067  -0.415  -2.550  0.00  0.00    +0.242 C 
ATOM      7  O   UNL     1      -1.140  -1.123  -1.958  0.00  0.00    -0.326 OA
ATOM      8  C   UNL     1       0.390  -1.183  -3.806  0.00  0.00    +0.092 C 
ATOM      9  C   UNL     1       2.177   0.603  -2.191  0.00  0.00    +0.051 C 
ATOM     10  C   UNL     1       0.564   1.730  -0.271  0.00  0.00    +0.047 C 
ATOM     11  C   UNL     1      -0.207  -1.750   1.032  0.00  0.00    +0.047 C 
ENDROOT
BRANCH   5  12
ATOM     12  O   UNL     1       1.696  -1.633  -1.443  0.00  0.00    -0.379 OA
ATOM     13  H   UNL     1       1.980  -2.032  -2.277  0.00  0.00    +0.211 HD
ENDBRANCH   5  12
BRANCH   4  14
ATOM     14  O   UNL     1       1.777  -0.091   0.701  0.00  0.00    -0.383 OA
ATOM     15  H   UNL     1       2.629   0.289   0.448  0.00  0.00    +0.210 HD
ENDBRANCH   4  14
BRANCH   3  16
ATOM     16  O   UNL     1      -1.112   0.454   1.326  0.00  0.00    -0.383 OA
ATOM     17  H   UNL     1      -1.927   0.129   1.733  0.00  0.00    +0.210 HD
ENDBRANCH   3  16
BRANCH   6  18
ATOM     18  O   UNL     1      -0.471   0.892  -2.960  0.00  0.00    -0.457 OA
BRANCH  18  19
ATOM     19  C   UNL     1      -1.542   0.975  -3.792  0.00  0.00    +0.143 A 
ATOM     20  C   UNL     1      -2.259  -0.168  -4.117  0.00  0.00    +0.049 A 
ATOM     21  C   UNL     1      -3.351  -0.080  -4.959  0.00  0.00    +0.036 A 
ATOM     22  C   UNL     1      -3.723   1.143  -5.486  0.00  0.00    +0.128 A 
ATOM     23  C   UNL     1      -3.008   2.282  -5.168  0.00  0.00    +0.056 A 
ATOM     24  C   UNL     1      -1.918   2.201  -4.322  0.00  0.00    +0.085 A 
ATOM     25 CL   UNL     1      -1.020   3.632  -3.923  0.00  0.00    -0.080 Cl
BRANCH  22  26
ATOM     26  N   UNL     1      -4.890   1.231  -6.393  0.00  0.00    +0.056 N 
ATOM     27  O   UNL     1      -5.218   2.308  -6.859  0.00  0.00    -0.126 OA
ATOM     28  O   UNL     1      -5.521   0.228  -6.674  0.00  0.00    -0.126 OA
ENDBRANCH  22  26
ENDBRANCH  18  19
ENDBRANCH   6  18
BRANCH   2  29
ATOM     29  C   UNL     1      -2.539  -1.839  -0.159  0.00  0.00    +0.193 C 
BRANCH  29  30
ATOM     30  O   UNL     1      -3.610  -2.087  -1.072  0.00  0.00    -0.392 OA
ATOM     31  H   UNL     1      -4.212  -2.789  -0.791  0.00  0.00    +0.210 HD
ENDBRANCH  29  30
ENDBRANCH   2  29
TORSDOF 8
