REMARK  Name = ZINC40045553
REMARK  8 active torsions:
REMARK  status: ('A' for Active; 'I' for Inactive)
REMARK    1  A    between atoms: C_1  and  C_2
REMARK    2  A    between atoms: C_4  and  C_38
REMARK    3  A    between atoms: C_16  and  C_18
REMARK    4  A    between atoms: C_21  and  O_26
REMARK    5  A    between atoms: C_22  and  O_24
REMARK    6  A    between atoms: O_24  and  C_25
REMARK    7  A    between atoms: C_32  and  O_36
REMARK    8  A    between atoms: O_36  and  C_37
REMARK                            x       y       z     vdW  Elec       q    Type
REMARK                         _______ _______ _______ _____ _____    ______ ____
ROOT
ATOM      1  C   UNL     1      -0.018   1.503   0.010  0.00  0.00    +0.044 C 
ATOM      2  C   UNL     1       0.002  -0.004   0.002  0.00  0.00    -0.049 A 
ATOM      3  C   UNL     1       0.006  -0.689  -1.205  0.00  0.00    +0.010 A 
ATOM      4  C   UNL     1       0.021  -2.065  -1.235  0.00  0.00    -0.007 A 
ATOM      5  C   UNL     1       0.034  -2.790  -0.043  0.00  0.00    +0.142 A 
ATOM      6  C   UNL     1       0.036  -2.086   1.172  0.00  0.00    +0.065 A 
ATOM      7  C   UNL     1       0.023  -0.692   1.183  0.00  0.00    +0.018 A 
ATOM      8  C   UNL     1       0.067  -2.849   2.446  0.00  0.00    +0.199 A 
ATOM      9  O   UNL     1      -0.097  -2.332   3.537  0.00  0.00    -0.287 OA
ATOM     10  C   UNL     1       0.312  -4.283   2.265  0.00  0.00    +0.072 A 
ATOM     11  C   UNL     1       0.292  -4.850   1.022  0.00  0.00    +0.199 A 
ATOM     12  O   UNL     1       0.041  -4.142  -0.096  0.00  0.00    -0.449 OA
ATOM     13  C   UNL     1       0.580  -6.287   1.166  0.00  0.00    +0.289 C 
ATOM     14  O   UNL     1       0.640  -7.080   0.247  0.00  0.00    -0.266 OA
ATOM     15  N   UNL     1       0.768  -6.596   2.465  0.00  0.00    -0.232 N 
ATOM     16  C   UNL     1       0.612  -5.362   3.253  0.00  0.00    +0.152 C 
ATOM     17  C   UNL     1       1.055  -7.852   2.970  0.00  0.00    +0.169 A 
ATOM     18  N   UNL     1       1.242  -8.216   4.217  0.00  0.00    -0.224 NA
ATOM     19  C   UNL     1       1.518  -9.491   4.568  0.00  0.00    +0.081 A 
ATOM     20  C   UNL     1       1.739 -10.011   5.865  0.00  0.00    +0.032 A 
ATOM     21  C   UNL     1       2.010 -11.330   6.052  0.00  0.00    +0.048 A 
ATOM     22  C   UNL     1       2.079 -12.219   4.984  0.00  0.00    +0.121 A 
ATOM     23  C   UNL     1       1.867 -11.748   3.696  0.00  0.00    +0.063 A 
ATOM     24  C   UNL     1       1.595 -10.416   3.502  0.00  0.00    +0.044 A 
ATOM     25  S   UNL     1       1.260  -9.394   2.089  0.00  0.00    -0.052 S 
ATOM     26  C   UNL     1       0.022  -2.790  -2.557  0.00  0.00    +0.047 C 
ENDROOT
BRANCH  16  27
ATOM     27  C   UNL     1      -0.529  -5.508   4.227  0.00  0.00    -0.018 A 
ATOM     28  C   UNL     1      -1.658  -6.219   3.864  0.00  0.00    +0.009 A 
ATOM     29  C   UNL     1      -2.708  -6.355   4.753  0.00  0.00    +0.049 A 
ATOM     30  C   UNL     1      -2.630  -5.779   6.011  0.00  0.00    +0.158 A 
ATOM     31  C   UNL     1      -1.494  -5.063   6.376  0.00  0.00    +0.162 A 
ATOM     32  C   UNL     1      -0.443  -4.934   5.481  0.00  0.00    +0.055 A 
BRANCH  31  33
ATOM     33  O   UNL     1      -1.413  -4.495   7.609  0.00  0.00    -0.491 OA
ATOM     34  C   UNL     1      -0.217  -3.775   7.914  0.00  0.00    +0.277 C 
ENDBRANCH  31  33
BRANCH  30  35
ATOM     35  O   UNL     1      -3.662  -5.911   6.887  0.00  0.00    -0.503 OA
ATOM     36  H   UNL     1      -3.597  -6.690   7.457  0.00  0.00    +0.292 HD
ENDBRANCH  30  35
ENDBRANCH  16  27
BRANCH  22  37
ATOM     37  O   UNL     1       2.351 -13.534   5.199  0.00  0.00    -0.495 OA
ATOM     38  C   UNL     1       2.557 -13.940   6.553  0.00  0.00    +0.277 C 
ENDBRANCH  22  37
TORSDOF 4
