REMARK  Name = ZINC43740200
REMARK  11 active torsions:
REMARK  status: ('A' for Active; 'I' for Inactive)
REMARK    1  A    between atoms: C_1  and  C_2
REMARK    2  A    between atoms: C_2  and  C_4
REMARK    3  A    between atoms: C_4  and  O_42
REMARK    4  A    between atoms: C_9  and  C_41
REMARK    5  A    between atoms: N_21  and  O_22
REMARK    6  A    between atoms: O_22  and  C_23
REMARK    7  A    between atoms: C_23  and  C_24
REMARK    8  A    between atoms: N_26  and  C_27
REMARK    9  A    between atoms: C_27  and  C_28
REMARK   10  A    between atoms: C_31  and  C_34
REMARK   11  A    between atoms: C_39  and  C_40
REMARK                            x       y       z     vdW  Elec       q    Type
REMARK                         _______ _______ _______ _____ _____    ______ ____
ROOT
ATOM      1  C   UNL     1      -1.384  -0.922   0.210  0.00  0.00    +0.129 C 
ATOM      2  C   UNL     1      -1.835  -1.562   1.548  0.00  0.00    +0.043 C 
ATOM      3  C   UNL     1      -1.982  -3.084   1.274  0.00  0.00    +0.008 C 
ATOM      4  C   UNL     1      -2.182  -3.127  -0.255  0.00  0.00    +0.002 C 
ATOM      5  C   UNL     1      -1.112  -2.115  -0.721  0.00  0.00    +0.007 C 
ATOM      6  C   UNL     1      -1.272  -1.829  -2.196  0.00  0.00    +0.010 C 
ATOM      7  C   UNL     1      -1.998  -3.000  -2.876  0.00  0.00    +0.005 C 
ATOM      8  C   UNL     1      -1.515  -4.326  -2.306  0.00  0.00    +0.002 C 
ATOM      9  C   UNL     1      -1.926  -4.500  -0.863  0.00  0.00    -0.003 C 
ATOM     10  C   UNL     1      -3.191  -5.334  -0.684  0.00  0.00    +0.008 C 
ATOM     11  C   UNL     1      -3.067  -6.681  -1.388  0.00  0.00    +0.031 C 
ATOM     12  C   UNL     1      -2.813  -6.416  -2.859  0.00  0.00    -0.062 C 
ATOM     13  C   UNL     1      -3.603  -7.015  -3.744  0.00  0.00    +0.026 C 
ATOM     14  C   UNL     1      -3.395  -6.829  -5.189  0.00  0.00    +0.080 C 
ATOM     15  N   UNL     1      -4.280  -7.221  -6.053  0.00  0.00    -0.089 NA
ATOM     16  C   UNL     1      -2.099  -6.186  -5.634  0.00  0.00    +0.059 C 
ATOM     17  C   UNL     1      -1.787  -5.032  -4.687  0.00  0.00    +0.017 C 
ATOM     18  C   UNL     1      -1.706  -5.492  -3.240  0.00  0.00    -0.007 C 
ATOM     19  C   UNL     1      -0.414  -6.313  -3.132  0.00  0.00    +0.016 C 
ATOM     20  C   UNL     1       0.304  -2.619  -0.429  0.00  0.00    +0.015 C 
ENDROOT
BRANCH   1  22
ATOM     21  C   UNL     1       0.262   0.937  -0.587  0.00  0.00    +0.089 C 
ATOM     22  C   UNL     1      -0.125  -0.124   0.411  0.00  0.00    +0.162 C 
ATOM     23  O   UNL     1       0.577  -0.334   1.371  0.00  0.00    -0.295 OA
ENDBRANCH   1  22
BRANCH   1  24
ATOM     24  O   UNL     1      -2.424  -0.101  -0.315  0.00  0.00    -0.381 OA
ATOM     25  H   UNL     1      -2.652   0.652   0.247  0.00  0.00    +0.211 HD
ENDBRANCH   1  24
BRANCH  15  26
ATOM     26  O   UNL     1      -5.474  -7.840  -5.612  0.00  0.00    -0.384 OA
BRANCH  26  27
ATOM     27  C   UNL     1      -6.357  -8.219  -6.670  0.00  0.00    +0.358 C 
BRANCH  27  28
ATOM     28  C   UNL     1      -7.588  -8.865  -6.090  0.00  0.00    +0.253 C 
ATOM     29  O   UNL     1      -7.700  -8.989  -4.889  0.00  0.00    -0.272 OA
ATOM     30  N   UNL     1      -8.567  -9.306  -6.906  0.00  0.00    -0.312 N 
ATOM     31  H   UNL     1      -8.478  -9.207  -7.867  0.00  0.00    +0.149 HD
BRANCH  30  32
ATOM     32  C   UNL     1      -9.764  -9.934  -6.342  0.00  0.00    +0.107 C 
BRANCH  32  33
ATOM     33  C   UNL     1     -10.709 -10.340  -7.475  0.00  0.00    +0.006 C 
ATOM     34  C   UNL     1     -11.210  -9.086  -8.195  0.00  0.00    +0.006 C 
ATOM     35  C   UNL     1     -11.958  -8.193  -7.202  0.00  0.00    +0.015 C 
ATOM     36  C   UNL     1     -13.149  -8.959  -6.623  0.00  0.00    +0.102 C 
ATOM     37  C   UNL     1     -12.647 -10.213  -5.903  0.00  0.00    +0.015 C 
ATOM     38  C   UNL     1     -11.900 -11.106  -6.896  0.00  0.00    +0.006 C 
BRANCH  36  39
ATOM     39  C   UNL     1     -13.885  -8.079  -5.646  0.00  0.00    +0.359 C 
ATOM     40  O   UNL     1     -15.104  -8.090  -5.615  0.00  0.00    -0.246 OA
ATOM     41  O   UNL     1     -13.262  -7.357  -4.887  0.00  0.00    -0.246 OA
ENDBRANCH  36  39
ENDBRANCH  32  33
ENDBRANCH  30  32
ENDBRANCH  27  28
ENDBRANCH  26  27
ENDBRANCH  15  26
TORSDOF 8
