REMARK  Name = ZINC22037842
REMARK  8 active torsions:
REMARK  status: ('A' for Active; 'I' for Inactive)
REMARK    1  A    between atoms: C_6  and  C_7
REMARK    2  A    between atoms: C_7  and  N_8
REMARK    3  A    between atoms: N_11  and  C_14
REMARK    4  A    between atoms: C_14  and  C_15
REMARK    5  A    between atoms: C_15  and  C_17
REMARK    6  A    between atoms: C_15  and  O_28
REMARK    7  A    between atoms: C_17  and  O_18
REMARK    8  A    between atoms: O_18  and  C_19
REMARK                            x       y       z     vdW  Elec       q    Type
REMARK                         _______ _______ _______ _____ _____    ______ ____
ROOT
ATOM      1  N   UNL     1       6.263  -0.856   1.289  0.00  0.00    +0.384 N 
ATOM      2  C   UNL     1       5.866  -2.200   0.848  0.00  0.00    -0.063 C 
ATOM      3  C   UNL     1       6.765  -2.640  -0.311  0.00  0.00    +0.066 C 
ATOM      4  N   UNL     1       8.167  -2.625   0.128  0.00  0.00    -0.303 NA
ATOM      5  C   UNL     1       8.564  -1.280   0.569  0.00  0.00    +0.066 C 
ATOM      6  C   UNL     1       7.665  -0.841   1.728  0.00  0.00    -0.063 C 
ATOM      7  H   UNL     1       6.168  -0.174   0.431  0.00  0.00    -0.081 HD
ENDROOT
BRANCH   1   8
ATOM      8  C   UNL     1       5.374  -0.367   2.352  0.00  0.00    -0.043 C 
BRANCH   8  14
ATOM      9  C   UNL     1       3.075  -1.200   1.824  0.00  0.00    +0.005 A 
ATOM     10  C   UNL     1       1.802  -1.018   1.314  0.00  0.00    +0.050 A 
ATOM     11  C   UNL     1       1.441   0.204   0.771  0.00  0.00    +0.166 A 
ATOM     12  C   UNL     1       2.363   1.248   0.742  0.00  0.00    +0.166 A 
ATOM     13  C   UNL     1       3.635   1.059   1.255  0.00  0.00    +0.051 A 
ATOM     14  C   UNL     1       3.989  -0.164   1.794  0.00  0.00    -0.060 A 
ATOM     15  O   UNL     1       1.772   2.335   0.165  0.00  0.00    -0.453 OA
ATOM     16  C   UNL     1       0.356   2.074   0.213  0.00  0.00    +0.466 C 
ATOM     17  O   UNL     1       0.273   0.637   0.213  0.00  0.00    -0.453 OA
ENDBRANCH   8  14
ENDBRANCH   1   8
BRANCH   4  18
ATOM     18  C   UNL     1       9.056  -3.113  -0.935  0.00  0.00    +0.119 C 
BRANCH  18  19
ATOM     19  C   UNL     1       8.704  -2.421  -2.253  0.00  0.00    +0.166 C 
BRANCH  19  20
ATOM     20  O   UNL     1       9.002  -1.027  -2.153  0.00  0.00    -0.387 OA
ATOM     21  H   UNL     1       8.814  -0.361  -3.008  0.00  0.00    +0.210 HD
ENDBRANCH  19  20
BRANCH  19  22
ATOM     22  C   UNL     1       9.524  -3.037  -3.388  0.00  0.00    +0.261 C 
BRANCH  22  23
ATOM     23  O   UNL     1       9.113  -2.472  -4.634  0.00  0.00    -0.486 OA
BRANCH  23  24
ATOM     24  C   UNL     1       9.747  -2.915  -5.753  0.00  0.00    +0.157 A 
ATOM     25  C   UNL     1      10.890  -2.270  -6.205  0.00  0.00    +0.085 A 
ATOM     26  C   UNL     1      11.537  -2.726  -7.339  0.00  0.00    +0.043 A 
ATOM     27  C   UNL     1      11.039  -3.817  -8.029  0.00  0.00    +0.044 A 
ATOM     28  C   UNL     1       9.896  -4.458  -7.583  0.00  0.00    +0.043 A 
ATOM     29  C   UNL     1       9.250  -4.009  -6.446  0.00  0.00    +0.085 A 
ATOM     30 CL   UNL     1       7.817  -4.814  -5.887  0.00  0.00    -0.080 Cl
ATOM     31 CL   UNL     1      11.849  -4.383  -9.456  0.00  0.00    -0.083 Cl
ATOM     32 CL   UNL     1      11.511  -0.897  -5.344  0.00  0.00    -0.080 Cl
ENDBRANCH  23  24
ENDBRANCH  22  23
ENDBRANCH  19  22
ENDBRANCH  18  19
ENDBRANCH   4  18
TORSDOF 8
