REMARK  Name = ZINC39441241
REMARK  6 active torsions:
REMARK  status: ('A' for Active; 'I' for Inactive)
REMARK    1  A    between atoms: C_1  and  C_2
REMARK    2  A    between atoms: C_2  and  C_4
REMARK    3  A    between atoms: C_2  and  S_16
REMARK    4  A    between atoms: S_16  and  C_17
REMARK    5  A    between atoms: C_23  and  N_31
REMARK    6  A    between atoms: N_24  and  C_25
REMARK                            x       y       z     vdW  Elec       q    Type
REMARK                         _______ _______ _______ _____ _____    ______ ____
ROOT
ATOM      1  C   UNL     1      -0.163   0.048  -3.060  0.00  0.00    +0.228 C 
ATOM      2  N   UNL     1      -0.139   1.510  -3.175  0.00  0.00    -0.284 N 
ATOM      3  C   UNL     1      -1.058   2.257  -2.537  0.00  0.00    +0.242 C 
ATOM      4  O   UNL     1      -0.959   3.472  -2.544  0.00  0.00    -0.271 OA
ATOM      5  C   UNL     1      -2.130   1.653  -1.863  0.00  0.00    +0.106 C 
ATOM      6  C   UNL     1      -2.365   0.315  -2.027  0.00  0.00    +0.095 C 
ATOM      7  N   UNL     1      -1.550  -0.398  -2.882  0.00  0.00    -0.260 N 
ATOM      8  H   UNL     1       0.542   1.940  -3.714  0.00  0.00    +0.152 HD
ENDROOT
BRANCH   7   9
ATOM      9  C   UNL     1      -2.033  -1.519  -3.565  0.00  0.00    +0.037 A 
ATOM     10  C   UNL     1      -1.534  -2.781  -3.272  0.00  0.00    +0.023 A 
ATOM     11  C   UNL     1      -2.014  -3.886  -3.947  0.00  0.00    +0.002 A 
ATOM     12  C   UNL     1      -2.990  -3.737  -4.915  0.00  0.00    +0.000 A 
ATOM     13  C   UNL     1      -3.489  -2.481  -5.210  0.00  0.00    +0.002 A 
ATOM     14  C   UNL     1      -3.018  -1.373  -4.534  0.00  0.00    +0.023 A 
ENDBRANCH   7   9
BRANCH   6  15
ATOM     15  N   UNL     1      -3.389  -0.304  -1.356  0.00  0.00    -0.346 N 
ATOM     16  H   UNL     1      -3.910   0.190  -0.704  0.00  0.00    +0.143 HD
ATOM     17  H   UNL     1      -3.591  -1.236  -1.533  0.00  0.00    +0.143 HD
ENDBRANCH   6  15
BRANCH   1  18
ATOM     18  S   UNL     1       0.828  -0.464  -1.629  0.00  0.00    -0.108 S 
BRANCH  18  20
ATOM     19  C   UNL     1       2.840  -1.307  -3.279  0.00  0.00    +0.027 C 
ATOM     20  C   UNL     1       2.542  -0.273  -2.191  0.00  0.00    +0.112 C 
BRANCH  20  21
ATOM     21  C   UNL     1       3.478  -0.483  -1.029  0.00  0.00    +0.123 A 
ATOM     22  N   UNL     1       4.815  -0.479  -1.269  0.00  0.00    -0.309 N 
ATOM     23  H   UNL     1       5.140  -0.342  -2.172  0.00  0.00    +0.170 HD
ATOM     24  C   UNL     1       5.697  -0.662  -0.259  0.00  0.00    +0.259 A 
ATOM     25  O   UNL     1       6.898  -0.660  -0.460  0.00  0.00    -0.267 OA
ATOM     26  C   UNL     1       5.149  -0.866   1.090  0.00  0.00    +0.065 A 
ATOM     27  C   UNL     1       5.971  -1.064   2.198  0.00  0.00    +0.015 A 
ATOM     28  C   UNL     1       5.404  -1.250   3.439  0.00  0.00    +0.001 A 
ATOM     29  C   UNL     1       4.023  -1.240   3.594  0.00  0.00    +0.002 A 
ATOM     30  C   UNL     1       3.194  -1.046   2.512  0.00  0.00    +0.028 A 
ATOM     31  C   UNL     1       3.745  -0.855   1.244  0.00  0.00    +0.078 A 
ATOM     32  N   UNL     1       2.965  -0.655   0.152  0.00  0.00    -0.233 NA
ENDBRANCH  20  21
ENDBRANCH  18  20
ENDBRANCH   1  18
TORSDOF 5
