REMARK  Name = ZINC38678632
REMARK  6 active torsions:
REMARK  status: ('A' for Active; 'I' for Inactive)
REMARK    1  A    between atoms: C_5  and  C_7
REMARK    2  A    between atoms: C_12  and  O_21
REMARK    3  A    between atoms: C_16  and  N_20
REMARK    4  A    between atoms: C_17  and  C_18
REMARK    5  A    between atoms: O_21  and  C_22
REMARK    6  A    between atoms: C_22  and  C_24
REMARK                            x       y       z     vdW  Elec       q    Type
REMARK                         _______ _______ _______ _____ _____    ______ ____
ROOT
ATOM      1  C   UNL     1       1.287  -2.200   0.004  0.00  0.00    +0.099 C 
ATOM      2  C   UNL     1       0.586  -2.710   1.236  0.00  0.00    +0.008 A 
ATOM      3  C   UNL     1       1.271  -2.761   2.437  0.00  0.00    +0.012 A 
ATOM      4  C   UNL     1       0.645  -3.227   3.576  0.00  0.00    +0.047 A 
ATOM      5  C   UNL     1      -0.677  -3.646   3.518  0.00  0.00    +0.136 A 
ATOM      6  C   UNL     1      -1.366  -3.596   2.317  0.00  0.00    +0.093 A 
ATOM      7  C   UNL     1      -0.734  -3.127   1.173  0.00  0.00    +0.138 A 
ATOM      8  O   UNL     1      -1.422  -3.085   0.005  0.00  0.00    -0.441 OA
ATOM      9  C   UNL     1      -0.759  -3.015  -1.161  0.00  0.00    +0.199 C 
ATOM     10  C   UNL     1       0.526  -2.602  -1.227  0.00  0.00    +0.098 C 
ENDROOT
BRANCH   1  15
ATOM     11  C   UNL     1       0.301   1.440   0.186  0.00  0.00    +0.000 A 
ATOM     12  C   UNL     1       1.537   2.062   0.182  0.00  0.00    +0.001 A 
ATOM     13  C   UNL     1       2.691   1.305   0.121  0.00  0.00    +0.015 A 
ATOM     14  C   UNL     1       2.611  -0.075   0.064  0.00  0.00    +0.022 A 
ATOM     15  C   UNL     1       1.375  -0.696   0.068  0.00  0.00    -0.021 A 
ATOM     16  C   UNL     1       0.221   0.062   0.129  0.00  0.00    +0.005 A 
ATOM     17 BR   UNL     1       4.190  -1.112  -0.021  0.00  0.00    -0.050 Br
ENDBRANCH   1  15
BRANCH   9  18
ATOM     18  N   UNL     1      -1.406  -3.372  -2.318  0.00  0.00    -0.328 N 
ATOM     19  H   UNL     1      -2.328  -3.669  -2.286  0.00  0.00    +0.145 HD
ATOM     20  H   UNL     1      -0.940  -3.327  -3.168  0.00  0.00    +0.145 HD
ENDBRANCH   9  18
BRANCH  10  21
ATOM     21  C   UNL     1       1.176  -2.549  -2.502  0.00  0.00    +0.101 C 
ATOM     22  N   UNL     1       1.692  -2.507  -3.514  0.00  0.00    -0.191 NA
ENDBRANCH  10  21
BRANCH   5  23
ATOM     23  O   UNL     1      -1.294  -4.106   4.638  0.00  0.00    -0.420 OA
BRANCH  23  24
ATOM     24  C   UNL     1      -1.568  -3.221   5.619  0.00  0.00    +0.380 C 
ATOM     25  O   UNL     1      -1.359  -2.035   5.444  0.00  0.00    -0.241 OA
BRANCH  24  26
ATOM     26  C   UNL     1      -2.117  -3.687   6.894  0.00  0.00    +0.212 A 
ATOM     27  C   UNL     1      -2.443  -2.902   7.964  0.00  0.00    +0.056 A 
ATOM     28  C   UNL     1      -2.929  -3.760   8.962  0.00  0.00    +0.042 A 
ATOM     29  C   UNL     1      -2.879  -5.016   8.465  0.00  0.00    +0.196 A 
ATOM     30  O   UNL     1      -2.395  -4.968   7.217  0.00  0.00    -0.456 OA
ENDBRANCH  24  26
ENDBRANCH  23  24
ENDBRANCH   5  23
TORSDOF 6
