REMARK  Name = ZINC41107979
REMARK  7 active torsions:
REMARK  status: ('A' for Active; 'I' for Inactive)
REMARK    1  A    between atoms: C_1  and  C_2
REMARK    2  A    between atoms: C_8  and  C_9
REMARK    3  A    between atoms: C_12  and  O_17
REMARK    4  A    between atoms: C_13  and  O_15
REMARK    5  A    between atoms: O_15  and  C_16
REMARK    6  A    between atoms: O_17  and  S_18
REMARK    7  A    between atoms: S_18  and  C_21
REMARK                            x       y       z     vdW  Elec       q    Type
REMARK                         _______ _______ _______ _____ _____    ______ ____
ROOT
ATOM      1  C   UNL     1       0.957   0.459  -1.956  0.00  0.00    +0.075 C 
ATOM      2  C   UNL     1       0.511  -0.970  -1.778  0.00  0.00    +0.097 C 
ATOM      3  N   UNL     1      -0.510  -1.430  -1.112  0.00  0.00    -0.170 NA
ATOM      4  N   UNL     1      -0.778  -2.781  -1.058  0.00  0.00    -0.152 N 
ATOM      5  C   UNL     1      -1.901  -3.376  -0.444  0.00  0.00    +0.152 C 
ATOM      6  N   UNL     1      -3.018  -2.737  -0.219  0.00  0.00    -0.283 NA
ATOM      7  C   UNL     1      -1.687  -4.804  -0.077  0.00  0.00    +0.081 C 
ATOM      8  C   UNL     1      -2.276  -5.364   1.034  0.00  0.00    +0.024 C 
ATOM      9  C   UNL     1      -0.804  -5.591  -0.974  0.00  0.00    +0.273 C 
ATOM     10  O   UNL     1      -0.910  -6.804  -1.053  0.00  0.00    -0.268 OA
ATOM     11  N   UNL     1       0.118  -4.927  -1.698  0.00  0.00    -0.152 NA
ATOM     12  C   UNL     1       0.120  -3.617  -1.687  0.00  0.00    +0.181 C 
ATOM     13  S   UNL     1       1.241  -2.464  -2.433  0.00  0.00    -0.038 S 
ATOM     14  H   UNL     1      -3.106  -1.806  -0.478  0.00  0.00    +0.188 HD
ENDROOT
BRANCH   8  15
ATOM     15  C   UNL     1      -1.894  -6.710   1.466  0.00  0.00    -0.021 A 
ATOM     16  C   UNL     1      -0.562  -7.134   1.353  0.00  0.00    +0.012 A 
ATOM     17  C   UNL     1      -0.206  -8.400   1.760  0.00  0.00    +0.053 A 
ATOM     18  C   UNL     1      -1.164  -9.260   2.283  0.00  0.00    +0.198 A 
ATOM     19  C   UNL     1      -2.491  -8.847   2.400  0.00  0.00    +0.165 A 
ATOM     20  C   UNL     1      -2.857  -7.578   2.000  0.00  0.00    +0.057 A 
BRANCH  19  21
ATOM     21  O   UNL     1      -3.424  -9.694   2.912  0.00  0.00    -0.491 OA
ATOM     22  C   UNL     1      -4.764  -9.205   3.002  0.00  0.00    +0.277 C 
ENDBRANCH  19  21
BRANCH  18  23
ATOM     23  O   UNL     1      -0.806 -10.508   2.682  0.00  0.00    -0.343 OA
BRANCH  23  24
ATOM     24  S   UNL     1      -0.380 -10.593   4.141  0.00  0.00    +0.118 S 
ATOM     25  O   UNL     1       0.191 -11.887   4.277  0.00  0.00    -0.137 OA
ATOM     26  O   UNL     1       0.405  -9.429   4.358  0.00  0.00    -0.137 OA
ATOM     27  C   UNL     1      -1.926 -10.489   5.085  0.00  0.00    +0.242 C 
ENDBRANCH  23  24
ENDBRANCH  18  23
ENDBRANCH   8  15
TORSDOF 4
