REMARK  Name = ZINC60040943
REMARK  15 active torsions:
REMARK  status: ('A' for Active; 'I' for Inactive)
REMARK    1  A    between atoms: C_1  and  C_2
REMARK    2  A    between atoms: C_2  and  C_3
REMARK    3  A    between atoms: C_3  and  C_4
REMARK    4  A    between atoms: C_4  and  N_5
REMARK    5  A    between atoms: C_6  and  C_8
REMARK    6  A    between atoms: C_12  and  C_32
REMARK    7  A    between atoms: N_14  and  C_16
REMARK    8  A    between atoms: C_16  and  C_17
REMARK    9  A    between atoms: N_19  and  C_20
REMARK   10  A    between atoms: C_22  and  O_29
REMARK   11  A    between atoms: C_25  and  O_26
REMARK   12  A    between atoms: O_26  and  C_27
REMARK   13  A    between atoms: C_27  and  C_28
REMARK   14  A    between atoms: O_29  and  C_30
REMARK   15  A    between atoms: C_30  and  C_31
REMARK                            x       y       z     vdW  Elec       q    Type
REMARK                         _______ _______ _______ _____ _____    ______ ____
ROOT
ATOM      1  C   UNL     1      -5.778  -7.928   0.093  0.00  0.00    +0.019 C 
ENDROOT
BRANCH   1   6
ATOM      2  C   UNL     1      -4.458  -4.415   0.027  0.00  0.00    +0.058 C 
ATOM      3  C   UNL     1      -5.210  -3.910  -1.208  0.00  0.00    +0.009 C 
ATOM      4  C   UNL     1      -6.617  -4.513  -1.219  0.00  0.00    -0.015 C 
ATOM      5  C   UNL     1      -6.513  -6.039  -1.188  0.00  0.00    -0.071 C 
ATOM      6  N   UNL     1      -5.808  -6.460   0.029  0.00  0.00    +0.388 N 
ATOM      7  C   UNL     1      -4.433  -5.945   0.013  0.00  0.00    -0.065 C 
ATOM      8  C   UNL     1      -7.917  -6.646  -1.198  0.00  0.00    -0.013 C 
ATOM      9  H   UNL     1      -6.291  -6.100   0.838  0.00  0.00    -0.081 HD
BRANCH   2  11
ATOM     10  N   UNL     1      -2.822  -2.560   0.012  0.00  0.00    -0.315 N 
ATOM     11  C   UNL     1      -3.046  -3.889   0.006  0.00  0.00    +0.214 C 
ATOM     12  O   UNL     1      -2.111  -4.662  -0.015  0.00  0.00    -0.276 OA
ATOM     13  H   UNL     1      -3.569  -1.942   0.030  0.00  0.00    +0.149 HD
BRANCH  10  14
ATOM     14  C   UNL     1      -1.449  -2.049  -0.007  0.00  0.00    +0.104 C 
BRANCH  14  15
ATOM     15  C   UNL     1      -1.474  -0.519   0.004  0.00  0.00    +0.018 C 
BRANCH  15  17
ATOM     16  C   UNL     1      -0.067   1.545  -0.004  0.00  0.00    +0.004 C 
ATOM     17  C   UNL     1      -0.041   0.015  -0.016  0.00  0.00    -0.002 C 
ENDBRANCH  15  17
ENDBRANCH  14  15
ENDBRANCH  10  14
ENDBRANCH   2  11
ENDBRANCH   1   6
BRANCH   1  18
ATOM     18  C   UNL     1      -5.165  -8.361   1.399  0.00  0.00    +0.201 C 
ATOM     19  O   UNL     1      -4.789  -7.529   2.198  0.00  0.00    -0.278 OA
ATOM     20  N   UNL     1      -5.034  -9.673   1.680  0.00  0.00    -0.284 N 
ATOM     21  H   UNL     1      -5.392 -10.337   1.071  0.00  0.00    +0.155 HD
BRANCH  20  22
ATOM     22  C   UNL     1      -4.379 -10.077   2.851  0.00  0.00    +0.079 A 
ATOM     23  C   UNL     1      -4.493  -9.319   4.007  0.00  0.00    +0.072 A 
ATOM     24  C   UNL     1      -3.844  -9.721   5.165  0.00  0.00    +0.122 A 
ATOM     25  C   UNL     1      -3.082 -10.880   5.167  0.00  0.00    +0.049 A 
ATOM     26  C   UNL     1      -2.966 -11.636   4.016  0.00  0.00    +0.051 A 
ATOM     27  C   UNL     1      -3.618 -11.243   2.858  0.00  0.00    +0.142 A 
BRANCH  27  28
ATOM     28  O   UNL     1      -3.508 -11.991   1.727  0.00  0.00    -0.490 OA
BRANCH  28  29
ATOM     29  C   UNL     1      -2.711 -13.175   1.807  0.00  0.00    +0.226 C 
ATOM     30  C   UNL     1      -2.707 -13.879   0.449  0.00  0.00    +0.048 C 
ENDBRANCH  28  29
ENDBRANCH  27  28
BRANCH  24  31
ATOM     31  O   UNL     1      -3.955  -8.979   6.298  0.00  0.00    -0.492 OA
BRANCH  31  32
ATOM     32  C   UNL     1      -3.260  -9.452   7.454  0.00  0.00    +0.225 C 
ATOM     33  C   UNL     1      -3.502  -8.493   8.622  0.00  0.00    +0.048 C 
ENDBRANCH  31  32
ENDBRANCH  24  31
ENDBRANCH  20  22
ENDBRANCH   1  18
TORSDOF 11
