REMARK  Name = ZINC12906818
REMARK  10 active torsions:
REMARK  status: ('A' for Active; 'I' for Inactive)
REMARK    1  A    between atoms: C_1  and  C_2
REMARK    2  A    between atoms: C_2  and  C_26
REMARK    3  A    between atoms: N_5  and  C_9
REMARK    4  A    between atoms: C_9  and  C_10
REMARK    5  A    between atoms: N_15  and  C_18
REMARK    6  A    between atoms: C_18  and  C_19
REMARK    7  A    between atoms: N_21  and  C_22
REMARK    8  A    between atoms: C_22  and  C_23
REMARK    9  A    between atoms: C_22  and  C_24
REMARK   10  A    between atoms: C_22  and  C_25
REMARK                            x       y       z     vdW  Elec       q    Type
REMARK                         _______ _______ _______ _____ _____    ______ ____
ROOT
ATOM      1  C   UNL     1      -0.024   1.521  -0.112  0.00  0.00    +0.047 C 
ATOM      2  C   UNL     1       0.002  -0.004   0.002  0.00  0.00    +0.136 C 
ATOM      3  C   UNL     1       0.750  -0.614  -1.167  0.00  0.00    +0.251 C 
ATOM      4  O   UNL     1       0.464  -0.532  -2.342  0.00  0.00    -0.272 OA
ATOM      5  N   UNL     1       1.799  -1.266  -0.628  0.00  0.00    -0.215 N 
ATOM      6  C   UNL     1       1.818  -1.154   0.705  0.00  0.00    +0.310 C 
ATOM      7  O   UNL     1       2.668  -1.657   1.413  0.00  0.00    -0.252 OA
ATOM      8  N   UNL     1       0.791  -0.422   1.174  0.00  0.00    -0.281 N 
ATOM      9  H   UNL     1       0.606  -0.211   2.102  0.00  0.00    +0.152 HD
ENDROOT
BRANCH   2  10
ATOM     10  C   UNL     1      -1.399  -0.552   0.083  0.00  0.00    -0.008 A 
ATOM     11  C   UNL     1      -1.792  -1.269   1.172  0.00  0.00    +0.007 A 
ATOM     12  C   UNL     1      -3.083  -1.784   1.264  0.00  0.00    +0.001 A 
ATOM     13  C   UNL     1      -3.990  -1.585   0.269  0.00  0.00    +0.008 A 
ATOM     14  C   UNL     1      -3.622  -0.850  -0.870  0.00  0.00    -0.018 A 
ATOM     15  C   UNL     1      -2.310  -0.321  -0.962  0.00  0.00    -0.012 A 
ATOM     16  C   UNL     1      -1.943   0.420  -2.099  0.00  0.00    +0.009 A 
ATOM     17  C   UNL     1      -2.852   0.624  -3.091  0.00  0.00    +0.001 A 
ATOM     18  C   UNL     1      -4.144   0.109  -2.998  0.00  0.00    +0.001 A 
ATOM     19  C   UNL     1      -4.530  -0.624  -1.919  0.00  0.00    +0.008 A 
ENDBRANCH   2  10
BRANCH   5  20
ATOM     20  C   UNL     1       2.796  -2.006  -1.406  0.00  0.00    +0.213 C 
BRANCH  20  21
ATOM     21  C   UNL     1       3.925  -1.083  -1.784  0.00  0.00    +0.234 C 
ATOM     22  O   UNL     1       3.901   0.079  -1.437  0.00  0.00    -0.274 OA
ATOM     23  N   UNL     1       4.963  -1.549  -2.507  0.00  0.00    -0.298 N 
ATOM     24  C   UNL     1       5.010  -2.953  -2.942  0.00  0.00    +0.123 C 
ATOM     25  C   UNL     1       6.366  -3.543  -2.539  0.00  0.00    +0.104 C 
ATOM     26  N   UNL     1       7.442  -2.693  -3.065  0.00  0.00    -0.291 NA
ATOM     27  C   UNL     1       7.393  -1.347  -2.480  0.00  0.00    +0.104 C 
ATOM     28  C   UNL     1       6.076  -0.665  -2.886  0.00  0.00    +0.123 C 
BRANCH  26  29
ATOM     29  C   UNL     1       8.756  -3.313  -2.849  0.00  0.00    +0.180 C 
BRANCH  29  30
ATOM     30  C   UNL     1       9.806  -2.544  -3.610  0.00  0.00    +0.227 C 
ATOM     31  O   UNL     1       9.490  -1.575  -4.268  0.00  0.00    -0.274 OA
ATOM     32  N   UNL     1      11.095  -2.934  -3.560  0.00  0.00    -0.310 N 
ATOM     33  H   UNL     1      11.347  -3.709  -3.034  0.00  0.00    +0.149 HD
BRANCH  32  34
ATOM     34  C   UNL     1      12.115  -2.187  -4.299  0.00  0.00    +0.026 C 
ATOM     35  C   UNL     1      12.146  -0.739  -3.804  0.00  0.00    +0.031 C 
ATOM     36  C   UNL     1      13.484  -2.833  -4.074  0.00  0.00    +0.031 C 
ATOM     37  C   UNL     1      11.781  -2.208  -5.792  0.00  0.00    +0.031 C 
ENDBRANCH  32  34
ENDBRANCH  29  30
ENDBRANCH  26  29
ENDBRANCH  20  21
ENDBRANCH   5  20
TORSDOF 6
