REMARK  Name = ZINC51316695
REMARK  4 active torsions:
REMARK  status: ('A' for Active; 'I' for Inactive)
REMARK    1  A    between atoms: C_4  and  N_7
REMARK    2  A    between atoms: C_17  and  S_18
REMARK    3  A    between atoms: S_18  and  C_19
REMARK    4  A    between atoms: C_19  and  C_20
REMARK                            x       y       z     vdW  Elec       q    Type
REMARK                         _______ _______ _______ _____ _____    ______ ____
ROOT
ATOM      1  N   UNL     1       3.623  -0.652  -0.037  0.00  0.00    -0.255 N 
ATOM      2  C   UNL     1       4.779   0.041  -0.141  0.00  0.00    +0.270 A 
ATOM      3  O   UNL     1       4.773   1.257  -0.222  0.00  0.00    -0.266 OA
ATOM      4  C   UNL     1       5.997  -0.683  -0.153  0.00  0.00    +0.103 A 
ATOM      5  C   UNL     1       7.356  -0.317  -0.246  0.00  0.00    +0.149 A 
ATOM      6  N   UNL     1       8.077  -1.402  -0.210  0.00  0.00    -0.180 NA
ATOM      7  N   UNL     1       7.239  -2.518  -0.092  0.00  0.00    -0.260 N 
ATOM      8  H   UNL     1       7.528  -3.443  -0.044  0.00  0.00    +0.191 HD
ATOM      9  C   UNL     1       5.951  -2.083  -0.057  0.00  0.00    +0.164 A 
ATOM     10  N   UNL     1       4.766  -2.699   0.043  0.00  0.00    -0.204 NA
ATOM     11  C   UNL     1       3.643  -2.015   0.059  0.00  0.00    +0.179 A 
ENDROOT
BRANCH   1  15
ATOM     12  C   UNL     1      -0.017   1.378   0.011  0.00  0.00    +0.000 A 
ATOM     13  C   UNL     1       0.524   0.959  -1.191  0.00  0.00    +0.002 A 
ATOM     14  C   UNL     1       1.730   0.286  -1.210  0.00  0.00    +0.026 A 
ATOM     15  C   UNL     1       2.400   0.031  -0.021  0.00  0.00    +0.052 A 
ATOM     16  C   UNL     1       1.854   0.453   1.184  0.00  0.00    +0.026 A 
ATOM     17  C   UNL     1       0.647   1.125   1.197  0.00  0.00    +0.002 A 
ENDBRANCH   1  15
BRANCH  11  18
ATOM     18  S   UNL     1       2.116  -2.884   0.201  0.00  0.00    -0.078 S 
BRANCH  18  19
ATOM     19  C   UNL     1       2.610  -4.626   0.299  0.00  0.00    +0.173 C 
BRANCH  19  20
ATOM     20  C   UNL     1       1.382  -5.490   0.425  0.00  0.00    +0.226 C 
ATOM     21  O   UNL     1       0.282  -4.980   0.447  0.00  0.00    -0.275 OA
ATOM     22  N   UNL     1       1.506  -6.829   0.513  0.00  0.00    -0.296 N 
ATOM     23  C   UNL     1       0.326  -7.702   0.631  0.00  0.00    +0.113 C 
ATOM     24  C   UNL     1       0.264  -8.579  -0.618  0.00  0.00    +0.054 C 
ATOM     25  C   UNL     1       1.609  -9.190  -0.911  0.00  0.00    -0.041 A 
ATOM     26  C   UNL     1       1.641 -10.318  -1.723  0.00  0.00    +0.004 A 
ATOM     27  C   UNL     1       2.841 -10.921  -2.038  0.00  0.00    +0.000 A 
ATOM     28  C   UNL     1       4.023 -10.400  -1.545  0.00  0.00    +0.000 A 
ATOM     29  C   UNL     1       3.993  -9.283  -0.737  0.00  0.00    +0.005 A 
ATOM     30  C   UNL     1       2.786  -8.678  -0.413  0.00  0.00    -0.027 A 
ATOM     31  C   UNL     1       2.822  -7.477   0.490  0.00  0.00    +0.143 C 
ENDBRANCH  19  20
ENDBRANCH  18  19
ENDBRANCH  11  18
TORSDOF 4
