REMARK  Name = ZINC58245319
REMARK  7 active torsions:
REMARK  status: ('A' for Active; 'I' for Inactive)
REMARK    1  A    between atoms: C_1  and  C_2
REMARK    2  A    between atoms: C_9  and  N_18
REMARK    3  A    between atoms: C_10  and  C_11
REMARK    4  A    between atoms: C_11  and  C_13
REMARK    5  A    between atoms: C_19  and  C_21
REMARK    6  A    between atoms: C_21  and  C_22
REMARK    7  A    between atoms: C_22  and  N_23
REMARK                            x       y       z     vdW  Elec       q    Type
REMARK                         _______ _______ _______ _____ _____    ______ ____
ROOT
ATOM      1  C   UNL     1       0.093   1.602   0.288  0.00  0.00    +0.008 C 
ATOM      2  C   UNL     1       0.078   0.075   0.200  0.00  0.00    -0.009 C 
ATOM      3  C   UNL     1      -1.369  -0.423   0.173  0.00  0.00    +0.008 C 
ATOM      4  C   UNL     1      -1.400  -1.916  -0.161  0.00  0.00    +0.037 C 
ATOM      5  C   UNL     1      -0.459  -2.648   0.784  0.00  0.00    -0.024 A 
ATOM      6  C   UNL     1       0.498  -1.987   1.471  0.00  0.00    -0.004 A 
ATOM      7  S   UNL     1       1.318  -3.239   2.415  0.00  0.00    -0.077 S 
ATOM      8  C   UNL     1       0.441  -4.585   1.929  0.00  0.00    +0.083 A 
ATOM      9  C   UNL     1      -0.491  -4.077   1.035  0.00  0.00    +0.057 A 
ATOM     10  C   UNL     1       0.789  -0.518   1.425  0.00  0.00    +0.046 C 
ENDROOT
BRANCH   8  11
ATOM     11  N   UNL     1       0.609  -5.902   2.329  0.00  0.00    -0.279 N 
ATOM     12  C   UNL     1       1.642  -6.237   3.127  0.00  0.00    +0.219 C 
ATOM     13  O   UNL     1       2.425  -5.387   3.495  0.00  0.00    -0.275 OA
ATOM     14  H   UNL     1      -0.017  -6.582   2.034  0.00  0.00    +0.155 HD
BRANCH  12  15
ATOM     15  C   UNL     1       1.825  -7.669   3.561  0.00  0.00    +0.115 C 
BRANCH  15  16
ATOM     16  C   UNL     1       3.062  -7.777   4.454  0.00  0.00    +0.125 C 
BRANCH  16  17
ATOM     17  N   UNL     1       3.240  -9.168   4.877  0.00  0.00    -0.242 N 
ATOM     18  C   UNL     1       2.686  -9.663   5.990  0.00  0.00    +0.222 C 
ATOM     19  O   UNL     1       1.989  -9.043   6.763  0.00  0.00    -0.275 OA
ATOM     20  C   UNL     1       3.066 -11.121   6.129  0.00  0.00    +0.105 C 
ATOM     21  C   UNL     1       3.946 -11.385   4.890  0.00  0.00    +0.105 C 
ATOM     22  C   UNL     1       3.965 -10.050   4.178  0.00  0.00    +0.222 C 
ATOM     23  O   UNL     1       4.548  -9.816   3.141  0.00  0.00    -0.275 OA
ENDBRANCH  16  17
ENDBRANCH  15  16
ENDBRANCH  12  15
ENDBRANCH   8  11
BRANCH   9  24
ATOM     24  C   UNL     1      -1.468  -4.948   0.372  0.00  0.00    +0.230 C 
ATOM     25  O   UNL     1      -2.583  -5.085   0.846  0.00  0.00    -0.283 OA
BRANCH  24  26
ATOM     26  C   UNL     1      -1.103  -5.654  -0.862  0.00  0.00    +0.175 A 
ATOM     27  C   UNL     1      -1.940  -6.413  -1.630  0.00  0.00    +0.053 A 
ATOM     28  C   UNL     1      -1.177  -6.893  -2.705  0.00  0.00    +0.042 A 
ATOM     29  C   UNL     1       0.077  -6.414  -2.548  0.00  0.00    +0.196 A 
ATOM     30  O   UNL     1       0.116  -5.663  -1.439  0.00  0.00    -0.460 OA
ENDBRANCH  24  26
ENDBRANCH   9  24
TORSDOF 6
