REMARK  Name = ZINC14977762
REMARK  8 active torsions:
REMARK  status: ('A' for Active; 'I' for Inactive)
REMARK    1  A    between atoms: C_1  and  C_2
REMARK    2  A    between atoms: C_7  and  C_8
REMARK    3  A    between atoms: C_8  and  N_9
REMARK    4  A    between atoms: C_12  and  N_56
REMARK    5  A    between atoms: C_18  and  N_56
REMARK    6  A    between atoms: C_19  and  C_20
REMARK    7  A    between atoms: C_19  and  N_56
REMARK    8  A    between atoms: C_23  and  C_25
REMARK                            x       y       z     vdW  Elec       q    Type
REMARK                         _______ _______ _______ _____ _____    ______ ____
ROOT
ATOM      1  N   UNL     1       1.486   2.324   0.926  0.00  0.00    -0.297 N 
ATOM      2  C   UNL     1       0.691   1.651   1.966  0.00  0.00    +0.106 C 
ATOM      3  C   UNL     1       0.761   0.141   1.736  0.00  0.00    +0.004 C 
ATOM      4  C   UNL     1      -0.309  -0.307   0.756  0.00  0.00    -0.067 C 
ATOM      5  C   UNL     1      -0.102   0.210  -0.655  0.00  0.00    -0.006 C 
ATOM      6  C   UNL     1      -0.271   1.731  -0.706  0.00  0.00    +0.094 C 
ATOM      7  C   UNL     1       1.048   2.373  -0.332  0.00  0.00    +0.216 C 
ATOM      8  O   UNL     1       1.709   2.934  -1.181  0.00  0.00    -0.276 OA
ENDROOT
BRANCH   4  10
ATOM      9  C   UNL     1       1.012  -2.307   0.414  0.00  0.00    -0.095 C 
ATOM     10  N   UNL     1      -0.341  -1.783   0.700  0.00  0.00    +0.383 N 
ATOM     11  H   UNL     1      -0.977  -2.075  -0.052  0.00  0.00    -0.081 HD
BRANCH  10  12
ATOM     12  C   UNL     1      -0.833  -2.328   1.982  0.00  0.00    -0.022 C 
BRANCH  12  13
ATOM     13  C   UNL     1      -1.200  -3.776   1.785  0.00  0.00    +0.033 A 
ATOM     14  C   UNL     1      -0.305  -4.752   2.090  0.00  0.00    +0.068 A 
ATOM     15  S   UNL     1      -1.251  -6.211   1.671  0.00  0.00    -0.075 S 
ATOM     16  C   UNL     1      -2.729  -5.365   1.129  0.00  0.00    +0.115 A 
ATOM     17  N   UNL     1      -2.383  -4.096   1.313  0.00  0.00    -0.245 NA
BRANCH  16  18
ATOM     18  C   UNL     1      -3.991  -5.923   0.617  0.00  0.00    +0.044 A 
ATOM     19  C   UNL     1      -4.340  -7.236   0.425  0.00  0.00    +0.018 A 
ATOM     20  C   UNL     1      -5.593  -7.521  -0.068  0.00  0.00    +0.008 A 
ATOM     21  C   UNL     1      -6.440  -6.498  -0.357  0.00  0.00    +0.046 A 
ATOM     22  S   UNL     1      -5.463  -5.069   0.078  0.00  0.00    -0.095 S 
ENDBRANCH  16  18
ENDBRANCH  12  13
ENDBRANCH  10  12
ENDBRANCH   4  10
BRANCH   1  23
ATOM     23  C   UNL     1       2.767   2.943   1.276  0.00  0.00    +0.143 C 
BRANCH  23  30
ATOM     24  C   UNL     1       3.462   0.933   3.231  0.00  0.00    +0.044 C 
ATOM     25  C   UNL     1       4.219   1.013   1.931  0.00  0.00    -0.046 A 
ATOM     26  C   UNL     1       5.244   0.121   1.671  0.00  0.00    +0.003 A 
ATOM     27  C   UNL     1       5.941   0.198   0.481  0.00  0.00    +0.000 A 
ATOM     28  C   UNL     1       5.612   1.163  -0.453  0.00  0.00    +0.000 A 
ATOM     29  C   UNL     1       4.585   2.051  -0.196  0.00  0.00    +0.005 A 
ATOM     30  C   UNL     1       3.887   1.974   0.995  0.00  0.00    -0.027 A 
ENDBRANCH  23  30
ENDBRANCH   1  23
TORSDOF 6
