REMARK  Name = ZINC41026315
REMARK  8 active torsions:
REMARK  status: ('A' for Active; 'I' for Inactive)
REMARK    1  A    between atoms: C_4  and  N_7
REMARK    2  A    between atoms: C_12  and  N_25
REMARK    3  A    between atoms: N_16  and  C_17
REMARK    4  A    between atoms: C_17  and  C_18
REMARK    5  A    between atoms: C_18  and  C_19
REMARK    6  A    between atoms: C_19  and  N_20
REMARK    7  A    between atoms: N_25  and  C_26
REMARK    8  A    between atoms: C_27  and  C_34
REMARK                            x       y       z     vdW  Elec       q    Type
REMARK                         _______ _______ _______ _____ _____    ______ ____
ROOT
ATOM      1  N   UNL     1       3.623  -0.651  -0.037  0.00  0.00    -0.214 N 
ATOM      2  C   UNL     1       3.885  -1.839   0.585  0.00  0.00    +0.170 A 
ATOM      3  C   UNL     1       5.230  -2.150   0.303  0.00  0.00    +0.079 A 
ATOM      4  C   UNL     1       5.737  -1.105  -0.500  0.00  0.00    +0.148 A 
ATOM      5  N   UNL     1       4.786  -0.236  -0.697  0.00  0.00    -0.172 NA
ATOM      6  C   UNL     1       5.767  -3.341   0.830  0.00  0.00    +0.139 A 
ATOM      7  N   UNL     1       4.982  -4.117   1.568  0.00  0.00    -0.199 NA
ATOM      8  C   UNL     1       3.720  -3.785   1.809  0.00  0.00    +0.219 A 
ATOM      9  N   UNL     1       3.174  -2.678   1.335  0.00  0.00    -0.195 NA
ATOM     10  N   UNL     1       2.945  -4.630   2.585  0.00  0.00    -0.313 N 
ATOM     11  H   UNL     1       2.020  -4.405   2.772  0.00  0.00    +0.149 HD
ENDROOT
BRANCH   1  15
ATOM     12  C   UNL     1      -0.017   1.379   0.010  0.00  0.00    +0.000 A 
ATOM     13  C   UNL     1       1.170   2.089   0.002  0.00  0.00    +0.002 A 
ATOM     14  C   UNL     1       2.377   1.419  -0.013  0.00  0.00    +0.028 A 
ATOM     15  C   UNL     1       2.400   0.031  -0.021  0.00  0.00    +0.068 A 
ATOM     16  C   UNL     1       1.206  -0.680  -0.013  0.00  0.00    +0.028 A 
ATOM     17  C   UNL     1       0.002  -0.004   0.002  0.00  0.00    +0.002 A 
ENDBRANCH   1  15
BRANCH   6  18
ATOM     18  N   UNL     1       7.081  -3.694   0.584  0.00  0.00    -0.293 N 
ATOM     19  H   UNL     1       7.644  -3.119   0.042  0.00  0.00    +0.154 HD
BRANCH  18  20
ATOM     20  C   UNL     1       7.592  -4.868   1.109  0.00  0.00    +0.083 A 
ATOM     21  C   UNL     1       8.872  -5.375   0.974  0.00  0.00    +0.068 A 
ATOM     22  C   UNL     1       9.163  -6.647   1.634  0.00  0.00    -0.023 A 
ATOM     23  C   UNL     1       8.119  -7.169   2.302  0.00  0.00    -0.004 A 
ATOM     24  S   UNL     1       6.804  -6.000   2.064  0.00  0.00    -0.077 S 
ATOM     25  C   UNL     1       8.470  -8.477   2.958  0.00  0.00    +0.043 C 
ATOM     26  C   UNL     1       9.770  -8.929   2.256  0.00  0.00    +0.010 C 
ATOM     27  C   UNL     1      10.360  -7.583   1.788  0.00  0.00    +0.037 C 
BRANCH  21  28
ATOM     28  C   UNL     1       9.895  -4.666   0.200  0.00  0.00    +0.244 C 
ATOM     29  O   UNL     1      10.617  -3.853   0.746  0.00  0.00    -0.270 OA
ATOM     30  N   UNL     1      10.036  -4.914  -1.118  0.00  0.00    -0.325 N 
ATOM     31  H   UNL     1       9.460  -5.562  -1.553  0.00  0.00    +0.145 HD
ATOM     32  H   UNL     1      10.713  -4.445  -1.630  0.00  0.00    +0.145 HD
ENDBRANCH  21  28
ENDBRANCH  18  20
ENDBRANCH   6  18
BRANCH  10  33
ATOM     33  C   UNL     1       3.522  -5.865   3.123  0.00  0.00    +0.106 C 
BRANCH  33  34
ATOM     34  C   UNL     1       2.463  -6.609   3.938  0.00  0.00    +0.040 C 
BRANCH  34  35
ATOM     35  C   UNL     1       3.065  -7.899   4.500  0.00  0.00    +0.124 C 
BRANCH  35  36
ATOM     36  N   UNL     1       2.051  -8.612   5.281  0.00  0.00    -0.338 N 
ATOM     37  C   UNL     1       1.800  -8.460   6.618  0.00  0.00    +0.104 A 
ATOM     38  C   UNL     1       0.793  -9.302   6.923  0.00  0.00    +0.101 A 
ATOM     39  N   UNL     1       0.440  -9.949   5.803  0.00  0.00    -0.352 N 
ATOM     40  C   UNL     1       1.185  -9.537   4.814  0.00  0.00    +0.173 A 
ATOM     41  H   UNL     1      -0.262 -10.615   5.737  0.00  0.00    +0.166 HD
ENDBRANCH  35  36
ENDBRANCH  34  35
ENDBRANCH  33  34
ENDBRANCH  10  33
TORSDOF 8
