REMARK  Name = ZINC61343394
REMARK  3 active torsions:
REMARK  status: ('A' for Active; 'I' for Inactive)
REMARK    1  A    between atoms: C_3  and  C_15
REMARK    2  A    between atoms: C_5  and  N_7
REMARK    3  A    between atoms: C_21  and  C_22
REMARK                            x       y       z     vdW  Elec       q    Type
REMARK                         _______ _______ _______ _____ _____    ______ ____
ROOT
ATOM      1  C   UNL     1       1.197  -0.361  -0.000  0.00  0.00    +0.003 A 
ATOM      2  C   UNL     1       2.407   0.164   0.407  0.00  0.00    +0.013 A 
ATOM      3  C   UNL     1       2.630   1.540   0.335  0.00  0.00    +0.039 A 
ATOM      4  C   UNL     1       1.627   2.381  -0.148  0.00  0.00    +0.041 A 
ATOM      5  C   UNL     1       0.416   1.844  -0.555  0.00  0.00    +0.070 A 
ATOM      6  C   UNL     1       0.203   0.471  -0.480  0.00  0.00    +0.028 A 
ENDROOT
BRANCH   5   7
ATOM      7  N   UNL     1      -0.593   2.682  -1.040  0.00  0.00    -0.193 N 
ATOM      8  C   UNL     1      -1.847   2.575  -0.555  0.00  0.00    +0.272 A 
ATOM      9  O   UNL     1      -2.104   1.750   0.307  0.00  0.00    -0.266 OA
ATOM     10  C   UNL     1      -2.857   3.424  -1.050  0.00  0.00    +0.077 A 
ATOM     11  C   UNL     1      -2.549   4.337  -2.010  0.00  0.00    +0.079 A 
ATOM     12  C   UNL     1      -1.231   4.422  -2.495  0.00  0.00    +0.287 A 
ATOM     13  O   UNL     1      -0.922   5.333  -3.453  0.00  0.00    -0.264 OA
ATOM     14  N   UNL     1      -0.297   3.632  -2.024  0.00  0.00    -0.121 NA
ENDBRANCH   5   7
BRANCH   3  15
ATOM     15  C   UNL     1       3.925   2.106   0.771  0.00  0.00    +0.247 C 
ATOM     16  O   UNL     1       4.900   1.387   0.868  0.00  0.00    -0.270 OA
ATOM     17  N   UNL     1       4.024   3.418   1.062  0.00  0.00    -0.290 N 
ATOM     18  C   UNL     1       2.903   4.374   1.113  0.00  0.00    +0.109 C 
ATOM     19  C   UNL     1       3.389   5.507   2.050  0.00  0.00    +0.021 C 
ATOM     20  C   UNL     1       4.891   5.602   1.671  0.00  0.00    +0.029 C 
ATOM     21  C   UNL     1       5.267   4.132   1.388  0.00  0.00    +0.113 C 
BRANCH  21  22
ATOM     22  C   UNL     1       6.218   4.065   0.220  0.00  0.00    +0.010 A 
ATOM     23  C   UNL     1       7.561   3.879   0.223  0.00  0.00    +0.013 A 
ATOM     24  C   UNL     1       8.235   3.851  -0.984  0.00  0.00    +0.008 A 
ATOM     25  C   UNL     1       7.534   4.011  -2.133  0.00  0.00    +0.045 A 
ATOM     26  S   UNL     1       5.867   4.201  -1.525  0.00  0.00    -0.100 S 
ENDBRANCH  21  22
ENDBRANCH   3  15
TORSDOF 3
