REMARK  Name = ZINC15673626
REMARK  8 active torsions:
REMARK  status: ('A' for Active; 'I' for Inactive)
REMARK    1  A    between atoms: C_4  and  O_7
REMARK    2  A    between atoms: O_7  and  C_8
REMARK    3  A    between atoms: C_8  and  C_9
REMARK    4  A    between atoms: C_11  and  C_14
REMARK    5  A    between atoms: C_14  and  C_15
REMARK    6  A    between atoms: C_20  and  C_22
REMARK    7  A    between atoms: C_22  and  C_23
REMARK    8  A    between atoms: N_28  and  C_31
REMARK                            x       y       z     vdW  Elec       q    Type
REMARK                         _______ _______ _______ _____ _____    ______ ____
ROOT
ATOM      1  C   UNL     1      -1.417  -2.059  -0.118  0.00  0.00    -0.019 C 
ATOM      2  C   UNL     1      -2.851  -2.588  -0.044  0.00  0.00    -0.079 C 
ATOM      3  C   UNL     1      -3.525  -0.733   1.361  0.00  0.00    -0.082 C 
ATOM      4  C   UNL     1      -2.111  -0.148   1.331  0.00  0.00    -0.015 C 
ATOM      5  C   UNL     1      -1.433  -0.534   0.013  0.00  0.00    -0.002 C 
ATOM      6  N   UNL     1      -3.459  -2.202   1.244  0.00  0.00    +0.379 N 
ATOM      7  H   UNL     1      -2.891  -2.577   2.012  0.00  0.00    -0.086 HD
ATOM      8  H   UNL     1      -4.409  -2.588   1.299  0.00  0.00    -0.086 HD
ENDROOT
BRANCH   1   9
ATOM      9  C   UNL     1      -0.592  -2.661   1.022  0.00  0.00    +0.061 C 
BRANCH   9  12
ATOM     10  C   UNL     1       0.296  -6.176   0.576  0.00  0.00    +0.175 A 
ATOM     11  C   UNL     1       0.721  -4.904   0.762  0.00  0.00    +0.074 A 
ATOM     12  C   UNL     1      -0.474  -4.150   0.824  0.00  0.00    +0.084 A 
ATOM     13  N   UNL     1      -1.451  -4.998   0.682  0.00  0.00    -0.083 NA
ATOM     14  O   UNL     1      -1.043  -6.127   0.537  0.00  0.00    -0.356 OA
BRANCH  10  15
ATOM     15  C   UNL     1       1.158  -7.405   0.439  0.00  0.00    +0.306 C 
BRANCH  15  16
ATOM     16  O   UNL     1       1.385  -7.974   1.730  0.00  0.00    -0.484 OA
BRANCH  16  20
ATOM     17  C   UNL     1       3.706 -11.380   1.895  0.00  0.00    +0.000 A 
ATOM     18  C   UNL     1       3.187 -10.841   3.058  0.00  0.00    +0.004 A 
ATOM     19  C   UNL     1       2.410  -9.701   3.006  0.00  0.00    +0.045 A 
ATOM     20  C   UNL     1       2.149  -9.096   1.785  0.00  0.00    +0.121 A 
ATOM     21  C   UNL     1       2.666  -9.641   0.619  0.00  0.00    +0.045 A 
ATOM     22  C   UNL     1       3.448 -10.778   0.677  0.00  0.00    +0.004 A 
ENDBRANCH  16  20
ENDBRANCH  15  16
ENDBRANCH  10  15
ENDBRANCH   9  12
ENDBRANCH   1   9
BRANCH   5  23
ATOM     23  C   UNL     1       0.002  -0.004   0.002  0.00  0.00    +0.099 C 
BRANCH  23  24
ATOM     24  C   UNL     1      -0.018   1.503   0.010  0.00  0.00    +0.216 C 
ATOM     25  O   UNL     1      -1.077   2.095   0.018  0.00  0.00    -0.276 OA
ATOM     26  N   UNL     1       1.139   2.192   0.003  0.00  0.00    -0.298 N 
ATOM     27  C   UNL     1       2.434   1.494  -0.007  0.00  0.00    +0.126 C 
ATOM     28  C   UNL     1       3.284   2.071  -1.151  0.00  0.00    +0.124 C 
ATOM     29  N   UNL     1       3.367   3.530  -1.004  0.00  0.00    -0.327 N 
ATOM     30  C   UNL     1       2.043   4.154  -1.127  0.00  0.00    +0.124 C 
ATOM     31  C   UNL     1       1.142   3.663   0.011  0.00  0.00    +0.126 C 
BRANCH  29  32
ATOM     32  C   UNL     1       4.266   4.076  -1.925  0.00  0.00    +0.030 A 
ATOM     33  C   UNL     1       3.848   5.071  -2.800  0.00  0.00    +0.026 A 
ATOM     34  C   UNL     1       4.739   5.612  -3.706  0.00  0.00    +0.040 A 
ATOM     35  C   UNL     1       6.046   5.155  -3.750  0.00  0.00    +0.124 A 
ATOM     36  C   UNL     1       6.463   4.160  -2.882  0.00  0.00    +0.040 A 
ATOM     37  C   UNL     1       5.577   3.620  -1.971  0.00  0.00    +0.026 A 
ATOM     38  F   UNL     1       6.915   5.683  -4.640  0.00  0.00    -0.205 F 
ENDBRANCH  29  32
ENDBRANCH  23  24
ENDBRANCH   5  23
TORSDOF 8
