REMARK  Name = ZINC38650436
REMARK  11 active torsions:
REMARK  status: ('A' for Active; 'I' for Inactive)
REMARK    1  A    between atoms: C_1  and  C_2
REMARK    2  A    between atoms: C_2  and  O_3
REMARK    3  A    between atoms: O_3  and  C_4
REMARK    4  A    between atoms: C_9  and  C_10
REMARK    5  A    between atoms: C_15  and  O_24
REMARK    6  A    between atoms: C_19  and  N_23
REMARK    7  A    between atoms: C_20  and  C_21
REMARK    8  A    between atoms: O_24  and  C_25
REMARK    9  A    between atoms: C_25  and  C_27
REMARK   10  A    between atoms: C_32  and  O_33
REMARK   11  A    between atoms: O_33  and  C_34
REMARK                            x       y       z     vdW  Elec       q    Type
REMARK                         _______ _______ _______ _____ _____    ______ ____
ROOT
ATOM      1  C   UNL     1      -3.958  -1.442   0.004  0.00  0.00    +0.101 C 
ATOM      2  C   UNL     1      -4.795  -1.718  -1.216  0.00  0.00    +0.008 A 
ATOM      3  C   UNL     1      -4.447  -1.141  -2.425  0.00  0.00    +0.012 A 
ATOM      4  C   UNL     1      -5.204  -1.383  -3.554  0.00  0.00    +0.047 A 
ATOM      5  C   UNL     1      -6.318  -2.207  -3.480  0.00  0.00    +0.135 A 
ATOM      6  C   UNL     1      -6.669  -2.787  -2.272  0.00  0.00    +0.093 A 
ATOM      7  C   UNL     1      -5.907  -2.543  -1.136  0.00  0.00    +0.138 A 
ATOM      8  O   UNL     1      -6.263  -3.117   0.039  0.00  0.00    -0.441 OA
ATOM      9  C   UNL     1      -5.806  -2.614   1.197  0.00  0.00    +0.199 C 
ATOM     10  C   UNL     1      -4.717  -1.814   1.247  0.00  0.00    +0.098 C 
ENDROOT
BRANCH   1  16
ATOM     11  C   UNL     1      -1.458  -1.615  -0.080  0.00  0.00    +0.125 A 
ATOM     12  C   UNL     1      -0.292  -2.364  -0.140  0.00  0.00    +0.046 A 
ATOM     13  C   UNL     1      -0.360  -3.742  -0.192  0.00  0.00    +0.004 A 
ATOM     14  C   UNL     1      -1.589  -4.376  -0.184  0.00  0.00    +0.001 A 
ATOM     15  C   UNL     1      -2.752  -3.632  -0.125  0.00  0.00    +0.008 A 
ATOM     16  C   UNL     1      -2.689  -2.253  -0.067  0.00  0.00    +0.007 A 
BRANCH  11  17
ATOM     17  O   UNL     1      -1.393  -0.258  -0.028  0.00  0.00    -0.492 OA
BRANCH  17  19
ATOM     18  C   UNL     1      -0.220   1.854   0.019  0.00  0.00    +0.048 C 
ATOM     19  C   UNL     1      -0.092   0.331  -0.045  0.00  0.00    +0.225 C 
ENDBRANCH  17  19
ENDBRANCH  11  17
ENDBRANCH   1  16
BRANCH   9  20
ATOM     20  N   UNL     1      -6.462  -2.921   2.363  0.00  0.00    -0.328 N 
ATOM     21  H   UNL     1      -7.244  -3.494   2.342  0.00  0.00    +0.145 HD
ATOM     22  H   UNL     1      -6.143  -2.565   3.207  0.00  0.00    +0.145 HD
ENDBRANCH   9  20
BRANCH  10  23
ATOM     23  C   UNL     1      -4.280  -1.311   2.514  0.00  0.00    +0.101 C 
ATOM     24  N   UNL     1      -3.933  -0.912   3.519  0.00  0.00    -0.191 NA
ENDBRANCH  10  23
BRANCH   5  25
ATOM     25  O   UNL     1      -7.064  -2.446  -4.591  0.00  0.00    -0.422 OA
BRANCH  25  26
ATOM     26  C   UNL     1      -6.518  -3.192  -5.572  0.00  0.00    +0.348 C 
ATOM     27  O   UNL     1      -5.434  -3.716  -5.404  0.00  0.00    -0.244 OA
BRANCH  26  28
ATOM     28  C   UNL     1      -7.235  -3.372  -6.846  0.00  0.00    +0.101 A 
ATOM     29  C   UNL     1      -8.479  -2.767  -7.045  0.00  0.00    +0.018 A 
ATOM     30  C   UNL     1      -9.144  -2.940  -8.239  0.00  0.00    +0.001 A 
ATOM     31  C   UNL     1      -8.586  -3.712  -9.245  0.00  0.00    +0.004 A 
ATOM     32  C   UNL     1      -7.358  -4.316  -9.062  0.00  0.00    +0.046 A 
ATOM     33  C   UNL     1      -6.671  -4.148  -7.869  0.00  0.00    +0.134 A 
BRANCH  33  34
ATOM     34  O   UNL     1      -5.462  -4.736  -7.690  0.00  0.00    -0.494 OA
ATOM     35  C   UNL     1      -4.951  -5.511  -8.777  0.00  0.00    +0.277 C 
ENDBRANCH  33  34
ENDBRANCH  26  28
ENDBRANCH  25  26
ENDBRANCH   5  25
TORSDOF 9
