REMARK  Name = ZINC04277081
REMARK  9 active torsions:
REMARK  status: ('A' for Active; 'I' for Inactive)
REMARK    1  A    between atoms: C_4  and  C_7
REMARK    2  A    between atoms: C_7  and  C_8
REMARK    3  A    between atoms: N_10  and  C_11
REMARK    4  A    between atoms: C_18  and  C_24
REMARK    5  A    between atoms: C_19  and  C_22
REMARK    6  A    between atoms: C_24  and  O_26
REMARK    7  A    between atoms: O_26  and  C_27
REMARK    8  A    between atoms: C_27  and  C_28
REMARK    9  A    between atoms: C_27  and  C_34
REMARK                            x       y       z     vdW  Elec       q    Type
REMARK                         _______ _______ _______ _____ _____    ______ ____
ROOT
ATOM      1  C   UNL     1      -5.646  -0.313   2.034  0.00  0.00    +0.191 C 
ATOM      2  C   UNL     1      -6.824  -0.616   2.954  0.00  0.00    +0.169 C 
ATOM      3  N   UNL     1      -5.989  -1.750   3.460  0.00  0.00    -0.249 N 
ATOM      4  C   UNL     1      -5.051  -1.630   2.503  0.00  0.00    +0.244 C 
ATOM      5  O   UNL     1      -4.106  -2.305   2.154  0.00  0.00    -0.273 OA
ATOM      6  C   UNL     1      -6.178  -2.455   4.636  0.00  0.00    +0.129 C 
ATOM      7  C   UNL     1      -6.887  -1.915   5.645  0.00  0.00    +0.030 C 
ATOM      8  C   UNL     1      -7.619  -0.612   5.661  0.00  0.00    +0.111 C 
ATOM      9  S   UNL     1      -7.029   0.531   4.358  0.00  0.00    -0.131 S 
ENDROOT
BRANCH   1  12
ATOM     10  C   UNL     1      -5.258   0.411  -0.260  0.00  0.00    +0.218 C 
ATOM     11  O   UNL     1      -4.299   1.043   0.132  0.00  0.00    -0.275 OA
ATOM     12  N   UNL     1      -5.998  -0.301   0.612  0.00  0.00    -0.301 N 
ATOM     13  H   UNL     1      -6.765  -0.806   0.298  0.00  0.00    +0.150 HD
BRANCH  10  14
ATOM     14  C   UNL     1      -5.620   0.424  -1.723  0.00  0.00    +0.130 C 
BRANCH  14  18
ATOM     15  C   UNL     1      -2.851   2.874  -3.861  0.00  0.00    +0.000 A 
ATOM     16  C   UNL     1      -2.598   1.525  -3.698  0.00  0.00    +0.000 A 
ATOM     17  C   UNL     1      -3.492   0.733  -3.003  0.00  0.00    +0.004 A 
ATOM     18  C   UNL     1      -4.642   1.289  -2.476  0.00  0.00    -0.039 A 
ATOM     19  C   UNL     1      -4.894   2.639  -2.635  0.00  0.00    +0.004 A 
ATOM     20  C   UNL     1      -3.999   3.431  -3.329  0.00  0.00    +0.000 A 
ENDBRANCH  14  18
ENDBRANCH  10  14
ENDBRANCH   1  12
BRANCH   7  21
ATOM     21  C   UNL     1      -6.946  -2.674   6.838  0.00  0.00    +0.257 C 
ATOM     22  O   UNL     1      -7.463  -2.205   7.830  0.00  0.00    -0.296 OA
ENDBRANCH   7  21
BRANCH   6  23
ATOM     23  C   UNL     1      -5.596  -3.811   4.785  0.00  0.00    +0.355 C 
ATOM     24  O   UNL     1      -4.552  -4.087   4.233  0.00  0.00    -0.243 OA
BRANCH  23  25
ATOM     25  O   UNL     1      -6.228  -4.736   5.534  0.00  0.00    -0.447 OA
BRANCH  25  26
ATOM     26  C   UNL     1      -5.601  -6.041   5.636  0.00  0.00    +0.237 C 
BRANCH  26  27
ATOM     27  C   UNL     1      -4.664  -6.058   6.816  0.00  0.00    -0.003 A 
ATOM     28  C   UNL     1      -5.024  -5.430   7.993  0.00  0.00    +0.007 A 
ATOM     29  C   UNL     1      -4.166  -5.449   9.077  0.00  0.00    +0.000 A 
ATOM     30  C   UNL     1      -2.944  -6.088   8.980  0.00  0.00    +0.000 A 
ATOM     31  C   UNL     1      -2.581  -6.711   7.801  0.00  0.00    +0.000 A 
ATOM     32  C   UNL     1      -3.441  -6.696   6.718  0.00  0.00    +0.007 A 
ENDBRANCH  26  27
BRANCH  26  33
ATOM     33  C   UNL     1      -6.662  -7.095   5.822  0.00  0.00    -0.003 A 
ATOM     34  C   UNL     1      -7.794  -6.812   6.563  0.00  0.00    +0.007 A 
ATOM     35  C   UNL     1      -8.770  -7.777   6.731  0.00  0.00    +0.000 A 
ATOM     36  C   UNL     1      -8.609  -9.028   6.165  0.00  0.00    +0.000 A 
ATOM     37  C   UNL     1      -7.474  -9.312   5.428  0.00  0.00    +0.000 A 
ATOM     38  C   UNL     1      -6.501  -8.346   5.256  0.00  0.00    +0.007 A 
ENDBRANCH  26  33
ENDBRANCH  25  26
ENDBRANCH  23  25
ENDBRANCH   6  23
TORSDOF 9
