REMARK  Name = ZINC36660277
REMARK  13 active torsions:
REMARK  status: ('A' for Active; 'I' for Inactive)
REMARK    1  A    between atoms: C_1  and  C_2
REMARK    2  A    between atoms: C_2  and  O_3
REMARK    3  A    between atoms: O_3  and  C_4
REMARK    4  A    between atoms: N_13  and  C_14
REMARK    5  A    between atoms: C_14  and  C_15
REMARK    6  A    between atoms: C_15  and  C_16
REMARK    7  A    between atoms: C_16  and  N_17
REMARK    8  A    between atoms: N_17  and  C_18
REMARK    9  A    between atoms: N_17  and  C_19
REMARK   10  A    between atoms: C_20  and  C_22
REMARK   11  A    between atoms: N_27  and  S_28
REMARK   12  A    between atoms: S_28  and  C_31
REMARK   13  A    between atoms: C_34  and  C_37
REMARK                            x       y       z     vdW  Elec       q    Type
REMARK                         _______ _______ _______ _____ _____    ______ ____
ROOT
ATOM      1  C   UNL     1       2.135  -1.969   0.473  0.00  0.00    +0.122 A 
ATOM      2  C   UNL     1       1.707  -2.868  -0.500  0.00  0.00    +0.048 A 
ATOM      3  C   UNL     1       1.608  -4.209  -0.240  0.00  0.00    +0.032 A 
ATOM      4  C   UNL     1       1.940  -4.727   1.034  0.00  0.00    +0.081 A 
ATOM      5  C   UNL     1       2.370  -3.787   1.998  0.00  0.00    +0.044 A 
ATOM      6  C   UNL     1       2.473  -2.445   1.731  0.00  0.00    +0.063 A 
ATOM      7  S   UNL     1       2.678  -4.814   3.415  0.00  0.00    -0.052 S 
ATOM      8  C   UNL     1       2.231  -6.373   2.664  0.00  0.00    +0.168 A 
ATOM      9  N   UNL     1       1.897  -6.013   1.448  0.00  0.00    -0.224 NA
ATOM     10  N   UNL     1       2.237  -7.641   3.224  0.00  0.00    -0.249 N 
ATOM     11  C   UNL     1       2.738  -7.829   4.462  0.00  0.00    +0.240 C 
ATOM     12  O   UNL     1       2.818  -8.948   4.920  0.00  0.00    -0.273 OA
ENDROOT
BRANCH  11  13
ATOM     13  C   UNL     1       3.197  -6.646   5.276  0.00  0.00    +0.166 C 
ATOM     14  C   UNL     1       1.974  -5.887   5.834  0.00  0.00    +0.031 C 
ATOM     15  C   UNL     1       1.843  -6.449   7.274  0.00  0.00    +0.019 C 
ATOM     16  C   UNL     1       3.328  -6.652   7.665  0.00  0.00    +0.110 C 
ATOM     17  N   UNL     1       3.989  -7.108   6.425  0.00  0.00    -0.165 NA
BRANCH  17  18
ATOM     18  S   UNL     1       5.386  -7.994   6.341  0.00  0.00    +0.062 S 
ATOM     19  O   UNL     1       5.507  -8.680   7.579  0.00  0.00    -0.153 OA
ATOM     20  O   UNL     1       5.362  -8.672   5.093  0.00  0.00    -0.153 OA
BRANCH  18  21
ATOM     21  C   UNL     1       6.724  -6.849   6.267  0.00  0.00    +0.106 A 
ATOM     22  C   UNL     1       7.176  -6.392   5.043  0.00  0.00    +0.029 A 
ATOM     23  C   UNL     1       8.225  -5.495   4.984  0.00  0.00    +0.005 A 
ATOM     24  C   UNL     1       8.823  -5.054   6.150  0.00  0.00    -0.050 A 
ATOM     25  C   UNL     1       8.371  -5.510   7.374  0.00  0.00    +0.005 A 
ATOM     26  C   UNL     1       7.318  -6.404   7.433  0.00  0.00    +0.029 A 
ATOM     27  C   UNL     1       9.968  -4.076   6.087  0.00  0.00    +0.044 C 
ENDBRANCH  18  21
ENDBRANCH  17  18
ENDBRANCH  11  13
BRANCH   1  28
ATOM     28  O   UNL     1       2.224  -0.642   0.192  0.00  0.00    -0.492 OA
BRANCH  28  30
ATOM     29  C   UNL     1       2.023   1.284  -1.254  0.00  0.00    +0.048 C 
ATOM     30  C   UNL     1       1.858  -0.232  -1.127  0.00  0.00    +0.225 C 
ENDBRANCH  28  30
ENDBRANCH   1  28
BRANCH  10  31
ATOM     31  C   UNL     1       1.700  -8.777   2.472  0.00  0.00    +0.114 C 
BRANCH  31  32
ATOM     32  C   UNL     1       2.810  -9.397   1.622  0.00  0.00    +0.001 C 
BRANCH  32  33
ATOM     33  C   UNL     1       2.272 -10.637   0.905  0.00  0.00    -0.078 C 
BRANCH  33  34
ATOM     34  N   UNL     1       3.338 -11.233   0.089  0.00  0.00    +0.376 N 
ATOM     35  C   UNL     1       2.858 -12.488  -0.503  0.00  0.00    -0.097 C 
ATOM     36  C   UNL     1       3.716 -10.299  -0.981  0.00  0.00    -0.097 C 
ATOM     37  H   UNL     1       4.142 -11.421   0.670  0.00  0.00    -0.083 HD
ENDBRANCH  33  34
ENDBRANCH  32  33
ENDBRANCH  31  32
ENDBRANCH  10  31
TORSDOF 9
