REMARK  Name = ZINC43765169
REMARK  8 active torsions:
REMARK  status: ('A' for Active; 'I' for Inactive)
REMARK    1  A    between atoms: C_1  and  C_2
REMARK    2  A    between atoms: C_2  and  C_4
REMARK    3  A    between atoms: C_2  and  N_16
REMARK    4  A    between atoms: N_12  and  C_13
REMARK    5  A    between atoms: N_16  and  C_17
REMARK    6  A    between atoms: N_16  and  C_18
REMARK    7  A    between atoms: C_18  and  C_19
REMARK    8  A    between atoms: C_24  and  N_25
REMARK                            x       y       z     vdW  Elec       q    Type
REMARK                         _______ _______ _______ _____ _____    ______ ____
ROOT
ATOM      1  N   UNL     1       0.690  -0.478  -1.207  0.00  0.00    +0.387 N 
ATOM      2  C   UNL     1      -0.021   0.009  -2.397  0.00  0.00    -0.095 C 
ATOM      3  H   UNL     1       1.636  -0.129  -1.214  0.00  0.00    -0.081 HD
ENDROOT
BRANCH   1   5
ATOM      4  C   UNL     1      -0.019   1.526   0.010  0.00  0.00    -0.005 C 
ATOM      5  C   UNL     1       0.002  -0.004   0.002  0.00  0.00    -0.004 C 
BRANCH   5   6
ATOM      6  C   UNL     1       0.731  -0.503   1.223  0.00  0.00    +0.101 A 
ATOM      7  N   UNL     1       2.021  -0.470   1.386  0.00  0.00    -0.234 NA
ATOM      8  C   UNL     1       2.342  -0.998   2.595  0.00  0.00    +0.089 A 
ATOM      9  C   UNL     1       3.550  -1.205   3.267  0.00  0.00    +0.030 A 
ATOM     10  C   UNL     1       3.550  -1.775   4.508  0.00  0.00    +0.002 A 
ATOM     11  C   UNL     1       2.360  -2.154   5.113  0.00  0.00    +0.002 A 
ATOM     12  C   UNL     1       1.156  -1.959   4.470  0.00  0.00    +0.028 A 
ATOM     13  C   UNL     1       1.137  -1.380   3.208  0.00  0.00    +0.074 A 
ATOM     14  N   UNL     1       0.135  -1.049   2.317  0.00  0.00    -0.272 N 
BRANCH  14  15
ATOM     15  C   UNL     1      -1.302  -1.252   2.513  0.00  0.00    +0.449 C 
ATOM     16  F   UNL     1      -1.603  -1.171   3.877  0.00  0.00    -0.185 F 
ATOM     17  F   UNL     1      -2.011  -0.264   1.820  0.00  0.00    -0.185 F 
ENDBRANCH  14  15
ENDBRANCH   5   6
ENDBRANCH   1   5
BRANCH   1  18
ATOM     18  C   UNL     1       0.710  -1.947  -1.215  0.00  0.00    -0.041 C 
BRANCH  18  19
ATOM     19  C   UNL     1       1.520  -2.432  -2.389  0.00  0.00    -0.043 A 
ATOM     20  C   UNL     1       0.885  -2.855  -3.540  0.00  0.00    +0.003 A 
ATOM     21  C   UNL     1       1.628  -3.300  -4.618  0.00  0.00    +0.000 A 
ATOM     22  C   UNL     1       3.009  -3.324  -4.547  0.00  0.00    +0.002 A 
ATOM     23  C   UNL     1       3.650  -2.901  -3.400  0.00  0.00    +0.023 A 
ATOM     24  C   UNL     1       2.907  -2.448  -2.317  0.00  0.00    +0.031 A 
BRANCH  24  25
ATOM     25  N   UNL     1       3.553  -2.015  -1.157  0.00  0.00    -0.325 N 
ATOM     26  C   UNL     1       3.871  -2.956  -0.071  0.00  0.00    +0.133 C 
ATOM     27  C   UNL     1       5.350  -2.789   0.296  0.00  0.00    +0.178 C 
ATOM     28  O   UNL     1       5.617  -1.408   0.554  0.00  0.00    -0.377 OA
ATOM     29  C   UNL     1       5.412  -0.552  -0.572  0.00  0.00    +0.178 C 
ATOM     30  C   UNL     1       3.941  -0.606  -0.986  0.00  0.00    +0.133 C 
ENDBRANCH  24  25
ENDBRANCH  18  19
ENDBRANCH   1  18
TORSDOF 6
