REMARK  Name = ZINC49421227
REMARK  4 active torsions:
REMARK  status: ('A' for Active; 'I' for Inactive)
REMARK    1  A    between atoms: C_4  and  C_7
REMARK    2  A    between atoms: C_22  and  C_25
REMARK    3  A    between atoms: N_27  and  C_28
REMARK    4  A    between atoms: C_28  and  C_29
REMARK                            x       y       z     vdW  Elec       q    Type
REMARK                         _______ _______ _______ _____ _____    ______ ____
ROOT
ATOM      1  C   UNL     1       6.817  -4.098   0.973  0.00  0.00    +0.015 A 
ATOM      2  C   UNL     1       7.499  -3.475  -0.022  0.00  0.00    +0.056 A 
ATOM      3  S   UNL     1       6.582  -2.121  -0.401  0.00  0.00    -0.089 S 
ATOM      4  C   UNL     1       5.250  -2.322   0.747  0.00  0.00    +0.103 A 
ATOM      5  C   UNL     1       5.570  -3.506   1.427  0.00  0.00    +0.094 A 
ATOM      6  N   UNL     1       4.700  -3.918   2.388  0.00  0.00    -0.215 NA
ATOM      7  C   UNL     1       3.613  -3.246   2.663  0.00  0.00    +0.199 A 
ATOM      8  N   UNL     1       3.274  -2.095   2.014  0.00  0.00    -0.294 N 
ATOM      9  H   UNL     1       2.458  -1.625   2.247  0.00  0.00    +0.172 HD
ATOM     10  C   UNL     1       4.091  -1.608   1.049  0.00  0.00    +0.267 A 
ATOM     11  O   UNL     1       3.813  -0.581   0.452  0.00  0.00    -0.267 OA
ATOM     12  N   UNL     1       2.778  -3.719   3.645  0.00  0.00    -0.300 N 
ATOM     13  C   UNL     1       3.162  -4.880   4.460  0.00  0.00    +0.108 C 
ATOM     14  C   UNL     1       2.041  -5.922   4.392  0.00  0.00    +0.020 C 
ATOM     15  C   UNL     1       0.719  -5.272   4.808  0.00  0.00    +0.016 C 
ATOM     16  C   UNL     1       0.381  -4.136   3.841  0.00  0.00    +0.092 C 
ATOM     17  C   UNL     1       1.486  -3.070   3.906  0.00  0.00    +0.120 C 
ENDROOT
BRANCH   1  21
ATOM     18  C   UNL     1       8.284  -7.695   2.701  0.00  0.00    +0.000 A 
ATOM     19  C   UNL     1       8.197  -7.577   1.325  0.00  0.00    +0.001 A 
ATOM     20  C   UNL     1       7.722  -6.412   0.759  0.00  0.00    +0.008 A 
ATOM     21  C   UNL     1       7.328  -5.353   1.575  0.00  0.00    -0.015 A 
ATOM     22  C   UNL     1       7.418  -5.478   2.961  0.00  0.00    +0.008 A 
ATOM     23  C   UNL     1       7.895  -6.648   3.516  0.00  0.00    +0.001 A 
ENDBRANCH   1  21
BRANCH  16  24
ATOM     24  C   UNL     1      -0.936  -3.517   4.232  0.00  0.00    +0.218 C 
ATOM     25  O   UNL     1      -0.991  -2.342   4.528  0.00  0.00    -0.275 OA
ATOM     26  N   UNL     1      -2.054  -4.270   4.253  0.00  0.00    -0.313 N 
ATOM     27  H   UNL     1      -2.011  -5.210   4.016  0.00  0.00    +0.149 HD
BRANCH  26  28
ATOM     28  C   UNL     1      -3.335  -3.669   4.633  0.00  0.00    +0.135 C 
BRANCH  28  29
ATOM     29  C   UNL     1      -4.434  -4.732   4.574  0.00  0.00    +0.135 C 
ATOM     30  C   UNL     1      -5.806  -4.083   4.856  0.00  0.00    +0.035 C 
ATOM     31  C   UNL     1      -6.508  -5.160   5.727  0.00  0.00    +0.031 C 
ATOM     32  C   UNL     1      -5.303  -5.732   6.515  0.00  0.00    +0.160 C 
ATOM     33  O   UNL     1      -4.207  -5.722   5.584  0.00  0.00    -0.375 OA
ENDBRANCH  28  29
ENDBRANCH  26  28
ENDBRANCH  16  24
TORSDOF 4
