REMARK  Name = ZINC66908670
REMARK  7 active torsions:
REMARK  status: ('A' for Active; 'I' for Inactive)
REMARK    1  A    between atoms: C_1  and  C_2
REMARK    2  A    between atoms: C_2  and  C_3
REMARK    3  A    between atoms: C_2  and  C_4
REMARK    4  A    between atoms: C_9  and  N_12
REMARK    5  A    between atoms: N_15  and  C_16
REMARK    6  A    between atoms: C_16  and  C_17
REMARK    7  A    between atoms: C_17  and  O_27
REMARK                            x       y       z     vdW  Elec       q    Type
REMARK                         _______ _______ _______ _____ _____    ______ ____
ROOT
ATOM      1  N   UNL     1       5.152   2.280  -2.800  0.00  0.00    -0.296 N 
ATOM      2  C   UNL     1       6.141   2.050  -3.687  0.00  0.00    +0.300 C 
ATOM      3  O   UNL     1       6.614   0.935  -3.795  0.00  0.00    -0.253 OA
ATOM      4  N   UNL     1       6.606   3.056  -4.454  0.00  0.00    -0.296 N 
ATOM      5  H   UNL     1       4.775   3.170  -2.714  0.00  0.00    +0.151 HD
ATOM      6  H   UNL     1       6.229   3.946  -4.368  0.00  0.00    +0.150 HD
ENDROOT
BRANCH   1  12
ATOM      7  C   UNL     1       1.385  -0.499  -0.124  0.00  0.00    +0.218 C 
ATOM      8  O   UNL     1       0.670  -1.267  -0.732  0.00  0.00    -0.275 OA
ATOM      9  N   UNL     1       2.622  -0.223  -0.584  0.00  0.00    -0.301 N 
ATOM     10  C   UNL     1       3.542   0.614   0.199  0.00  0.00    +0.109 C 
ATOM     11  C   UNL     1       4.038   1.762  -0.686  0.00  0.00    +0.041 C 
ATOM     12  C   UNL     1       4.647   1.187  -1.966  0.00  0.00    +0.077 C 
ATOM     13  C   UNL     1       3.578   0.410  -2.738  0.00  0.00    +0.041 C 
ATOM     14  C   UNL     1       3.078  -0.758  -1.874  0.00  0.00    +0.109 C 
BRANCH   7  16
ATOM     15  C   UNL     1       0.350   1.542   0.830  0.00  0.00    +0.017 C 
ATOM     16  C   UNL     1       0.891   0.146   1.145  0.00  0.00    +0.069 C 
ATOM     17  C   UNL     1      -0.223  -0.709   1.751  0.00  0.00    +0.017 C 
ENDBRANCH   7  16
ENDBRANCH   1  12
BRANCH   4  18
ATOM     18  C   UNL     1       7.681   2.806  -5.417  0.00  0.00    +0.145 C 
BRANCH  18  19
ATOM     19  C   UNL     1       8.109   4.128  -6.058  0.00  0.00    +0.107 C 
ATOM     20  C   UNL     1       8.563   5.094  -4.966  0.00  0.00    +0.041 C 
ATOM     21  C   UNL     1       9.189   6.322  -5.636  0.00  0.00    +0.008 C 
ATOM     22  C   UNL     1      10.516   5.904  -6.266  0.00  0.00    +0.035 C 
ATOM     23  C   UNL     1      10.330   4.686  -7.132  0.00  0.00    -0.041 A 
ATOM     24  C   UNL     1       9.226   3.868  -7.034  0.00  0.00    -0.011 A 
ATOM     25  C   UNL     1       9.119   2.756  -7.858  0.00  0.00    +0.007 A 
ATOM     26  C   UNL     1      10.108   2.466  -8.777  0.00  0.00    +0.000 A 
ATOM     27  C   UNL     1      11.214   3.288  -8.877  0.00  0.00    +0.000 A 
ATOM     28  C   UNL     1      11.323   4.393  -8.058  0.00  0.00    +0.004 A 
BRANCH  19  29
ATOM     29  O   UNL     1       6.997   4.695  -6.755  0.00  0.00    -0.382 OA
ATOM     30  H   UNL     1       6.647   4.134  -7.461  0.00  0.00    +0.211 HD
ENDBRANCH  19  29
ENDBRANCH  18  19
ENDBRANCH   4  18
TORSDOF 5
