REMARK  Name = ZINC40947442
REMARK  4 active torsions:
REMARK  status: ('A' for Active; 'I' for Inactive)
REMARK    1  A    between atoms: C_1  and  C_2
REMARK    2  A    between atoms: C_2  and  C_24
REMARK    3  A    between atoms: C_4  and  C_8
REMARK    4  A    between atoms: C_14  and  C_16
REMARK                            x       y       z     vdW  Elec       q    Type
REMARK                         _______ _______ _______ _____ _____    ______ ____
ROOT
ATOM      1  C   UNL     1       3.005  -1.222  -1.826  0.00  0.00    +0.240 C 
ATOM      2  O   UNL     1       2.901  -0.377  -2.689  0.00  0.00    -0.273 OA
ATOM      3  N   UNL     1       4.095  -2.013  -1.785  0.00  0.00    -0.262 N 
ATOM      4  C   UNL     1       5.101  -1.861  -2.734  0.00  0.00    +0.188 A 
ATOM      5  N   UNL     1       5.176  -1.008  -3.736  0.00  0.00    -0.126 NA
ATOM      6  N   UNL     1       6.164  -0.988  -4.524  0.00  0.00    -0.142 NA
ATOM      7  C   UNL     1       7.148  -1.846  -4.339  0.00  0.00    +0.132 A 
ATOM      8  S   UNL     1       6.545  -2.715  -2.898  0.00  0.00    -0.033 S 
ATOM      9  H   UNL     1       4.178  -2.689  -1.094  0.00  0.00    +0.157 HD
ENDROOT
BRANCH   1  13
ATOM     10  C   UNL     1      -1.187   0.360  -1.321  0.00  0.00    +0.043 C 
ATOM     11  C   UNL     1      -0.507  -0.830  -0.642  0.00  0.00    +0.078 C 
ATOM     12  N   UNL     1       0.616  -1.325  -1.461  0.00  0.00    -0.278 N 
ATOM     13  C   UNL     1       1.915  -1.387  -0.798  0.00  0.00    +0.173 C 
ATOM     14  C   UNL     1       2.046  -0.261   0.270  0.00  0.00    +0.103 C 
ATOM     15  S   UNL     1       0.316  -0.304   0.921  0.00  0.00    -0.133 S 
ATOM     16  C   UNL     1       0.452  -1.700  -2.745  0.00  0.00    +0.330 C 
ATOM     17  O   UNL     1       1.411  -2.033  -3.407  0.00  0.00    -0.279 OA
ATOM     18  C   UNL     1      -1.518  -1.946  -0.372  0.00  0.00    +0.043 C 
ENDBRANCH   1  13
BRANCH   7  19
ATOM     19  C   UNL     1       8.423  -2.035  -5.119  0.00  0.00    +0.175 C 
ATOM     20  C   UNL     1       9.413  -0.897  -4.790  0.00  0.00    +0.041 C 
ATOM     21  C   UNL     1      10.050  -0.603  -6.175  0.00  0.00    +0.031 C 
ATOM     22  C   UNL     1       8.847  -0.870  -7.115  0.00  0.00    +0.161 C 
ATOM     23  O   UNL     1       8.147  -1.978  -6.524  0.00  0.00    -0.370 OA
ENDBRANCH   7  19
TORSDOF 2
