REMARK  Name = ZINC08612327
REMARK  6 active torsions:
REMARK  status: ('A' for Active; 'I' for Inactive)
REMARK    1  A    between atoms: C_1  and  C_2
REMARK    2  A    between atoms: C_11  and  C_13
REMARK    3  A    between atoms: N_15  and  C_16
REMARK    4  A    between atoms: C_17  and  C_24
REMARK    5  A    between atoms: N_26  and  C_27
REMARK    6  A    between atoms: C_27  and  C_28
REMARK                            x       y       z     vdW  Elec       q    Type
REMARK                         _______ _______ _______ _____ _____    ______ ____
ROOT
ATOM      1  C   UNL     1       0.966  -8.186  -0.488  0.00  0.00    +0.085 A 
ATOM      2  C   UNL     1       1.003  -8.928  -1.654  0.00  0.00    +0.069 A 
ATOM      3  C   UNL     1       1.359 -10.341  -1.538  0.00  0.00    -0.023 A 
ATOM      4  C   UNL     1       1.609 -10.742  -0.279  0.00  0.00    -0.004 A 
ATOM      5  S   UNL     1       1.385  -9.284   0.709  0.00  0.00    -0.077 S 
ATOM      6  C   UNL     1       1.965 -12.203  -0.216  0.00  0.00    +0.043 C 
ATOM      7  C   UNL     1       1.489 -12.779  -1.568  0.00  0.00    +0.010 C 
ATOM      8  C   UNL     1       1.536 -11.534  -2.475  0.00  0.00    +0.037 C 
ENDROOT
BRANCH   1  11
ATOM      9  C   UNL     1       0.679  -6.277   0.881  0.00  0.00    +0.284 C 
ATOM     10  O   UNL     1       0.965  -6.944   1.855  0.00  0.00    -0.266 OA
ATOM     11  N   UNL     1       0.660  -6.843  -0.342  0.00  0.00    -0.273 N 
ATOM     12  H   UNL     1       0.432  -6.311  -1.119  0.00  0.00    +0.156 HD
BRANCH   9  23
ATOM     13  C   UNL     1      -0.018   1.503   0.010  0.00  0.00    +0.044 C 
ATOM     14  C   UNL     1       0.002  -0.004   0.002  0.00  0.00    -0.050 A 
ATOM     15  C   UNL     1       0.006  -0.688  -1.206  0.00  0.00    +0.007 A 
ATOM     16  C   UNL     1       0.021  -2.065  -1.237  0.00  0.00    +0.047 A 
ATOM     17  C   UNL     1       0.034  -2.785  -0.046  0.00  0.00    +0.139 A 
ATOM     18  C   UNL     1       0.037  -2.084   1.172  0.00  0.00    +0.064 A 
ATOM     19  C   UNL     1       0.023  -0.690   1.185  0.00  0.00    +0.018 A 
ATOM     20  C   UNL     1       0.069  -2.867   2.424  0.00  0.00    +0.193 A 
ATOM     21  O   UNL     1      -0.148  -2.359   3.509  0.00  0.00    -0.287 OA
ATOM     22  C   UNL     1       0.380  -4.300   2.280  0.00  0.00    +0.103 A 
ATOM     23  C   UNL     1       0.352  -4.841   1.037  0.00  0.00    +0.194 A 
ATOM     24  O   UNL     1       0.041  -4.131  -0.056  0.00  0.00    -0.450 OA
ENDBRANCH   9  23
ENDBRANCH   1  11
BRANCH   2  25
ATOM     25  C   UNL     1       0.696  -8.322  -2.954  0.00  0.00    +0.247 C 
ATOM     26  O   UNL     1       1.587  -7.825  -3.619  0.00  0.00    -0.270 OA
ATOM     27  N   UNL     1      -0.571  -8.316  -3.413  0.00  0.00    -0.309 N 
ATOM     28  H   UNL     1      -1.280  -8.713  -2.883  0.00  0.00    +0.149 HD
BRANCH  27  29
ATOM     29  C   UNL     1      -0.877  -7.711  -4.711  0.00  0.00    +0.136 C 
BRANCH  29  30
ATOM     30  C   UNL     1      -2.376  -7.837  -4.992  0.00  0.00    +0.135 C 
ATOM     31  C   UNL     1      -2.689  -7.311  -6.410  0.00  0.00    +0.035 C 
ATOM     32  C   UNL     1      -4.036  -6.569  -6.195  0.00  0.00    +0.031 C 
ATOM     33  C   UNL     1      -3.843  -6.016  -4.761  0.00  0.00    +0.160 C 
ATOM     34  O   UNL     1      -3.114  -7.038  -4.059  0.00  0.00    -0.375 OA
ENDBRANCH  29  30
ENDBRANCH  27  29
ENDBRANCH   2  25
TORSDOF 5
