REMARK  Name = ZINC11913189
REMARK  11 active torsions:
REMARK  status: ('A' for Active; 'I' for Inactive)
REMARK    1  A    between atoms: C_1  and  C_2
REMARK    2  A    between atoms: C_5  and  C_9
REMARK    3  A    between atoms: C_6  and  C_8
REMARK    4  A    between atoms: C_9  and  N_71
REMARK    5  A    between atoms: C_12  and  C_15
REMARK    6  A    between atoms: C_18  and  S_28
REMARK    7  A    between atoms: N_19  and  C_20
REMARK    8  A    between atoms: C_24  and  O_26
REMARK    9  A    between atoms: O_26  and  C_27
REMARK   10  A    between atoms: S_28  and  C_29
REMARK   11  A    between atoms: C_29  and  C_30
REMARK                            x       y       z     vdW  Elec       q    Type
REMARK                         _______ _______ _______ _____ _____    ______ ____
ROOT
ATOM      1  C   UNL     1       1.029   2.606  -7.125  0.00  0.00    +0.142 A 
ATOM      2  N   UNL     1       1.796   2.073  -6.217  0.00  0.00    -0.133 NA
ATOM      3  N   UNL     1       1.130   1.875  -5.136  0.00  0.00    -0.122 NA
ATOM      4  C   UNL     1      -0.111   2.273  -5.295  0.00  0.00    +0.196 A 
ATOM      5  N   UNL     1      -0.217   2.748  -6.574  0.00  0.00    -0.274 N 
ENDROOT
BRANCH   1   8
ATOM      6  C   UNL     1       3.007   4.366  -9.890  0.00  0.00    -0.078 C 
ATOM      7  C   UNL     1       2.558   4.027  -8.467  0.00  0.00    -0.008 C 
ATOM      8  C   UNL     1       1.435   2.988  -8.525  0.00  0.00    +0.054 C 
ATOM      9  C   UNL     1       1.936   1.747  -9.269  0.00  0.00    -0.008 C 
ATOM     10  C   UNL     1       2.404   2.152 -10.669  0.00  0.00    -0.078 C 
ATOM     11  N   UNL     1       3.501   3.135 -10.543  0.00  0.00    +0.382 N 
ATOM     12  H   UNL     1       4.247   2.729  -9.966  0.00  0.00    -0.081 HD
BRANCH  11  13
ATOM     13  C   UNL     1       4.047   3.457 -11.878  0.00  0.00    -0.043 C 
BRANCH  13  18
ATOM     14  C   UNL     1       7.144  -1.049 -13.748  0.00  0.00    +0.044 C 
ATOM     15  C   UNL     1       6.336   0.126 -13.260  0.00  0.00    -0.050 A 
ATOM     16  C   UNL     1       5.099   0.393 -13.817  0.00  0.00    +0.003 A 
ATOM     17  C   UNL     1       4.359   1.471 -13.370  0.00  0.00    +0.002 A 
ATOM     18  C   UNL     1       4.854   2.281 -12.365  0.00  0.00    -0.061 A 
ATOM     19  C   UNL     1       6.093   2.017 -11.812  0.00  0.00    -0.049 A 
ATOM     20  C   UNL     1       6.832   0.936 -12.256  0.00  0.00    +0.007 A 
ATOM     21  C   UNL     1       6.636   2.904 -10.722  0.00  0.00    +0.044 C 
ENDBRANCH  13  18
ENDBRANCH  11  13
ENDBRANCH   1   8
BRANCH   5  22
ATOM     22  C   UNL     1      -1.362   3.272  -7.190  0.00  0.00    +0.054 A 
ATOM     23  C   UNL     1      -1.395   4.606  -7.575  0.00  0.00    +0.026 A 
ATOM     24  C   UNL     1      -2.522   5.123  -8.183  0.00  0.00    +0.006 A 
ATOM     25  C   UNL     1      -3.621   4.315  -8.409  0.00  0.00    +0.046 A 
ATOM     26  C   UNL     1      -3.594   2.982  -8.026  0.00  0.00    +0.122 A 
ATOM     27  C   UNL     1      -2.461   2.458  -7.421  0.00  0.00    +0.072 A 
BRANCH  26  28
ATOM     28  O   UNL     1      -4.674   2.188  -8.249  0.00  0.00    -0.495 OA
ATOM     29  C   UNL     1      -5.803   2.793  -8.882  0.00  0.00    +0.277 C 
ENDBRANCH  26  28
ENDBRANCH   5  22
BRANCH   4  30
ATOM     30  S   UNL     1      -1.397   2.203  -4.093  0.00  0.00    -0.083 S 
BRANCH  30  31
ATOM     31  C   UNL     1      -0.493   1.466  -2.708  0.00  0.00    +0.109 C 
BRANCH  31  32
ATOM     32  C   UNL     1      -1.435   1.303  -1.514  0.00  0.00    +0.129 C 
ATOM     33  C   UNL     1      -0.680   0.673  -0.316  0.00  0.00    +0.034 C 
ATOM     34  C   UNL     1      -1.535   1.185   0.875  0.00  0.00    +0.031 C 
ATOM     35  C   UNL     1      -1.980   2.579   0.383  0.00  0.00    +0.160 C 
ATOM     36  O   UNL     1      -1.873   2.589  -1.046  0.00  0.00    -0.376 OA
ENDBRANCH  31  32
ENDBRANCH  30  31
ENDBRANCH   4  30
TORSDOF 8
