REMARK  Name = ZINC45765832
REMARK  7 active torsions:
REMARK  status: ('A' for Active; 'I' for Inactive)
REMARK    1  A    between atoms: C_3  and  C_27
REMARK    2  A    between atoms: C_4  and  N_8
REMARK    3  A    between atoms: C_9  and  C_11
REMARK    4  A    between atoms: C_11  and  N_12
REMARK    5  A    between atoms: N_12  and  C_13
REMARK    6  A    between atoms: N_12  and  C_19
REMARK    7  A    between atoms: C_13  and  C_14
REMARK                            x       y       z     vdW  Elec       q    Type
REMARK                         _______ _______ _______ _____ _____    ______ ____
ROOT
ATOM      1  C   UNL     1       4.803  -2.592   0.861  0.00  0.00    +0.020 C 
ENDROOT
BRANCH   1   3
ATOM      2  N   UNL     1       3.134  -0.804   1.235  0.00  0.00    -0.285 N 
ATOM      3  C   UNL     1       3.432  -2.118   1.272  0.00  0.00    +0.201 C 
ATOM      4  O   UNL     1       2.598  -2.919   1.635  0.00  0.00    -0.278 OA
ATOM      5  H   UNL     1       3.769  -0.173   0.862  0.00  0.00    +0.155 HD
BRANCH   2   9
ATOM      6  C   UNL     1      -0.515   0.548   2.725  0.00  0.00    +0.002 A 
ATOM      7  C   UNL     1       0.666   1.090   3.196  0.00  0.00    +0.014 A 
ATOM      8  C   UNL     1       1.877   0.644   2.704  0.00  0.00    +0.077 A 
ATOM      9  C   UNL     1       1.908  -0.350   1.736  0.00  0.00    +0.064 A 
ATOM     10  C   UNL     1       0.720  -0.894   1.264  0.00  0.00    +0.063 A 
ATOM     11  C   UNL     1      -0.489  -0.443   1.760  0.00  0.00    +0.022 A 
ATOM     12 CL   UNL     1       0.752  -2.138   0.054  0.00  0.00    -0.082 Cl
BRANCH   8  13
ATOM     13  C   UNL     1       3.164   1.237   3.218  0.00  0.00    +0.419 C 
ATOM     14  F   UNL     1       2.877   2.212   4.179  0.00  0.00    -0.166 F 
ATOM     15  F   UNL     1       3.944   0.229   3.795  0.00  0.00    -0.166 F 
ATOM     16  F   UNL     1       3.865   1.820   2.157  0.00  0.00    -0.166 F 
ENDBRANCH   8  13
ENDBRANCH   2   9
ENDBRANCH   1   3
BRANCH   1  17
ATOM     17  N   UNL     1       4.830  -4.060   0.848  0.00  0.00    +0.391 N 
ATOM     18  H   UNL     1       4.515  -4.410   1.741  0.00  0.00    -0.080 HD
BRANCH  17  19
ATOM     19  C   UNL     1       3.944  -4.557  -0.213  0.00  0.00    -0.045 C 
ATOM     20  C   UNL     1       4.701  -4.558  -1.551  0.00  0.00    +0.009 C 
ATOM     21  C   UNL     1       3.864  -5.370  -2.581  0.00  0.00    +0.164 C 
ATOM     22  S   UNL     1       3.295  -6.768  -1.524  0.00  0.00    -0.033 S 
ATOM     23  O   UNL     1       4.218  -7.842  -1.641  0.00  0.00    -0.174 OA
ATOM     24  O   UNL     1       1.915  -7.003  -1.772  0.00  0.00    -0.174 OA
ATOM     25  C   UNL     1       3.484  -5.994   0.133  0.00  0.00    +0.151 C 
ENDBRANCH  17  19
BRANCH  17  26
ATOM     26  C   UNL     1       6.202  -4.522   0.598  0.00  0.00    -0.035 C 
BRANCH  26  27
ATOM     27  C   UNL     1       6.263  -6.020   0.752  0.00  0.00    -0.027 A 
ATOM     28  C   UNL     1       6.228  -6.979  -0.205  0.00  0.00    +0.009 A 
ATOM     29  C   UNL     1       6.300  -8.307   0.173  0.00  0.00    +0.008 A 
ATOM     30  C   UNL     1       6.404  -8.611   1.490  0.00  0.00    +0.045 A 
ATOM     31  S   UNL     1       6.409  -6.992   2.243  0.00  0.00    -0.103 S 
ENDBRANCH  26  27
ENDBRANCH  17  26
ENDBRANCH   1  17
TORSDOF 7
