REMARK  Name = ZINC09581504
REMARK  15 active torsions:
REMARK  status: ('A' for Active; 'I' for Inactive)
REMARK    1  A    between atoms: C_1  and  C_2
REMARK    2  A    between atoms: C_2  and  C_3
REMARK    3  A    between atoms: C_3  and  C_4
REMARK    4  A    between atoms: C_4  and  C_5
REMARK    5  A    between atoms: C_5  and  O_6
REMARK    6  A    between atoms: O_6  and  C_7
REMARK    7  A    between atoms: C_11  and  C_13
REMARK    8  A    between atoms: C_13  and  N_15
REMARK    9  A    between atoms: N_17  and  C_29
REMARK   10  A    between atoms: C_21  and  S_25
REMARK   11  A    between atoms: S_25  and  N_28
REMARK   12  A    between atoms: C_29  and  C_30
REMARK   13  A    between atoms: C_30  and  C_31
REMARK   14  A    between atoms: C_31  and  O_33
REMARK   15  A    between atoms: O_33  and  C_34
REMARK                            x       y       z     vdW  Elec       q    Type
REMARK                         _______ _______ _______ _____ _____    ______ ____
ROOT
ATOM      1  N   UNL     1       0.002  -0.004   0.002  0.00  0.00    -0.152 NA
ATOM      2  C   UNL     1      -0.016   1.325   0.009  0.00  0.00    +0.167 A 
ATOM      3  N   UNL     1       1.040   2.183   0.004  0.00  0.00    -0.321 N 
ATOM      4  C   UNL     1       0.823   3.548   0.013  0.00  0.00    +0.058 A 
ATOM      5  C   UNL     1       1.774   4.581   0.009  0.00  0.00    +0.029 A 
ATOM      6  C   UNL     1       1.381   5.898   0.020  0.00  0.00    +0.030 A 
ATOM      7  C   UNL     1       0.040   6.247   0.035  0.00  0.00    +0.106 A 
ATOM      8  C   UNL     1      -0.918   5.249   0.039  0.00  0.00    +0.045 A 
ATOM      9  C   UNL     1      -0.526   3.932   0.028  0.00  0.00    +0.041 A 
ATOM     10  S   UNL     1      -1.391   2.381   0.021  0.00  0.00    -0.052 S 
ENDROOT
BRANCH   7  11
ATOM     11  S   UNL     1      -0.439   7.943   0.049  0.00  0.00    +0.056 S 
ATOM     12  O   UNL     1      -1.742   7.992   0.613  0.00  0.00    -0.153 OA
ATOM     13  O   UNL     1       0.655   8.669   0.594  0.00  0.00    -0.153 OA
BRANCH  11  14
ATOM     14  N   UNL     1      -0.587   8.423  -1.529  0.00  0.00    -0.204 NA
ATOM     15  H   UNL     1      -0.414   7.793  -2.246  0.00  0.00    +0.144 HD
ATOM     16  H   UNL     1      -0.846   9.335  -1.736  0.00  0.00    +0.144 HD
ENDBRANCH  11  14
ENDBRANCH   7  11
BRANCH   1  17
ATOM     17  C   UNL     1      -1.146  -0.688   0.009  0.00  0.00    +0.270 C 
ATOM     18  O   UNL     1      -2.210  -0.093   0.023  0.00  0.00    -0.268 OA
BRANCH  17  23
ATOM     19  C   UNL     1      -2.297  -4.269   0.001  0.00  0.00    +0.121 A 
ATOM     20  C   UNL     1      -1.082  -4.941  -0.015  0.00  0.00    +0.046 A 
ATOM     21  C   UNL     1       0.105  -4.233  -0.023  0.00  0.00    +0.004 A 
ATOM     22  C   UNL     1       0.090  -2.852  -0.020  0.00  0.00    +0.013 A 
ATOM     23  C   UNL     1      -1.126  -2.169   0.001  0.00  0.00    +0.042 A 
ATOM     24  C   UNL     1      -2.323  -2.885   0.009  0.00  0.00    +0.058 A 
BRANCH  19  25
ATOM     25  O   UNL     1      -3.461  -4.971   0.007  0.00  0.00    -0.492 OA
BRANCH  25  26
ATOM     26  C   UNL     1      -3.359  -6.396  -0.002  0.00  0.00    +0.229 C 
BRANCH  26  27
ATOM     27  C   UNL     1      -4.762  -7.007   0.008  0.00  0.00    +0.041 C 
BRANCH  27  28
ATOM     28  C   UNL     1      -4.653  -8.534  -0.002  0.00  0.00    +0.003 C 
BRANCH  28  30
ATOM     29  C   UNL     1      -5.947 -10.671  -0.002  0.00  0.00    +0.004 C 
ATOM     30  C   UNL     1      -6.056  -9.145   0.008  0.00  0.00    -0.003 C 
ENDBRANCH  28  30
ENDBRANCH  27  28
ENDBRANCH  26  27
ENDBRANCH  25  26
ENDBRANCH  19  25
ENDBRANCH  17  23
ENDBRANCH   1  17
BRANCH   3  31
ATOM     31  C   UNL     1       2.408   1.659  -0.011  0.00  0.00    +0.135 C 
BRANCH  31  32
ATOM     32  C   UNL     1       2.871   1.485  -1.459  0.00  0.00    +0.142 C 
BRANCH  32  33
ATOM     33  C   UNL     1       4.278   0.947  -1.475  0.00  0.00    +0.309 C 
ATOM     34  O   UNL     1       4.852   0.725  -0.435  0.00  0.00    -0.251 OA
BRANCH  33  35
ATOM     35  O   UNL     1       4.894   0.713  -2.645  0.00  0.00    -0.468 OA
ATOM     36  C   UNL     1       6.250   0.195  -2.584  0.00  0.00    +0.280 C 
ENDBRANCH  33  35
ENDBRANCH  32  33
ENDBRANCH  31  32
ENDBRANCH   3  31
TORSDOF 13
