REMARK  Name = ZINC14545889
REMARK  8 active torsions:
REMARK  status: ('A' for Active; 'I' for Inactive)
REMARK    1  A    between atoms: C_1  and  C_2
REMARK    2  A    between atoms: C_5  and  N_9
REMARK    3  A    between atoms: C_7  and  C_8
REMARK    4  A    between atoms: N_9  and  S_10
REMARK    5  A    between atoms: S_10  and  C_13
REMARK    6  A    between atoms: C_26  and  C_29
REMARK    7  A    between atoms: C_34  and  O_35
REMARK    8  A    between atoms: O_35  and  C_36
REMARK                            x       y       z     vdW  Elec       q    Type
REMARK                         _______ _______ _______ _____ _____    ______ ____
ROOT
ATOM      1  C   UNL     1      -2.382   7.994   2.757  0.00  0.00    +0.109 A 
ATOM      2  C   UNL     1      -2.852   7.630   1.508  0.00  0.00    +0.030 A 
ATOM      3  C   UNL     1      -3.825   6.660   1.389  0.00  0.00    +0.025 A 
ATOM      4  C   UNL     1      -4.341   6.040   2.522  0.00  0.00    +0.031 A 
ATOM      5  C   UNL     1      -3.851   6.404   3.781  0.00  0.00    -0.018 A 
ATOM      6  C   UNL     1      -2.884   7.380   3.890  0.00  0.00    +0.034 A 
ATOM      7  C   UNL     1      -4.393   5.689   4.957  0.00  0.00    +0.049 C 
ATOM      8  C   UNL     1      -4.437   6.312   6.304  0.00  0.00    -0.023 C 
ATOM      9  C   UNL     1      -5.486   5.829   6.960  0.00  0.00    -0.030 C 
ATOM     10  C   UNL     1      -6.255   4.852   6.070  0.00  0.00    +0.033 C 
ATOM     11  C   UNL     1      -5.895   5.380   4.679  0.00  0.00    +0.029 C 
ATOM     12  C   UNL     1      -5.897   4.364   3.551  0.00  0.00    +0.108 C 
ATOM     13  N   UNL     1      -5.340   5.070   2.377  0.00  0.00    -0.336 N 
ATOM     14  H   UNL     1      -5.671   4.856   1.491  0.00  0.00    +0.147 HD
ENDROOT
BRANCH  12  15
ATOM     15  C   UNL     1      -5.030   3.185   3.910  0.00  0.00    +0.015 A 
ATOM     16  C   UNL     1      -3.693   3.178   3.560  0.00  0.00    +0.009 A 
ATOM     17  C   UNL     1      -2.897   2.098   3.890  0.00  0.00    +0.001 A 
ATOM     18  C   UNL     1      -3.435   1.021   4.570  0.00  0.00    +0.004 A 
ATOM     19  C   UNL     1      -4.771   1.023   4.922  0.00  0.00    +0.046 A 
ATOM     20  C   UNL     1      -5.574   2.104   4.587  0.00  0.00    +0.125 A 
BRANCH  20  21
ATOM     21  O   UNL     1      -6.890   2.105   4.927  0.00  0.00    -0.495 OA
ATOM     22  C   UNL     1      -7.380   0.961   5.629  0.00  0.00    +0.277 C 
ENDBRANCH  20  21
ENDBRANCH  12  15
BRANCH   1  23
ATOM     23  S   UNL     1      -1.144   9.239   2.905  0.00  0.00    +0.072 S 
ATOM     24  O   UNL     1      -0.402   8.937   4.079  0.00  0.00    -0.150 OA
ATOM     25  O   UNL     1      -0.533   9.358   1.627  0.00  0.00    -0.150 OA
BRANCH  23  26
ATOM     26  N   UNL     1      -1.923  10.672   3.193  0.00  0.00    -0.216 N 
ATOM     27  H   UNL     1      -1.773  11.147   4.025  0.00  0.00    +0.174 HD
BRANCH  26  32
ATOM     28  C   UNL     1      -5.468  12.804  -0.686  0.00  0.00    +0.044 C 
ATOM     29  C   UNL     1      -4.526  12.237   0.344  0.00  0.00    -0.047 A 
ATOM     30  C   UNL     1      -3.159  12.316   0.147  0.00  0.00    +0.005 A 
ATOM     31  C   UNL     1      -2.293  11.802   1.092  0.00  0.00    +0.025 A 
ATOM     32  C   UNL     1      -2.796  11.196   2.237  0.00  0.00    +0.048 A 
ATOM     33  C   UNL     1      -4.169  11.119   2.432  0.00  0.00    +0.028 A 
ATOM     34  C   UNL     1      -5.030  11.639   1.485  0.00  0.00    -0.046 A 
ATOM     35  C   UNL     1      -6.520  11.555   1.695  0.00  0.00    +0.044 C 
ENDBRANCH  26  32
ENDBRANCH  23  26
ENDBRANCH   1  23
TORSDOF 5
