REMARK  Name = ZINC60391057
REMARK  9 active torsions:
REMARK  status: ('A' for Active; 'I' for Inactive)
REMARK    1  A    between atoms: C_1  and  C_2
REMARK    2  A    between atoms: C_2  and  C_3
REMARK    3  A    between atoms: C_2  and  C_4
REMARK    4  A    between atoms: C_4  and  N_5
REMARK    5  A    between atoms: N_5  and  C_6
REMARK    6  A    between atoms: C_7  and  N_22
REMARK    7  A    between atoms: N_8  and  C_15
REMARK    8  A    between atoms: C_15  and  C_16
REMARK    9  A    between atoms: C_23  and  C_25
REMARK                            x       y       z     vdW  Elec       q    Type
REMARK                         _______ _______ _______ _____ _____    ______ ____
ROOT
ATOM      1  C   UNL     1      -1.412  -3.136   1.006  0.00  0.00    +0.140 A 
ATOM      2  C   UNL     1      -1.408  -4.476   0.674  0.00  0.00    +0.128 A 
ATOM      3  N   UNL     1      -1.395  -5.417   1.677  0.00  0.00    -0.276 N 
ATOM      4  C   UNL     1      -1.385  -5.036   2.967  0.00  0.00    +0.331 A 
ATOM      5  O   UNL     1      -1.374  -5.883   3.840  0.00  0.00    -0.246 OA
ATOM      6  N   UNL     1      -1.389  -3.736   3.310  0.00  0.00    -0.273 N 
ATOM      7  H   UNL     1      -1.382  -3.487   4.248  0.00  0.00    +0.173 HD
ATOM      8  C   UNL     1      -1.397  -2.774   2.367  0.00  0.00    +0.277 A 
ATOM      9  O   UNL     1      -1.395  -1.598   2.689  0.00  0.00    -0.266 OA
ENDROOT
BRANCH   1  10
ATOM     10  N   UNL     1      -1.425  -2.147   0.001  0.00  0.00    -0.257 N 
ATOM     11  C   UNL     1      -0.395  -1.284  -0.109  0.00  0.00    +0.286 C 
ATOM     12  O   UNL     1       0.591  -1.421   0.591  0.00  0.00    -0.266 OA
BRANCH  11  13
ATOM     13  C   UNL     1      -0.463  -0.180  -1.072  0.00  0.00    +0.190 A 
ATOM     14  C   UNL     1       0.543   0.696  -1.361  0.00  0.00    +0.054 A 
ATOM     15  C   UNL     1       0.044   1.578  -2.332  0.00  0.00    +0.042 A 
ATOM     16  C   UNL     1      -1.229   1.207  -2.590  0.00  0.00    +0.196 A 
ATOM     17  O   UNL     1      -1.529   0.143  -1.833  0.00  0.00    -0.458 OA
ENDBRANCH  11  13
BRANCH  10  18
ATOM     18  C   UNL     1      -2.557  -2.058  -0.924  0.00  0.00    +0.117 C 
BRANCH  18  20
ATOM     19  C   UNL     1      -4.658  -0.812  -1.450  0.00  0.00    +0.009 C 
ATOM     20  C   UNL     1      -3.557  -1.021  -0.408  0.00  0.00    +0.001 C 
ATOM     21  C   UNL     1      -4.178  -1.518   0.898  0.00  0.00    +0.009 C 
ENDBRANCH  18  20
ENDBRANCH  10  18
ENDBRANCH   1  10
BRANCH   2  22
ATOM     22  N   UNL     1      -1.417  -4.864  -0.644  0.00  0.00    -0.343 N 
ATOM     23  H   UNL     1      -1.327  -4.201  -1.347  0.00  0.00    +0.144 HD
ATOM     24  H   UNL     1      -1.514  -5.802  -0.873  0.00  0.00    +0.144 HD
ENDBRANCH   2  22
BRANCH   3  25
ATOM     25  C   UNL     1      -1.391  -6.842   1.338  0.00  0.00    +0.163 C 
BRANCH  25  26
ATOM     26  C   UNL     1       0.032  -7.324   1.210  0.00  0.00    -0.028 A 
ATOM     27  C   UNL     1       0.674  -7.263  -0.012  0.00  0.00    +0.005 A 
ATOM     28  C   UNL     1       1.979  -7.705  -0.130  0.00  0.00    +0.000 A 
ATOM     29  C   UNL     1       2.640  -8.207   0.974  0.00  0.00    +0.000 A 
ATOM     30  C   UNL     1       1.998  -8.268   2.197  0.00  0.00    +0.000 A 
ATOM     31  C   UNL     1       0.695  -7.822   2.316  0.00  0.00    +0.005 A 
ENDBRANCH  25  26
ENDBRANCH   3  25
TORSDOF 7
