REMARK  Name = ZINC39766122
REMARK  12 active torsions:
REMARK  status: ('A' for Active; 'I' for Inactive)
REMARK    1  A    between atoms: C_1  and  C_2
REMARK    2  A    between atoms: C_5  and  N_9
REMARK    3  A    between atoms: C_6  and  C_8
REMARK    4  A    between atoms: C_10  and  C_12
REMARK    5  A    between atoms: C_12  and  C_13
REMARK    6  A    between atoms: C_16  and  S_24
REMARK    7  A    between atoms: N_17  and  C_18
REMARK    8  A    between atoms: S_24  and  C_25
REMARK    9  A    between atoms: C_25  and  C_27
REMARK   10  A    between atoms: C_25  and  C_28
REMARK   11  A    between atoms: N_30  and  C_31
REMARK   12  A    between atoms: C_36  and  O_37
REMARK                            x       y       z     vdW  Elec       q    Type
REMARK                         _______ _______ _______ _____ _____    ______ ____
ROOT
ATOM      1  C   UNL     1      -0.221  -6.888  -2.586  0.00  0.00    +0.147 A 
ATOM      2  N   UNL     1      -1.320  -7.071  -3.261  0.00  0.00    -0.133 NA
ATOM      3  N   UNL     1      -1.048  -7.492  -4.444  0.00  0.00    -0.122 NA
ATOM      4  C   UNL     1       0.252  -7.602  -4.592  0.00  0.00    +0.197 A 
ATOM      5  N   UNL     1       0.823  -7.214  -3.411  0.00  0.00    -0.274 N 
ENDROOT
BRANCH   5   6
ATOM      6  C   UNL     1       2.191  -7.165  -3.107  0.00  0.00    +0.050 A 
ATOM      7  C   UNL     1       2.800  -5.947  -2.838  0.00  0.00    +0.026 A 
ATOM      8  C   UNL     1       4.148  -5.901  -2.538  0.00  0.00    +0.002 A 
ATOM      9  C   UNL     1       4.890  -7.067  -2.507  0.00  0.00    +0.000 A 
ATOM     10  C   UNL     1       4.287  -8.281  -2.775  0.00  0.00    +0.002 A 
ATOM     11  C   UNL     1       2.938  -8.334  -3.068  0.00  0.00    +0.026 A 
ENDBRANCH   5   6
BRANCH   1  12
ATOM     12  C   UNL     1      -0.117  -6.401  -1.163  0.00  0.00    +0.172 C 
BRANCH  12  14
ATOM     13  N   UNL     1       0.073  -4.236   0.018  0.00  0.00    -0.285 N 
ATOM     14  C   UNL     1      -0.028  -4.896  -1.153  0.00  0.00    +0.225 C 
ATOM     15  O   UNL     1      -0.048  -4.280  -2.197  0.00  0.00    -0.275 OA
ATOM     16  H   UNL     1       0.158  -4.730   0.848  0.00  0.00    +0.155 HD
BRANCH  13  21
ATOM     17  C   UNL     1      -0.002   1.436   0.088  0.00  0.00    +0.044 C 
ATOM     18  C   UNL     1       0.018  -0.070   0.069  0.00  0.00    -0.050 A 
ATOM     19  C   UNL     1       0.617  -0.740  -0.982  0.00  0.00    +0.005 A 
ATOM     20  C   UNL     1       0.637  -2.120  -1.002  0.00  0.00    +0.024 A 
ATOM     21  C   UNL     1       0.055  -2.837   0.035  0.00  0.00    +0.036 A 
ATOM     22  C   UNL     1      -0.546  -2.162   1.090  0.00  0.00    -0.029 A 
ATOM     23  C   UNL     1      -0.558  -0.781   1.106  0.00  0.00    +0.008 A 
ATOM     24  C   UNL     1      -1.179  -2.935   2.218  0.00  0.00    +0.045 C 
ENDBRANCH  13  21
ENDBRANCH  12  14
ENDBRANCH   1  12
BRANCH   4  25
ATOM     25  S   UNL     1       1.101  -8.140  -6.039  0.00  0.00    -0.073 S 
BRANCH  25  26
ATOM     26  C   UNL     1      -0.229  -8.488  -7.224  0.00  0.00    +0.137 C 
ATOM     27  C   UNL     1      -0.959  -7.188  -7.566  0.00  0.00    +0.029 C 
BRANCH  26  28
ATOM     28  C   UNL     1       0.359  -9.079  -8.479  0.00  0.00    +0.230 C 
ATOM     29  O   UNL     1       1.536  -8.924  -8.729  0.00  0.00    -0.274 OA
ATOM     30  N   UNL     1      -0.422  -9.780  -9.323  0.00  0.00    -0.282 N 
ATOM     31  H   UNL     1      -1.378  -9.837  -9.166  0.00  0.00    +0.155 HD
BRANCH  30  32
ATOM     32  C   UNL     1       0.145 -10.428 -10.429  0.00  0.00    +0.075 A 
ATOM     33  C   UNL     1       1.482 -10.800 -10.407  0.00  0.00    +0.027 A 
ATOM     34  C   UNL     1       2.039 -11.439 -11.498  0.00  0.00    +0.002 A 
ATOM     35  C   UNL     1       1.268 -11.710 -12.613  0.00  0.00    +0.004 A 
ATOM     36  C   UNL     1      -0.065 -11.343 -12.642  0.00  0.00    +0.047 A 
ATOM     37  C   UNL     1      -0.633 -10.707 -11.550  0.00  0.00    +0.138 A 
BRANCH  37  38
ATOM     38  O   UNL     1      -1.945 -10.350 -11.575  0.00  0.00    -0.505 OA
ATOM     39  H   UNL     1      -2.105  -9.465 -11.929  0.00  0.00    +0.292 HD
ENDBRANCH  37  38
ENDBRANCH  30  32
ENDBRANCH  26  28
ENDBRANCH  25  26
ENDBRANCH   4  25
TORSDOF 9
