REMARK  Name = ZINC39914405
REMARK  9 active torsions:
REMARK  status: ('A' for Active; 'I' for Inactive)
REMARK    1  A    between atoms: C_1  and  C_2
REMARK    2  A    between atoms: C_2  and  C_3
REMARK    3  A    between atoms: C_3  and  C_4
REMARK    4  A    between atoms: C_4  and  C_5
REMARK    5  A    between atoms: C_5  and  N_6
REMARK    6  A    between atoms: C_7  and  C_26
REMARK    7  A    between atoms: C_10  and  C_17
REMARK    8  A    between atoms: C_20  and  C_24
REMARK    9  A    between atoms: C_22  and  O_23
REMARK                            x       y       z     vdW  Elec       q    Type
REMARK                         _______ _______ _______ _____ _____    ______ ____
ROOT
ATOM      1  N   UNL     1       1.523  -4.012   2.465  0.00  0.00    -0.285 N 
ATOM      2  C   UNL     1       0.506  -4.890   3.060  0.00  0.00    +0.141 C 
ATOM      3  C   UNL     1       0.965  -6.298   2.795  0.00  0.00    +0.035 A 
ATOM      4  C   UNL     1       0.717  -7.667   2.943  0.00  0.00    +0.102 A 
ATOM      5  N   UNL     1       1.711  -8.312   2.365  0.00  0.00    -0.173 NA
ATOM      6  N   UNL     1       2.561  -7.487   1.867  0.00  0.00    -0.272 N 
ATOM      7  H   UNL     1       3.370  -7.739   1.395  0.00  0.00    +0.189 HD
ATOM      8  C   UNL     1       2.156  -6.204   2.100  0.00  0.00    +0.126 A 
ATOM      9  C   UNL     1       2.472  -4.785   1.906  0.00  0.00    +0.265 C 
ATOM     10  O   UNL     1       3.454  -4.365   1.324  0.00  0.00    -0.268 OA
ENDROOT
BRANCH   4  11
ATOM     11  C   UNL     1      -0.450  -8.279   3.626  0.00  0.00    +0.045 A 
ATOM     12  C   UNL     1      -1.433  -7.471   4.191  0.00  0.00    +0.034 A 
ATOM     13  C   UNL     1      -2.517  -8.045   4.825  0.00  0.00    +0.045 A 
ATOM     14  C   UNL     1      -2.630  -9.424   4.901  0.00  0.00    -0.029 A 
ATOM     15  C   UNL     1      -1.659 -10.234   4.343  0.00  0.00    +0.050 A 
ATOM     16  C   UNL     1      -0.570  -9.669   3.699  0.00  0.00    +0.126 A 
ATOM     17  C   UNL     1      -3.815 -10.042   5.596  0.00  0.00    +0.045 C 
ATOM     18 CL   UNL     1      -3.742  -7.037   5.530  0.00  0.00    -0.083 Cl
BRANCH  16  19
ATOM     19  O   UNL     1       0.382 -10.466   3.146  0.00  0.00    -0.506 OA
ATOM     20  H   UNL     1       1.103 -10.694   3.748  0.00  0.00    +0.292 HD
ENDBRANCH  16  19
ENDBRANCH   4  11
BRANCH   2  21
ATOM     21  C   UNL     1      -0.832  -4.649   2.410  0.00  0.00    -0.022 A 
ATOM     22  C   UNL     1      -0.910  -4.446   1.045  0.00  0.00    +0.008 A 
ATOM     23  C   UNL     1      -2.137  -4.224   0.448  0.00  0.00    +0.038 A 
ATOM     24  C   UNL     1      -3.288  -4.207   1.218  0.00  0.00    +0.123 A 
ATOM     25  C   UNL     1      -3.208  -4.410   2.585  0.00  0.00    +0.038 A 
ATOM     26  C   UNL     1      -1.981  -4.636   3.179  0.00  0.00    +0.008 A 
ATOM     27  F   UNL     1      -4.487  -3.990   0.636  0.00  0.00    -0.205 F 
ENDBRANCH   2  21
BRANCH   1  28
ATOM     28  C   UNL     1       1.503  -2.548   2.473  0.00  0.00    +0.109 C 
BRANCH  28  29
ATOM     29  C   UNL     1       0.763  -2.041   1.233  0.00  0.00    +0.019 C 
BRANCH  29  30
ATOM     30  C   UNL     1       0.742  -0.511   1.242  0.00  0.00    +0.001 C 
BRANCH  30  32
ATOM     31  C   UNL     1      -0.019   1.526   0.010  0.00  0.00    +0.004 C 
ATOM     32  C   UNL     1       0.002  -0.004   0.002  0.00  0.00    -0.003 C 
ENDBRANCH  30  32
ENDBRANCH  29  30
ENDBRANCH  28  29
ENDBRANCH   1  28
TORSDOF 7
