REMARK  Name = ZINC13063720
REMARK  12 active torsions:
REMARK  status: ('A' for Active; 'I' for Inactive)
REMARK    1  A    between atoms: C_1  and  C_2
REMARK    2  A    between atoms: C_2  and  C_3
REMARK    3  A    between atoms: C_10  and  C_15
REMARK    4  A    between atoms: C_15  and  N_75
REMARK    5  A    between atoms: C_16  and  C_17
REMARK    6  A    between atoms: C_16  and  N_75
REMARK    7  A    between atoms: C_20  and  C_23
REMARK    8  A    between atoms: C_24  and  C_26
REMARK    9  A    between atoms: C_24  and  C_28
REMARK   10  A    between atoms: C_24  and  N_75
REMARK   11  A    between atoms: C_26  and  C_27
REMARK   12  A    between atoms: N_32  and  C_33
REMARK                            x       y       z     vdW  Elec       q    Type
REMARK                         _______ _______ _______ _____ _____    ______ ____
ROOT
ATOM      1  N   UNL     1       1.068   3.817   1.419  0.00  0.00    +0.392 N 
ATOM      2  H   UNL     1       1.057   3.455   2.380  0.00  0.00    -0.080 HD
ENDROOT
BRANCH   1   3
ATOM      3  C   UNL     1       1.333   5.270   1.456  0.00  0.00    -0.036 C 
BRANCH   3  11
ATOM      4  C   UNL     1      -0.187   7.385   7.069  0.00  0.00    -0.047 A 
ATOM      5  C   UNL     1      -1.476   7.782   6.742  0.00  0.00    +0.005 A 
ATOM      6  C   UNL     1      -1.960   7.616   5.463  0.00  0.00    +0.026 A 
ATOM      7  C   UNL     1      -1.150   7.042   4.487  0.00  0.00    +0.049 A 
ATOM      8  C   UNL     1       0.157   6.641   4.823  0.00  0.00    -0.001 A 
ATOM      9  C   UNL     1       0.627   6.820   6.128  0.00  0.00    +0.013 A 
ATOM     10  C   UNL     1       0.999   6.033   3.791  0.00  0.00    +0.017 A 
ATOM     11  C   UNL     1       0.491   5.888   2.543  0.00  0.00    +0.001 A 
ATOM     12  C   UNL     1      -0.826   6.307   2.258  0.00  0.00    +0.251 A 
ATOM     13  O   UNL     1      -1.265   6.164   1.130  0.00  0.00    -0.268 OA
ATOM     14  N   UNL     1      -1.609   6.862   3.200  0.00  0.00    -0.322 N 
ATOM     15  H   UNL     1      -2.510   7.140   2.970  0.00  0.00    +0.169 HD
BRANCH   4  17
ATOM     16  C   UNL     1       0.986   8.951   8.593  0.00  0.00    +0.009 C 
ATOM     17  C   UNL     1       0.320   7.579   8.475  0.00  0.00    +0.032 C 
ENDBRANCH   4  17
ENDBRANCH   3  11
ENDBRANCH   1   3
BRANCH   1  18
ATOM     18  C   UNL     1      -0.246   3.559   0.794  0.00  0.00    -0.042 C 
BRANCH  18  19
ATOM     19  C   UNL     1      -0.684   2.161   1.147  0.00  0.00    -0.064 A 
ATOM     20  C   UNL     1      -0.463   1.123   0.261  0.00  0.00    +0.002 A 
ATOM     21  C   UNL     1      -0.860  -0.160   0.587  0.00  0.00    +0.003 A 
ATOM     22  C   UNL     1      -1.487  -0.404   1.795  0.00  0.00    -0.050 A 
ATOM     23  C   UNL     1      -1.712   0.635   2.679  0.00  0.00    +0.003 A 
ATOM     24  C   UNL     1      -1.311   1.917   2.355  0.00  0.00    +0.002 A 
ATOM     25  C   UNL     1      -1.924  -1.802   2.148  0.00  0.00    +0.044 C 
ENDBRANCH  18  19
ENDBRANCH   1  18
BRANCH   1  26
ATOM     26  C   UNL     1       2.132   3.128   0.658  0.00  0.00    +0.003 C 
BRANCH  26  27
ATOM     27  C   UNL     1       2.369   3.818  -0.661  0.00  0.00    +0.138 A 
ATOM     28  N   UNL     1       2.538   5.104  -0.852  0.00  0.00    -0.115 NA
ATOM     29  N   UNL     1       2.713   5.298  -2.114  0.00  0.00    -0.023 NA
ATOM     30  N   UNL     1       2.659   4.170  -2.732  0.00  0.00    -0.044 NA
ATOM     31  N   UNL     1       2.448   3.233  -1.870  0.00  0.00    -0.228 N 
BRANCH  31  32
ATOM     32  C   UNL     1       2.321   1.802  -2.155  0.00  0.00    +0.111 C 
ATOM     33  C   UNL     1       3.608   1.295  -2.808  0.00  0.00    +0.027 C 
ATOM     34  C   UNL     1       3.475  -0.200  -3.105  0.00  0.00    +0.002 C 
ATOM     35  C   UNL     1       2.297  -0.428  -4.055  0.00  0.00    +0.000 C 
ATOM     36  C   UNL     1       1.010   0.079  -3.402  0.00  0.00    +0.002 C 
ATOM     37  C   UNL     1       1.143   1.574  -3.105  0.00  0.00    +0.027 C 
ENDBRANCH  31  32
ENDBRANCH  26  27
BRANCH  26  38
ATOM     38  C   UNL     1       3.420   3.151   1.484  0.00  0.00    -0.011 C 
ATOM     39  C   UNL     1       3.201   2.388   2.792  0.00  0.00    +0.002 C 
ENDBRANCH  26  38
ENDBRANCH   1  26
TORSDOF 9
