REMARK  Name = ZINC06056789
REMARK  4 active torsions:
REMARK  status: ('A' for Active; 'I' for Inactive)
REMARK    1  A    between atoms: C_1  and  N_2
REMARK    2  A    between atoms: N_6  and  N_7
REMARK    3  A    between atoms: N_7  and  C_8
REMARK    4  A    between atoms: C_16  and  N_17
REMARK                            x       y       z     vdW  Elec       q    Type
REMARK                         _______ _______ _______ _____ _____    ______ ____
ROOT
ATOM      1  C   UNL     1      -0.018   1.461   0.010  0.00  0.00    +0.160 C 
ATOM      2  N   UNL     1       0.002  -0.004   0.002  0.00  0.00    -0.208 N 
ATOM      3  C   UNL     1      -1.111  -0.809   0.003  0.00  0.00    +0.143 C 
ATOM      4  N   UNL     1      -2.365  -0.427   0.011  0.00  0.00    -0.384 N 
ATOM      5  C   UNL     1      -0.599  -2.197  -0.008  0.00  0.00    +0.163 C 
ATOM      6  N   UNL     1      -1.300  -3.310  -0.011  0.00  0.00    -0.176 NA
ATOM      7  C   UNL     1       0.870  -2.059  -0.015  0.00  0.00    +0.184 C 
ATOM      8  N   UNL     1       1.154  -0.790  -0.014  0.00  0.00    -0.160 NA
ATOM      9  H   UNL     1      -2.585   0.517   0.018  0.00  0.00    +0.157 HD
ATOM     10  H   UNL     1      -3.074  -1.090   0.011  0.00  0.00    +0.157 HD
ENDROOT
BRANCH   6  11
ATOM     11  N   UNL     1      -0.699  -4.451  -0.021  0.00  0.00    -0.236 N 
ATOM     12  H   UNL     1       0.270  -4.489  -0.026  0.00  0.00    +0.174 HD
BRANCH  11  13
ATOM     13  C   UNL     1      -1.442  -5.632  -0.025  0.00  0.00    +0.068 A 
ATOM     14  C   UNL     1      -2.831  -5.581  -0.024  0.00  0.00    +0.046 A 
ATOM     15  C   UNL     1      -3.564  -6.752  -0.028  0.00  0.00    +0.043 A 
ATOM     16  C   UNL     1      -2.917  -7.976  -0.033  0.00  0.00    +0.021 A 
ATOM     17  C   UNL     1      -1.535  -8.031  -0.034  0.00  0.00    +0.023 A 
ATOM     18  C   UNL     1      -0.796  -6.864  -0.035  0.00  0.00    +0.064 A 
ATOM     19 CL   UNL     1       0.939  -6.934  -0.043  0.00  0.00    -0.082 Cl
ATOM     20 CL   UNL     1      -5.299  -6.689  -0.027  0.00  0.00    -0.083 Cl
ENDBRANCH  11  13
ENDBRANCH   6  11
BRANCH   7  21
ATOM     21  N   UNL     1       1.791  -3.106  -0.025  0.00  0.00    -0.246 NA
ATOM     22  H   UNL     1       2.742  -2.915  -0.029  0.00  0.00    +0.172 HD
ENDBRANCH   7  21
TORSDOF 3
