REMARK  Name = ZINC66046144
REMARK  8 active torsions:
REMARK  status: ('A' for Active; 'I' for Inactive)
REMARK    1  A    between atoms: C_1  and  O_2
REMARK    2  A    between atoms: O_2  and  C_3
REMARK    3  A    between atoms: C_6  and  C_10
REMARK    4  A    between atoms: C_8  and  O_9
REMARK    5  A    between atoms: C_10  and  N_11
REMARK    6  A    between atoms: C_12  and  C_14
REMARK    7  A    between atoms: C_14  and  N_15
REMARK    8  A    between atoms: C_22  and  N_24
REMARK                            x       y       z     vdW  Elec       q    Type
REMARK                         _______ _______ _______ _____ _____    ______ ____
ROOT
ATOM      1  N   UNL     1       3.926  -2.710  -4.085  0.00  0.00    -0.310 N 
ATOM      2  C   UNL     1       4.729  -3.294  -4.996  0.00  0.00    +0.233 C 
ATOM      3  O   UNL     1       4.278  -3.646  -6.066  0.00  0.00    -0.274 OA
ATOM      4  H   UNL     1       4.287  -2.428  -3.230  0.00  0.00    +0.149 HD
ENDROOT
BRANCH   1   5
ATOM      5  C   UNL     1       2.507  -2.501  -4.386  0.00  0.00    +0.139 C 
BRANCH   5   9
ATOM      6  C   UNL     1       0.606  -0.608  -1.056  0.00  0.00    +0.161 A 
ATOM      7  C   UNL     1       1.173   0.159  -2.062  0.00  0.00    +0.050 A 
ATOM      8  C   UNL     1       1.787  -0.456  -3.137  0.00  0.00    +0.009 A 
ATOM      9  C   UNL     1       1.837  -1.836  -3.212  0.00  0.00    -0.027 A 
ATOM     10  C   UNL     1       1.273  -2.606  -2.212  0.00  0.00    +0.054 A 
ATOM     11  C   UNL     1       0.662  -1.996  -1.129  0.00  0.00    +0.159 A 
BRANCH   6  13
ATOM     12  C   UNL     1      -0.017   1.425   0.010  0.00  0.00    +0.277 C 
ATOM     13  O   UNL     1       0.002  -0.004   0.002  0.00  0.00    -0.491 OA
ENDBRANCH   6  13
BRANCH  11  14
ATOM     14  O   UNL     1       0.112  -2.753  -0.142  0.00  0.00    -0.503 OA
ATOM     15  H   UNL     1      -0.816  -2.979  -0.291  0.00  0.00    +0.292 HD
ENDBRANCH  11  14
ENDBRANCH   5   9
ENDBRANCH   1   5
BRANCH   2  16
ATOM     16  C   UNL     1       6.188  -3.509  -4.686  0.00  0.00    +0.217 C 
BRANCH  16  17
ATOM     17  N   UNL     1       6.840  -4.155  -5.828  0.00  0.00    -0.338 N 
ATOM     18  C   UNL     1       7.030  -5.503  -5.964  0.00  0.00    +0.087 A 
ATOM     19  C   UNL     1       7.656  -5.762  -7.123  0.00  0.00    +0.027 A 
ATOM     20  C   UNL     1       7.885  -4.475  -7.784  0.00  0.00    +0.002 A 
ATOM     21  C   UNL     1       7.347  -3.498  -6.926  0.00  0.00    +0.050 A 
ATOM     22  C   UNL     1       7.413  -2.158  -7.294  0.00  0.00    +0.028 A 
ATOM     23  C   UNL     1       7.999  -1.804  -8.490  0.00  0.00    +0.035 A 
ATOM     24  C   UNL     1       8.525  -2.773  -9.334  0.00  0.00    +0.127 A 
ATOM     25  C   UNL     1       8.478  -4.094  -8.989  0.00  0.00    +0.042 A 
BRANCH  24  26
ATOM     26  N   UNL     1       9.150  -2.370 -10.614  0.00  0.00    +0.056 N 
ATOM     27  O   UNL     1       9.200  -1.202 -10.921  0.00  0.00    -0.126 OA
ATOM     28  O   UNL     1       9.610  -3.210 -11.352  0.00  0.00    -0.126 OA
ENDBRANCH  24  26
ENDBRANCH  16  17
ENDBRANCH   2  16
TORSDOF 7
