REMARK  Name = ZINC37581162
REMARK  6 active torsions:
REMARK  status: ('A' for Active; 'I' for Inactive)
REMARK    1  A    between atoms: C_3  and  S_12
REMARK    2  A    between atoms: C_6  and  C_7
REMARK    3  A    between atoms: C_8  and  C_9
REMARK    4  A    between atoms: C_9  and  N_10
REMARK    5  A    between atoms: S_12  and  N_15
REMARK    6  A    between atoms: C_18  and  O_21
REMARK                            x       y       z     vdW  Elec       q    Type
REMARK                         _______ _______ _______ _____ _____    ______ ____
ROOT
ATOM      1  C   UNL     1       1.655  -0.807  -1.172  0.00  0.00    +0.019 A 
ATOM      2  C   UNL     1       2.674   0.117  -1.066  0.00  0.00    +0.031 A 
ATOM      3  C   UNL     1       2.582   1.151  -0.152  0.00  0.00    +0.124 A 
ATOM      4  C   UNL     1       1.468   1.266   0.662  0.00  0.00    +0.068 A 
ATOM      5  C   UNL     1       0.442   0.348   0.566  0.00  0.00    +0.038 A 
ATOM      6  C   UNL     1       0.529  -0.697  -0.355  0.00  0.00    +0.026 A 
ATOM      7 CL   UNL     1       1.363   2.567   1.807  0.00  0.00    -0.081 Cl
ENDROOT
BRANCH   3   8
ATOM      8  S   UNL     1       3.889   2.327  -0.024  0.00  0.00    +0.062 S 
ATOM      9  O   UNL     1       4.857   1.966  -0.999  0.00  0.00    -0.153 OA
ATOM     10  O   UNL     1       3.279   3.610   0.007  0.00  0.00    -0.153 OA
BRANCH   8  11
ATOM     11  N   UNL     1       4.601   2.107   1.455  0.00  0.00    -0.176 NA
ATOM     12  C   UNL     1       4.231   2.952   2.598  0.00  0.00    +0.112 C 
ATOM     13  C   UNL     1       3.828   2.049   3.768  0.00  0.00    +0.048 C 
ATOM     14  C   UNL     1       4.960   1.061   4.058  0.00  0.00    +0.117 C 
ATOM     15  C   UNL     1       5.199   0.181   2.829  0.00  0.00    +0.048 C 
ATOM     16  C   UNL     1       5.612   1.058   1.650  0.00  0.00    +0.112 C 
BRANCH  14  17
ATOM     17  O   UNL     1       4.602   0.239   5.171  0.00  0.00    -0.392 OA
ATOM     18  H   UNL     1       5.274  -0.412   5.411  0.00  0.00    +0.210 HD
ENDBRANCH  14  17
ENDBRANCH   8  11
ENDBRANCH   3   8
BRANCH   6  19
ATOM     19  C   UNL     1      -0.532  -1.653  -0.460  0.00  0.00    -0.068 C 
ATOM     20  C   UNL     1      -1.401  -2.437  -0.546  0.00  0.00    -0.117 C 
BRANCH  20  21
ATOM     21  C   UNL     1      -2.492  -3.420  -0.655  0.00  0.00    +0.005 C 
BRANCH  21  22
ATOM     22  N   UNL     1      -3.551  -3.084   0.306  0.00  0.00    +0.385 N 
ATOM     23  H   UNL     1      -3.174  -3.102   1.242  0.00  0.00    -0.089 HD
ATOM     24  H   UNL     1      -3.908  -2.162   0.105  0.00  0.00    -0.089 HD
ATOM     25  H   UNL     1      -4.299  -3.757   0.232  0.00  0.00    -0.089 HD
ENDBRANCH  21  22
ENDBRANCH  20  21
ENDBRANCH   6  19
TORSDOF 6
