REMARK  Name = ZINC22053328
REMARK  7 active torsions:
REMARK  status: ('A' for Active; 'I' for Inactive)
REMARK    1  A    between atoms: C_3  and  O_12
REMARK    2  A    between atoms: O_12  and  C_13
REMARK    3  A    between atoms: C_15  and  O_28
REMARK    4  A    between atoms: C_17  and  O_27
REMARK    5  A    between atoms: C_19  and  O_26
REMARK    6  A    between atoms: C_21  and  C_24
REMARK    7  A    between atoms: C_24  and  O_25
REMARK                            x       y       z     vdW  Elec       q    Type
REMARK                         _______ _______ _______ _____ _____    ______ ____
ROOT
ATOM      1  C   UNL     1      -1.262  -0.670   0.011  0.00  0.00    +0.339 C 
ATOM      2  C   UNL     1      -1.049  -2.167   0.251  0.00  0.00    +0.214 C 
ATOM      3  C   UNL     1      -0.225  -2.749  -0.902  0.00  0.00    +0.180 C 
ATOM      4  C   UNL     1      -0.947  -2.469  -2.224  0.00  0.00    +0.177 C 
ATOM      5  C   UNL     1      -1.164  -0.960  -2.368  0.00  0.00    +0.179 C 
ATOM      6  O   UNL     1      -1.910  -0.478  -1.248  0.00  0.00    -0.331 OA
ENDROOT
BRANCH   4   7
ATOM      7  O   UNL     1      -2.211  -3.136  -2.228  0.00  0.00    -0.386 OA
ATOM      8  H   UNL     1      -2.875  -3.050  -3.100  0.00  0.00    +0.210 HD
ENDBRANCH   4   7
BRANCH   3   9
ATOM      9  O   UNL     1       1.066  -2.136  -0.924  0.00  0.00    -0.386 OA
ATOM     10  H   UNL     1       1.801  -2.429  -1.688  0.00  0.00    +0.210 HD
ENDBRANCH   3   9
BRANCH   2  11
ATOM     11  O   UNL     1      -2.316  -2.826   0.314  0.00  0.00    -0.383 OA
ATOM     12  H   UNL     1      -2.363  -3.912   0.481  0.00  0.00    +0.210 HD
ENDBRANCH   2  11
BRANCH   1  13
ATOM     13  O   UNL     1       0.002  -0.004   0.002  0.00  0.00    -0.461 OA
BRANCH  13  16
ATOM     14  C   UNL     1      -1.292   3.387   0.032  0.00  0.00    +0.012 A 
ATOM     15  C   UNL     1      -1.242   2.028   0.019  0.00  0.00    +0.046 A 
ATOM     16  C   UNL     1      -0.016   1.355   0.009  0.00  0.00    +0.125 A 
ATOM     17  C   UNL     1       1.163   2.045   0.002  0.00  0.00    +0.054 A 
ATOM     18  C   UNL     1       1.145   3.449   0.009  0.00  0.00    -0.014 A 
ATOM     19  C   UNL     1      -0.099   4.129   0.024  0.00  0.00    -0.017 A 
ATOM     20  C   UNL     1      -0.115   5.535   0.031  0.00  0.00    +0.023 A 
ATOM     21  C   UNL     1       1.060   6.222   0.023  0.00  0.00    +0.018 A 
ATOM     22  C   UNL     1       2.284   5.553   0.008  0.00  0.00    +0.016 A 
ATOM     23  C   UNL     1       2.338   4.193   0.001  0.00  0.00    +0.010 A 
ATOM     24 BR   UNL     1       1.034   8.113   0.033  0.00  0.00    -0.050 Br
ENDBRANCH  13  16
ENDBRANCH   1  13
BRANCH   5  25
ATOM     25  C   UNL     1      -1.938  -0.677  -3.657  0.00  0.00    +0.190 C 
BRANCH  25  26
ATOM     26  O   UNL     1      -2.040   0.735  -3.852  0.00  0.00    -0.392 OA
ATOM     27  H   UNL     1      -2.566   1.132  -4.732  0.00  0.00    +0.210 HD
ENDBRANCH  25  26
ENDBRANCH   5  25
TORSDOF 7
