REMARK  Name = ZINC42956158
REMARK  10 active torsions:
REMARK  status: ('A' for Active; 'I' for Inactive)
REMARK    1  A    between atoms: C_1  and  C_2
REMARK    2  A    between atoms: C_2  and  C_3
REMARK    3  A    between atoms: C_4  and  C_23
REMARK    4  A    between atoms: N_6  and  C_9
REMARK    5  A    between atoms: C_7  and  C_8
REMARK    6  A    between atoms: C_9  and  C_11
REMARK    7  A    between atoms: C_9  and  C_18
REMARK    8  A    between atoms: C_18  and  C_20
REMARK    9  A    between atoms: C_18  and  N_22
REMARK   10  A    between atoms: C_20  and  C_21
REMARK                            x       y       z     vdW  Elec       q    Type
REMARK                         _______ _______ _______ _____ _____    ______ ____
ROOT
ATOM      1  C   UNL     1       3.586  -1.575  -3.070  0.00  0.00    +0.123 C 
ENDROOT
BRANCH   1   5
ATOM      2  C   UNL     1       0.655  -0.691  -1.164  0.00  0.00    -0.004 A 
ATOM      3  C   UNL     1       0.113  -0.811  -2.447  0.00  0.00    +0.063 A 
ATOM      4  N   UNL     1       1.077  -1.136  -3.270  0.00  0.00    -0.175 NA
ATOM      5  N   UNL     1       2.266  -1.233  -2.534  0.00  0.00    -0.262 N 
ATOM      6  C   UNL     1       1.981  -0.950  -1.246  0.00  0.00    +0.040 A 
ATOM      7  C   UNL     1       2.963  -0.930  -0.103  0.00  0.00    +0.065 C 
ATOM      8  C   UNL     1      -1.332  -0.602  -2.819  0.00  0.00    +0.068 C 
BRANCH   2  10
ATOM      9  C   UNL     1      -0.100   1.190   0.265  0.00  0.00    +0.009 C 
ATOM     10  C   UNL     1      -0.102  -0.330   0.088  0.00  0.00    +0.035 C 
ENDBRANCH   2  10
ENDBRANCH   1   5
BRANCH   1  11
ATOM     11  C   UNL     1       3.984  -0.561  -4.111  0.00  0.00    -0.025 A 
ATOM     12  C   UNL     1       3.253  -0.445  -5.278  0.00  0.00    +0.007 A 
ATOM     13  C   UNL     1       3.618   0.486  -6.233  0.00  0.00    +0.015 A 
ATOM     14  C   UNL     1       4.715   1.302  -6.019  0.00  0.00    +0.018 A 
ATOM     15  C   UNL     1       5.446   1.185  -4.851  0.00  0.00    +0.015 A 
ATOM     16  C   UNL     1       5.077   0.258  -3.895  0.00  0.00    +0.007 A 
ATOM     17 BR   UNL     1       5.215   2.575  -7.325  0.00  0.00    -0.050 Br
ENDBRANCH   1  11
BRANCH   1  18
ATOM     18  C   UNL     1       3.532  -2.965  -3.707  0.00  0.00    -0.046 C 
BRANCH  18  19
ATOM     19  N   UNL     1       3.051  -3.939  -2.719  0.00  0.00    +0.382 N 
ATOM     20  H   UNL     1       2.127  -3.676  -2.409  0.00  0.00    -0.090 HD
ATOM     21  H   UNL     1       3.016  -4.856  -3.139  0.00  0.00    -0.090 HD
ATOM     22  H   UNL     1       3.679  -3.955  -1.929  0.00  0.00    -0.090 HD
ENDBRANCH  18  19
BRANCH  18  23
ATOM     23  C   UNL     1       4.932  -3.365  -4.177  0.00  0.00    -0.017 C 
ATOM     24  C   UNL     1       4.856  -4.692  -4.935  0.00  0.00    +0.002 C 
ENDBRANCH  18  23
ENDBRANCH   1  18
TORSDOF 6
