REMARK  Name = ZINC04865441
REMARK  8 active torsions:
REMARK  status: ('A' for Active; 'I' for Inactive)
REMARK    1  A    between atoms: C_1  and  C_2
REMARK    2  A    between atoms: N_5  and  N_6
REMARK    3  A    between atoms: C_7  and  C_9
REMARK    4  A    between atoms: C_12  and  N_15
REMARK    5  A    between atoms: N_15  and  S_16
REMARK    6  A    between atoms: S_16  and  C_19
REMARK    7  A    between atoms: C_25  and  C_27
REMARK    8  A    between atoms: C_25  and  C_28
REMARK                            x       y       z     vdW  Elec       q    Type
REMARK                         _______ _______ _______ _____ _____    ______ ____
ROOT
ATOM      1  C   UNL     1       3.455   3.119  -0.783  0.00  0.00    +0.038 A 
ATOM      2  C   UNL     1       3.419   2.211   0.279  0.00  0.00    +0.015 A 
ATOM      3  C   UNL     1       2.269   1.501   0.537  0.00  0.00    +0.025 A 
ATOM      4  C   UNL     1       1.141   1.686  -0.259  0.00  0.00    +0.048 A 
ATOM      5  C   UNL     1       1.175   2.586  -1.321  0.00  0.00    +0.025 A 
ATOM      6  C   UNL     1       2.321   3.304  -1.580  0.00  0.00    +0.015 A 
ENDROOT
BRANCH   1   8
ATOM      7  N   UNL     1       4.719   4.757  -2.087  0.00  0.00    -0.203 N 
ATOM      8  C   UNL     1       4.686   3.882  -1.062  0.00  0.00    +0.263 C 
ATOM      9  O   UNL     1       5.672   3.720  -0.368  0.00  0.00    -0.268 OA
ATOM     10  H   UNL     1       3.933   4.886  -2.640  0.00  0.00    +0.178 HD
BRANCH   7  15
ATOM     11  C   UNL     1       8.505   8.552  -5.032  0.00  0.00    +0.039 C 
ATOM     12  C   UNL     1       7.234   7.784  -4.770  0.00  0.00    -0.070 C 
ATOM     13  C   UNL     1       7.132   7.104  -3.637  0.00  0.00    +0.024 C 
ATOM     14  C   UNL     1       5.920   6.326  -3.340  0.00  0.00    +0.060 C 
ATOM     15  N   UNL     1       5.888   5.482  -2.352  0.00  0.00    -0.185 NA
ATOM     16  C   UNL     1       4.707   6.547  -4.221  0.00  0.00    +0.063 C 
ATOM     17  C   UNL     1       5.207   6.635  -5.670  0.00  0.00    -0.026 C 
ATOM     18  C   UNL     1       6.146   7.833  -5.801  0.00  0.00    +0.037 C 
ATOM     19  C   UNL     1       5.959   5.353  -6.031  0.00  0.00    +0.011 C 
ATOM     20  C   UNL     1       4.015   6.812  -6.612  0.00  0.00    +0.011 C 
ENDBRANCH   7  15
ENDBRANCH   1   8
BRANCH   4  21
ATOM     21  N   UNL     1      -0.019   0.967   0.005  0.00  0.00    -0.216 N 
ATOM     22  H   UNL     1      -0.271   0.226  -0.568  0.00  0.00    +0.174 HD
BRANCH  21  23
ATOM     23  S   UNL     1      -0.976   1.381   1.292  0.00  0.00    +0.079 S 
ATOM     24  O   UNL     1      -2.093   0.503   1.266  0.00  0.00    -0.149 OA
ATOM     25  O   UNL     1      -0.116   1.488   2.418  0.00  0.00    -0.149 OA
BRANCH  23  26
ATOM     26  C   UNL     1      -1.599   2.999   0.979  0.00  0.00    +0.146 A 
ATOM     27  C   UNL     1      -2.777   3.366   0.418  0.00  0.00    +0.036 A 
ATOM     28  C   UNL     1      -3.059   4.712   0.270  0.00  0.00    +0.010 A 
ATOM     29  C   UNL     1      -2.149   5.624   0.692  0.00  0.00    +0.047 A 
ATOM     30  S   UNL     1      -0.847   4.580   1.326  0.00  0.00    -0.077 S 
ENDBRANCH  23  26
ENDBRANCH  21  23
ENDBRANCH   4  21
TORSDOF 5
