REMARK  Name = ZINC22716367
REMARK  9 active torsions:
REMARK  status: ('A' for Active; 'I' for Inactive)
REMARK    1  A    between atoms: C_1  and  C_2
REMARK    2  A    between atoms: C_9  and  N_14
REMARK    3  A    between atoms: C_10  and  C_11
REMARK    4  A    between atoms: N_14  and  C_15
REMARK    5  A    between atoms: C_15  and  N_17
REMARK    6  A    between atoms: C_18  and  C_20
REMARK    7  A    between atoms: C_23  and  O_26
REMARK    8  A    between atoms: O_26  and  C_27
REMARK    9  A    between atoms: C_27  and  C_28
REMARK                            x       y       z     vdW  Elec       q    Type
REMARK                         _______ _______ _______ _____ _____    ______ ____
ROOT
ATOM      1  C   UNL     1      -3.570  -6.203   0.398  0.00  0.00    +0.141 C 
ATOM      2  S   UNL     1      -4.598  -4.961  -0.179  0.00  0.00    -0.018 S 
ENDROOT
BRANCH   1   3
ATOM      3  N   UNL     1      -4.026  -7.468   0.486  0.00  0.00    -0.264 N 
ATOM      4  C   UNL     1      -5.291  -7.756   0.120  0.00  0.00    +0.250 C 
ATOM      5  O   UNL     1      -6.021  -6.874  -0.290  0.00  0.00    -0.270 OA
ATOM      6  H   UNL     1      -3.366  -8.267   0.857  0.00  0.00    +0.157 HD
BRANCH   4   7
ATOM      7  C   UNL     1      -5.790  -9.141   0.217  0.00  0.00    +0.037 A 
ATOM      8  C   UNL     1      -4.951 -10.157   0.682  0.00  0.00    +0.016 A 
ATOM      9  C   UNL     1      -5.423 -11.447   0.776  0.00  0.00    +0.046 A 
ATOM     10  C   UNL     1      -6.728 -11.742   0.398  0.00  0.00    +0.121 A 
ATOM     11  C   UNL     1      -7.564 -10.735  -0.071  0.00  0.00    +0.046 A 
ATOM     12  C   UNL     1      -7.102  -9.441  -0.162  0.00  0.00    +0.016 A 
BRANCH  10  13
ATOM     13  O   UNL     1      -7.186 -13.016   0.486  0.00  0.00    -0.487 OA
BRANCH  13  14
ATOM     14  C   UNL     1      -6.275 -14.002   0.976  0.00  0.00    +0.264 C 
BRANCH  14  15
ATOM     15  C   UNL     1      -6.955 -15.346   1.004  0.00  0.00    -0.010 A 
ATOM     16  C   UNL     1      -7.635 -15.753   2.137  0.00  0.00    +0.007 A 
ATOM     17  C   UNL     1      -8.263 -16.984   2.161  0.00  0.00    +0.000 A 
ATOM     18  C   UNL     1      -8.204 -17.812   1.055  0.00  0.00    +0.000 A 
ATOM     19  C   UNL     1      -7.520 -17.407  -0.076  0.00  0.00    +0.000 A 
ATOM     20  C   UNL     1      -6.896 -16.174  -0.102  0.00  0.00    +0.007 A 
ENDBRANCH  14  15
ENDBRANCH  13  14
ENDBRANCH  10  13
ENDBRANCH   4   7
ENDBRANCH   1   3
BRANCH   1  21
ATOM     21  N   UNL     1      -2.305  -5.916   0.764  0.00  0.00    -0.291 N 
ATOM     22  H   UNL     1      -1.645  -6.714   1.134  0.00  0.00    +0.154 HD
BRANCH  21  30
ATOM     23  C   UNL     1      -0.019   1.526   0.010  0.00  0.00    +0.008 C 
ATOM     24  C   UNL     1       0.002  -0.004   0.002  0.00  0.00    -0.009 C 
ATOM     25  C   UNL     1       0.742  -0.514   1.242  0.00  0.00    +0.008 C 
ATOM     26  C   UNL     1       0.984  -2.020   1.121  0.00  0.00    +0.037 C 
ATOM     27  C   UNL     1      -0.340  -2.706   0.809  0.00  0.00    -0.023 A 
ATOM     28  C   UNL     1      -1.390  -2.006   0.327  0.00  0.00    -0.004 A 
ATOM     29  S   UNL     1      -2.678  -3.203   0.125  0.00  0.00    -0.077 S 
ATOM     30  C   UNL     1      -1.837  -4.615   0.673  0.00  0.00    +0.084 A 
ATOM     31  C   UNL     1      -0.579  -4.127   0.999  0.00  0.00    +0.068 A 
ATOM     32  C   UNL     1      -1.437  -0.538   0.030  0.00  0.00    +0.046 C 
BRANCH  31  33
ATOM     33  C   UNL     1       0.469  -5.011   1.516  0.00  0.00    +0.244 C 
ATOM     34  O   UNL     1       0.577  -5.192   2.715  0.00  0.00    -0.270 OA
ATOM     35  N   UNL     1       1.314  -5.625   0.663  0.00  0.00    -0.325 N 
ATOM     36  H   UNL     1       2.101  -6.288   1.051  0.00  0.00    +0.145 HD
ATOM     37  H   UNL     1       1.217  -5.461  -0.420  0.00  0.00    +0.145 HD
ENDBRANCH  31  33
ENDBRANCH  21  30
ENDBRANCH   1  21
TORSDOF 8
