REMARK  Name = ZINC27387221
REMARK  4 active torsions:
REMARK  status: ('A' for Active; 'I' for Inactive)
REMARK    1  A    between atoms: C_8  and  C_12
REMARK    2  A    between atoms: N_14  and  C_15
REMARK    3  A    between atoms: C_20  and  S_21
REMARK    4  A    between atoms: S_21  and  C_22
REMARK                            x       y       z     vdW  Elec       q    Type
REMARK                         _______ _______ _______ _____ _____    ______ ____
ROOT
ATOM      1  C   UNL     1       2.620  -4.182   0.292  0.00  0.00    +0.255 C 
ATOM      2  O   UNL     1       1.637  -4.881   0.128  0.00  0.00    -0.270 OA
ATOM      3  N   UNL     1       3.825  -4.750   0.492  0.00  0.00    -0.280 N 
ATOM      4  H   UNL     1       4.620  -4.197   0.542  0.00  0.00    +0.155 HD
ENDROOT
BRANCH   1  12
ATOM      5  C   UNL     1      -0.023   1.360   0.058  0.00  0.00    +0.001 A 
ATOM      6  C   UNL     1       1.161   2.084   0.058  0.00  0.00    +0.004 A 
ATOM      7  C   UNL     1       2.380   1.438   0.026  0.00  0.00    +0.047 A 
ATOM      8  C   UNL     1       2.425   0.050   0.001  0.00  0.00    +0.139 A 
ATOM      9  C   UNL     1       1.224  -0.683   0.029  0.00  0.00    +0.018 A 
ATOM     10  C   UNL     1      -0.003  -0.005   0.038  0.00  0.00    +0.011 A 
ATOM     11  C   UNL     1       1.263  -2.101   0.067  0.00  0.00    +0.031 A 
ATOM     12  C   UNL     1       2.491  -2.715   0.272  0.00  0.00    +0.122 A 
ATOM     13  C   UNL     1       3.662  -1.841   0.468  0.00  0.00    +0.350 A 
ATOM     14  O   UNL     1       4.639  -2.226   1.083  0.00  0.00    -0.244 OA
ATOM     15  O   UNL     1       3.614  -0.596  -0.059  0.00  0.00    -0.422 OA
ENDBRANCH   1  12
BRANCH   3  16
ATOM     16  C   UNL     1       3.930  -6.140   0.628  0.00  0.00    +0.047 A 
ATOM     17  C   UNL     1       2.843  -6.880   1.068  0.00  0.00    +0.024 A 
ATOM     18  C   UNL     1       2.949  -8.252   1.201  0.00  0.00    +0.002 A 
ATOM     19  C   UNL     1       4.137  -8.891   0.897  0.00  0.00    +0.001 A 
ATOM     20  C   UNL     1       5.226  -8.162   0.459  0.00  0.00    +0.017 A 
ATOM     21  C   UNL     1       5.127  -6.786   0.316  0.00  0.00    +0.034 A 
BRANCH  21  22
ATOM     22  S   UNL     1       6.512  -5.854  -0.250  0.00  0.00    -0.054 S 
BRANCH  22  23
ATOM     23  C   UNL     1       7.800  -7.103  -0.518  0.00  0.00    +0.404 C 
ATOM     24  F   UNL     1       8.066  -7.764   0.686  0.00  0.00    -0.197 F 
ATOM     25  F   UNL     1       7.362  -8.027  -1.472  0.00  0.00    -0.197 F 
ENDBRANCH  22  23
ENDBRANCH  21  22
ENDBRANCH   3  16
TORSDOF 4
