REMARK  Name = ZINC65301082
REMARK  8 active torsions:
REMARK  status: ('A' for Active; 'I' for Inactive)
REMARK    1  A    between atoms: C_1  and  C_2
REMARK    2  A    between atoms: C_2  and  C_3
REMARK    3  A    between atoms: C_6  and  C_9
REMARK    4  A    between atoms: C_9  and  N_10
REMARK    5  A    between atoms: C_11  and  C_13
REMARK    6  A    between atoms: N_16  and  C_19
REMARK    7  A    between atoms: C_20  and  C_29
REMARK    8  A    between atoms: C_25  and  C_28
REMARK                            x       y       z     vdW  Elec       q    Type
REMARK                         _______ _______ _______ _____ _____    ______ ____
ROOT
ATOM      1  C   UNL     1      -9.011  -0.500   0.141  0.00  0.00    +0.078 C 
ATOM      2  C   UNL     1      -8.705   0.129   1.503  0.00  0.00    +0.031 C 
ATOM      3  C   UNL     1      -9.395   1.494   1.597  0.00  0.00    +0.106 C 
ATOM      4  N   UNL     1     -10.827   1.320   1.321  0.00  0.00    -0.329 N 
ATOM      5  C   UNL     1     -11.230   0.645   0.080  0.00  0.00    +0.106 C 
ATOM      6  C   UNL     1     -10.520  -0.710   0.002  0.00  0.00    +0.031 C 
ENDROOT
BRANCH   4   7
ATOM      7  C   UNL     1     -11.775   1.781   2.210  0.00  0.00    +0.055 A 
ATOM      8  C   UNL     1     -12.130   1.026   3.337  0.00  0.00    +0.074 A 
ATOM      9  C   UNL     1     -13.095   1.512   4.228  0.00  0.00    +0.098 A 
ATOM     10  N   UNL     1     -13.675   2.674   4.017  0.00  0.00    -0.353 N 
ATOM     11  C   UNL     1     -13.374   3.417   2.972  0.00  0.00    +0.107 A 
ATOM     12  C   UNL     1     -12.412   3.034   2.009  0.00  0.00    +0.050 A 
ATOM     13  C   UNL     1     -12.252   3.986   0.988  0.00  0.00    +0.058 A 
ATOM     14  N   UNL     1     -12.943   5.085   0.992  0.00  0.00    -0.213 NA
ATOM     15  S   UNL     1     -13.915   4.990   2.353  0.00  0.00    +0.030 S 
ATOM     16  C   UNL     1     -11.267   3.729  -0.123  0.00  0.00    +0.067 C 
ATOM     17  H   UNL     1     -14.341   2.991   4.646  0.00  0.00    +0.166 HD
BRANCH   8  18
ATOM     18  C   UNL     1     -11.489  -0.276   3.583  0.00  0.00    +0.250 C 
ATOM     19  O   UNL     1     -11.529  -1.144   2.732  0.00  0.00    -0.270 OA
ATOM     20  N   UNL     1     -10.858  -0.506   4.752  0.00  0.00    -0.297 N 
ATOM     21  C   UNL     1     -10.663   0.476   5.829  0.00  0.00    +0.108 C 
ATOM     22  C   UNL     1      -9.871  -0.226   6.952  0.00  0.00    +0.020 C 
ATOM     23  C   UNL     1      -9.174  -1.395   6.207  0.00  0.00    +0.020 C 
ATOM     24  C   UNL     1     -10.255  -1.786   5.165  0.00  0.00    +0.108 C 
ENDBRANCH   8  18
ENDBRANCH   4   7
BRANCH   1  26
ATOM     25  N   UNL     1      -6.963  -1.887   0.125  0.00  0.00    -0.311 N 
ATOM     26  C   UNL     1      -8.306  -1.827   0.032  0.00  0.00    +0.216 C 
ATOM     27  O   UNL     1      -8.948  -2.842  -0.141  0.00  0.00    -0.276 OA
ATOM     28  H   UNL     1      -6.450  -1.076   0.263  0.00  0.00    +0.149 HD
BRANCH  25  29
ATOM     29  C   UNL     1      -6.278  -3.178   0.018  0.00  0.00    +0.139 C 
BRANCH  29  33
ATOM     30  C   UNL     1      -2.064  -2.593   0.406  0.00  0.00    -0.048 A 
ATOM     31  C   UNL     1      -2.835  -2.832   1.529  0.00  0.00    +0.004 A 
ATOM     32  C   UNL     1      -4.199  -3.021   1.403  0.00  0.00    +0.005 A 
ATOM     33  C   UNL     1      -4.792  -2.971   0.155  0.00  0.00    -0.030 A 
ATOM     34  C   UNL     1      -4.021  -2.731  -0.967  0.00  0.00    +0.005 A 
ATOM     35  C   UNL     1      -2.658  -2.537  -0.841  0.00  0.00    +0.004 A 
BRANCH  30  37
ATOM     36  C   UNL     1      -0.287  -0.899   0.753  0.00  0.00    +0.009 C 
ATOM     37  C   UNL     1      -0.578  -2.386   0.543  0.00  0.00    +0.032 C 
ENDBRANCH  30  37
ENDBRANCH  29  33
ENDBRANCH  25  29
ENDBRANCH   1  26
TORSDOF 6
