REMARK  Name = ZINC22427351
REMARK  11 active torsions:
REMARK  status: ('A' for Active; 'I' for Inactive)
REMARK    1  A    between atoms: C_1  and  C_2
REMARK    2  A    between atoms: C_2  and  C_3
REMARK    3  A    between atoms: C_3  and  C_5
REMARK    4  A    between atoms: C_3  and  N_13
REMARK    5  A    between atoms: C_8  and  C_12
REMARK    6  A    between atoms: C_9  and  C_11
REMARK    7  A    between atoms: C_14  and  C_16
REMARK    8  A    between atoms: C_16  and  N_17
REMARK    9  A    between atoms: N_17  and  C_18
REMARK   10  A    between atoms: N_17  and  S_25
REMARK   11  A    between atoms: S_25  and  C_28
REMARK                            x       y       z     vdW  Elec       q    Type
REMARK                         _______ _______ _______ _____ _____    ______ ____
ROOT
ATOM      1  N   UNL     1       4.270  -1.193  -1.633  0.00  0.00    -0.194 N 
ENDROOT
BRANCH   1   2
ATOM      2  C   UNL     1       5.092  -0.342  -2.376  0.00  0.00    +0.055 A 
ATOM      3  C   UNL     1       5.715  -0.806  -3.528  0.00  0.00    +0.025 A 
ATOM      4  C   UNL     1       6.526   0.037  -4.261  0.00  0.00    +0.005 A 
ATOM      5  C   UNL     1       6.720   1.343  -3.851  0.00  0.00    +0.038 A 
ATOM      6  C   UNL     1       6.101   1.810  -2.704  0.00  0.00    +0.125 A 
ATOM      7  C   UNL     1       5.283   0.972  -1.968  0.00  0.00    +0.063 A 
ATOM      8  F   UNL     1       6.292   3.087  -2.306  0.00  0.00    -0.205 F 
ENDBRANCH   1   2
BRANCH   1   9
ATOM      9  S   UNL     1       4.049  -0.925  -0.014  0.00  0.00    +0.075 S 
ATOM     10  O   UNL     1       5.180  -0.190   0.434  0.00  0.00    -0.150 OA
ATOM     11  O   UNL     1       3.676  -2.171   0.556  0.00  0.00    -0.150 OA
BRANCH   9  12
ATOM     12  C   UNL     1       2.657   0.142   0.152  0.00  0.00    +0.112 A 
ATOM     13  C   UNL     1       1.384  -0.392   0.229  0.00  0.00    +0.032 A 
ATOM     14  C   UNL     1       0.289   0.442   0.358  0.00  0.00    +0.051 A 
ATOM     15  C   UNL     1       0.465   1.817   0.410  0.00  0.00    +0.162 A 
ATOM     16  C   UNL     1       1.745   2.353   0.335  0.00  0.00    +0.164 A 
ATOM     17  C   UNL     1       2.839   1.511   0.205  0.00  0.00    +0.078 A 
ATOM     18  O   UNL     1       1.941   3.699   0.393  0.00  0.00    -0.485 OA
ATOM     19  C   UNL     1       0.799   4.527   0.147  0.00  0.00    +0.270 C 
ATOM     20  C   UNL     1      -0.381   3.971   0.957  0.00  0.00    +0.270 C 
ATOM     21  O   UNL     1      -0.623   2.626   0.528  0.00  0.00    -0.485 OA
ENDBRANCH   9  12
ENDBRANCH   1   9
BRANCH   1  22
ATOM     22  C   UNL     1       3.604  -2.322  -2.287  0.00  0.00    +0.227 C 
BRANCH  22  24
ATOM     23  N   UNL     1       1.527  -2.727  -3.566  0.00  0.00    -0.307 N 
ATOM     24  C   UNL     1       2.313  -1.854  -2.907  0.00  0.00    +0.233 C 
ATOM     25  O   UNL     1       1.982  -0.691  -2.813  0.00  0.00    -0.274 OA
ATOM     26  H   UNL     1       1.827  -3.782  -3.652  0.00  0.00    +0.149 HD
BRANCH  23  27
ATOM     27  C   UNL     1       0.272  -2.272  -4.169  0.00  0.00    +0.103 C 
BRANCH  27  28
ATOM     28  C   UNL     1      -0.099  -3.186  -5.308  0.00  0.00    -0.027 A 
ATOM     29  C   UNL     1       0.089  -4.551  -5.189  0.00  0.00    +0.006 A 
ATOM     30  C   UNL     1      -0.252  -5.389  -6.233  0.00  0.00    +0.004 A 
ATOM     31  C   UNL     1      -0.780  -4.864  -7.398  0.00  0.00    -0.048 A 
ATOM     32  C   UNL     1      -0.968  -3.500  -7.518  0.00  0.00    -0.047 A 
ATOM     33  C   UNL     1      -0.632  -2.661  -6.471  0.00  0.00    +0.009 A 
ATOM     34  C   UNL     1      -1.543  -2.927  -8.787  0.00  0.00    +0.044 C 
ATOM     35  C   UNL     1      -1.152  -5.778  -8.537  0.00  0.00    +0.044 C 
ENDBRANCH  27  28
BRANCH  27  37
ATOM     36  C   UNL     1      -0.521  -1.273  -2.021  0.00  0.00    +0.006 C 
ATOM     37  C   UNL     1      -0.838  -2.294  -3.116  0.00  0.00    +0.024 C 
ENDBRANCH  27  37
ENDBRANCH  23  27
ENDBRANCH  22  24
ENDBRANCH   1  22
TORSDOF 8
