REMARK  Name = ZINC27753901
REMARK  6 active torsions:
REMARK  status: ('A' for Active; 'I' for Inactive)
REMARK    1  A    between atoms: C_1  and  C_2
REMARK    2  A    between atoms: C_5  and  C_8
REMARK    3  A    between atoms: C_8  and  O_32
REMARK    4  A    between atoms: C_9  and  C_26
REMARK    5  A    between atoms: C_11  and  C_17
REMARK    6  A    between atoms: C_26  and  C_28
REMARK                            x       y       z     vdW  Elec       q    Type
REMARK                         _______ _______ _______ _____ _____    ______ ____
ROOT
ATOM      1  C   UNL     1       3.308   2.676   1.974  0.00  0.00    +0.172 C 
ATOM      2  C   UNL     1       2.950   4.158   1.820  0.00  0.00    +0.144 C 
ATOM      3  C   UNL     1       2.223   4.348   0.484  0.00  0.00    +0.120 C 
ATOM      4  N   UNL     1       3.061   3.829  -0.598  0.00  0.00    -0.292 N 
ATOM      5  C   UNL     1       3.927   2.825  -0.388  0.00  0.00    +0.302 C 
ATOM      6  O   UNL     1       4.593   2.424  -1.323  0.00  0.00    -0.253 OA
ATOM      7  N   UNL     1       4.088   2.247   0.811  0.00  0.00    -0.267 N 
ATOM      8  H   UNL     1       2.987   4.263  -1.607  0.00  0.00    +0.151 HD
ATOM      9  H   UNL     1       4.824   1.436   0.912  0.00  0.00    +0.153 HD
ENDROOT
BRANCH   3  10
ATOM     10  C   UNL     1       0.915   3.599   0.512  0.00  0.00    -0.023 A 
ATOM     11  C   UNL     1       0.017   3.817   1.540  0.00  0.00    +0.009 A 
ATOM     12  C   UNL     1      -1.184   3.132   1.569  0.00  0.00    +0.050 A 
ATOM     13  C   UNL     1      -1.487   2.221   0.571  0.00  0.00    +0.166 A 
ATOM     14  C   UNL     1      -0.584   2.005  -0.467  0.00  0.00    +0.167 A 
ATOM     15  C   UNL     1       0.617   2.695  -0.491  0.00  0.00    +0.055 A 
ATOM     16  O   UNL     1      -1.111   1.076  -1.317  0.00  0.00    -0.453 OA
ATOM     17  C   UNL     1      -2.518   1.032  -1.015  0.00  0.00    +0.466 C 
ATOM     18  O   UNL     1      -2.583   1.434   0.366  0.00  0.00    -0.453 OA
ENDBRANCH   3  10
BRANCH   1  23
ATOM     19  C   UNL     1      -1.534  -0.459   2.314  0.00  0.00    +0.044 C 
ATOM     20  C   UNL     1      -0.271   0.359   2.225  0.00  0.00    -0.050 A 
ATOM     21  C   UNL     1       0.589   0.189   1.156  0.00  0.00    +0.004 A 
ATOM     22  C   UNL     1       1.747   0.939   1.075  0.00  0.00    +0.008 A 
ATOM     23  C   UNL     1       2.046   1.859   2.062  0.00  0.00    +0.003 A 
ATOM     24  C   UNL     1       1.188   2.025   3.134  0.00  0.00    +0.008 A 
ATOM     25  C   UNL     1       0.027   1.279   3.213  0.00  0.00    +0.004 A 
ENDBRANCH   1  23
BRANCH   2  26
ATOM     26  C   UNL     1       4.208   4.987   1.833  0.00  0.00    +0.245 C 
ATOM     27  O   UNL     1       5.246   4.516   1.434  0.00  0.00    -0.287 OA
BRANCH  26  28
ATOM     28  C   UNL     1       4.171   6.404   2.345  0.00  0.00    +0.451 C 
ATOM     29  F   UNL     1       5.450   6.965   2.258  0.00  0.00    -0.163 F 
ATOM     30  F   UNL     1       3.279   7.156   1.572  0.00  0.00    -0.163 F 
ATOM     31  F   UNL     1       3.750   6.407   3.679  0.00  0.00    -0.163 F 
ENDBRANCH  26  28
ENDBRANCH   2  26
BRANCH   1  32
ATOM     32  O   UNL     1       4.082   2.493   3.161  0.00  0.00    -0.367 OA
ATOM     33  H   UNL     1       5.043   3.014   3.278  0.00  0.00    +0.212 HD
ENDBRANCH   1  32
TORSDOF 5
