REMARK  Name = ZINC10337104
REMARK  2 active torsions:
REMARK  status: ('A' for Active; 'I' for Inactive)
REMARK    1  A    between atoms: C_3  and  C_7
REMARK    2  A    between atoms: C_18  and  C_20
REMARK                            x       y       z     vdW  Elec       q    Type
REMARK                         _______ _______ _______ _____ _____    ______ ____
ROOT
ATOM      1  C   UNL     1       3.696   2.049  -0.023  0.00  0.00    +0.162 C 
ATOM      2  C   UNL     1       4.182   2.124  -1.454  0.00  0.00    +0.027 C 
ATOM      3  C   UNL     1       5.371   1.561  -1.752  0.00  0.00    +0.083 C 
ATOM      4  C   UNL     1       5.829   1.634  -3.163  0.00  0.00    +0.044 A 
ATOM      5  C   UNL     1       7.149   1.379  -3.510  0.00  0.00    +0.033 A 
ATOM      6  C   UNL     1       7.533   1.460  -4.836  0.00  0.00    +0.042 A 
ATOM      7  C   UNL     1       6.608   1.794  -5.810  0.00  0.00    +0.023 A 
ATOM      8  C   UNL     1       5.292   2.048  -5.471  0.00  0.00    +0.048 A 
ATOM      9  C   UNL     1       4.893   1.969  -4.149  0.00  0.00    +0.131 A 
ATOM     10  O   UNL     1       3.605   2.206  -3.789  0.00  0.00    -0.479 OA
ATOM     11  C   UNL     1       3.374   2.811  -2.516  0.00  0.00    +0.234 C 
ATOM     12 CL   UNL     1       9.181   1.142  -5.280  0.00  0.00    -0.084 Cl
ATOM     13  N   UNL     1       6.124   0.950  -0.804  0.00  0.00    -0.213 NA
ATOM     14  C   UNL     1       5.779   0.842   0.452  0.00  0.00    +0.232 C 
ATOM     15  N   UNL     1       4.587   1.359   0.916  0.00  0.00    -0.193 N 
ATOM     16  N   UNL     1       4.550   1.061   2.278  0.00  0.00    -0.165 N 
ATOM     17  N   UNL     1       5.634   0.425   2.566  0.00  0.00    -0.086 NA
ATOM     18  N   UNL     1       6.377   0.280   1.538  0.00  0.00    -0.231 N 
ATOM     19  H   UNL     1       3.838   1.290   2.896  0.00  0.00    +0.195 HD
ATOM     20  H   UNL     1       7.236  -0.169   1.531  0.00  0.00    +0.193 HD
ENDROOT
BRANCH  11  21
ATOM     21  C   UNL     1       3.765   4.265  -2.577  0.00  0.00    -0.003 A 
ATOM     22  C   UNL     1       4.849   4.657  -3.340  0.00  0.00    +0.009 A 
ATOM     23  C   UNL     1       5.208   5.991  -3.396  0.00  0.00    +0.020 A 
ATOM     24  C   UNL     1       4.483   6.933  -2.689  0.00  0.00    +0.041 A 
ATOM     25  C   UNL     1       3.398   6.540  -1.926  0.00  0.00    +0.020 A 
ATOM     26  C   UNL     1       3.036   5.207  -1.875  0.00  0.00    +0.009 A 
ATOM     27 CL   UNL     1       4.934   8.608  -2.759  0.00  0.00    -0.084 Cl
ENDBRANCH  11  21
BRANCH   1  30
ATOM     28  C   UNL     1      -0.017   1.378   0.010  0.00  0.00    +0.020 A 
ATOM     29  C   UNL     1       1.185   2.070   0.002  0.00  0.00    +0.009 A 
ATOM     30  C   UNL     1       2.365   1.343  -0.013  0.00  0.00    -0.003 A 
ATOM     31  C   UNL     1       2.305  -0.038  -0.020  0.00  0.00    +0.116 A 
ATOM     32  N   UNL     1       1.144  -0.663  -0.013  0.00  0.00    -0.263 NA
ATOM     33  C   UNL     1       0.002  -0.004   0.002  0.00  0.00    +0.111 A 
ENDBRANCH   1  30
TORSDOF 2
