REMARK  Name = ZINC40645294
REMARK  8 active torsions:
REMARK  status: ('A' for Active; 'I' for Inactive)
REMARK    1  A    between atoms: C_1  and  C_2
REMARK    2  A    between atoms: C_2  and  C_27
REMARK    3  A    between atoms: C_4  and  N_10
REMARK    4  A    between atoms: C_6  and  C_8
REMARK    5  A    between atoms: C_6  and  C_9
REMARK    6  A    between atoms: C_12  and  N_24
REMARK    7  A    between atoms: C_13  and  O_17
REMARK    8  A    between atoms: O_17  and  C_18
REMARK                            x       y       z     vdW  Elec       q    Type
REMARK                         _______ _______ _______ _____ _____    ______ ____
ROOT
ATOM      1  N   UNL     1       1.633  -2.333  -2.511  0.00  0.00    -0.324 N 
ATOM      2  C   UNL     1       1.546  -3.639  -2.967  0.00  0.00    +0.156 A 
ATOM      3  C   UNL     1       2.182  -4.021  -4.145  0.00  0.00    +0.227 A 
ATOM      4  C   UNL     1       2.065  -5.341  -4.559  0.00  0.00    +0.251 A 
ATOM      5  N   UNL     1       1.353  -6.189  -3.820  0.00  0.00    -0.199 NA
ATOM      6  C   UNL     1       0.765  -5.791  -2.711  0.00  0.00    +0.227 A 
ATOM      7  N   UNL     1       0.856  -4.548  -2.282  0.00  0.00    -0.218 NA
ATOM      8  H   UNL     1       2.137  -1.676  -3.016  0.00  0.00    +0.148 HD
ENDROOT
BRANCH   1  12
ATOM      9  C   UNL     1      -0.019   1.542   0.011  0.00  0.00    -0.010 C 
ATOM     10  C   UNL     1       0.002  -0.004   0.002  0.00  0.00    -0.072 C 
ATOM     11  C   UNL     1       0.670  -0.443  -1.297  0.00  0.00    +0.009 C 
ATOM     12  C   UNL     1       0.963  -1.944  -1.265  0.00  0.00    +0.069 C 
ATOM     13  C   UNL     1       1.892  -2.223  -0.084  0.00  0.00    +0.009 C 
ATOM     14  C   UNL     1       1.233  -1.798   1.224  0.00  0.00    -0.072 C 
ATOM     15  N   UNL     1       0.711  -0.443   1.191  0.00  0.00    +0.386 N 
ATOM     16  C   UNL     1       2.314  -1.859   2.328  0.00  0.00    -0.010 C 
ATOM     17  C   UNL     1       0.143  -2.805   1.606  0.00  0.00    -0.010 C 
ATOM     18  C   UNL     1      -1.457  -0.473   0.018  0.00  0.00    -0.010 C 
ATOM     19  H   UNL     1       1.489   0.204   1.356  0.00  0.00    -0.084 HD
ATOM     20  H   UNL     1       0.093  -0.317   1.998  0.00  0.00    -0.084 HD
ENDBRANCH   1  12
BRANCH   3  21
ATOM     21  N   UNL     1       2.964  -3.044  -4.936  0.00  0.00    +0.065 N 
ATOM     22  O   UNL     1       4.143  -2.892  -4.715  0.00  0.00    -0.126 OA
ATOM     23  O   UNL     1       2.424  -2.399  -5.804  0.00  0.00    -0.126 OA
ENDBRANCH   3  21
BRANCH   4  24
ATOM     24  O   UNL     1       2.666  -5.761  -5.699  0.00  0.00    -0.471 OA
BRANCH  24  25
ATOM     25  C   UNL     1       2.496  -7.135  -6.054  0.00  0.00    +0.175 C 
ATOM     26  C   UNL     1       3.620  -7.965  -5.431  0.00  0.00    +0.044 C 
ATOM     27  C   UNL     1       3.439  -9.436  -5.812  0.00  0.00    +0.004 C 
ATOM     28  C   UNL     1       3.483  -9.578  -7.335  0.00  0.00    +0.000 C 
ATOM     29  C   UNL     1       2.360  -8.747  -7.957  0.00  0.00    +0.004 C 
ATOM     30  C   UNL     1       2.541  -7.277  -7.577  0.00  0.00    +0.044 C 
ENDBRANCH  24  25
ENDBRANCH   4  24
TORSDOF 4
