REMARK  Name = ZINC32810028
REMARK  11 active torsions:
REMARK  status: ('A' for Active; 'I' for Inactive)
REMARK    1  A    between atoms: C_1  and  C_2
REMARK    2  A    between atoms: C_2  and  C_3
REMARK    3  A    between atoms: C_2  and  C_4
REMARK    4  A    between atoms: C_4  and  C_6
REMARK    5  A    between atoms: C_4  and  N_27
REMARK    6  A    between atoms: C_6  and  N_7
REMARK    7  A    between atoms: C_8  and  C_10
REMARK    8  A    between atoms: N_27  and  C_28
REMARK    9  A    between atoms: N_27  and  C_31
REMARK   10  A    between atoms: C_28  and  C_29
REMARK   11  A    between atoms: C_31  and  C_32
REMARK                            x       y       z     vdW  Elec       q    Type
REMARK                         _______ _______ _______ _____ _____    ______ ____
ROOT
ATOM      1  N   UNL     1      -1.799  -0.220   6.619  0.00  0.00    -0.313 N 
ATOM      2  C   UNL     1      -1.111  -1.037   5.798  0.00  0.00    +0.244 C 
ATOM      3  O   UNL     1      -0.416  -1.921   6.262  0.00  0.00    -0.270 OA
ATOM      4  H   UNL     1      -2.427   0.580   6.199  0.00  0.00    +0.149 HD
ENDROOT
BRANCH   2   5
ATOM      5  C   UNL     1      -1.199  -0.860   4.336  0.00  0.00    +0.039 A 
ATOM      6  C   UNL     1      -1.997   0.156   3.800  0.00  0.00    +0.015 A 
ATOM      7  C   UNL     1      -2.074   0.334   2.436  0.00  0.00    +0.026 A 
ATOM      8  C   UNL     1      -1.353  -0.504   1.592  0.00  0.00    +0.062 A 
ATOM      9  C   UNL     1      -0.577  -1.524   2.128  0.00  0.00    +0.134 A 
ATOM     10  C   UNL     1      -0.485  -1.709   3.480  0.00  0.00    +0.044 A 
ATOM     11  S   UNL     1       0.271  -2.573   0.988  0.00  0.00    +0.102 S 
ATOM     12  O   UNL     1       0.069  -3.911   1.423  0.00  0.00    -0.146 OA
ATOM     13  O   UNL     1       1.562  -2.014   0.788  0.00  0.00    -0.146 OA
ATOM     14  N   UNL     1      -0.561  -2.394  -0.432  0.00  0.00    -0.118 NA
ATOM     15  C   UNL     1      -1.304  -1.344  -0.660  0.00  0.00    +0.124 C 
ATOM     16  N   UNL     1      -1.408  -0.305   0.194  0.00  0.00    -0.286 N 
ATOM     17  C   UNL     1      -1.576   1.083  -0.178  0.00  0.00    +0.112 C 
ATOM     18  C   UNL     1      -1.075   1.597  -1.456  0.00  0.00    +0.019 C 
ATOM     19  C   UNL     1      -1.211   0.896  -2.756  0.00  0.00    +0.002 C 
ATOM     20  C   UNL     1      -2.159  -0.260  -2.895  0.00  0.00    +0.008 C 
ATOM     21  C   UNL     1      -2.029  -1.358  -1.937  0.00  0.00    +0.073 C 
ENDBRANCH   2   5
BRANCH   1  22
ATOM     22  C   UNL     1      -1.711  -0.396   8.071  0.00  0.00    +0.089 C 
BRANCH  22  23
ATOM     23  C   UNL     1      -2.482   0.726   8.768  0.00  0.00    -0.048 C 
BRANCH  23  25
ATOM     24  C   UNL     1      -3.422   1.469  10.961  0.00  0.00    +0.005 C 
ATOM     25  C   UNL     1      -2.452   0.501  10.282  0.00  0.00    -0.029 C 
ATOM     26  C   UNL     1      -2.867  -0.939  10.592  0.00  0.00    +0.005 C 
ENDBRANCH  23  25
BRANCH  23  27
ATOM     27  N   UNL     1      -3.875   0.726   8.302  0.00  0.00    +0.387 N 
ATOM     28  H   UNL     1      -3.872   0.480   7.229  0.00  0.00    -0.080 HD
BRANCH  27  29
ATOM     29  C   UNL     1      -4.664  -0.299   8.998  0.00  0.00    -0.051 C 
BRANCH  29  30
ATOM     30  C   UNL     1      -5.893  -0.623   8.188  0.00  0.00    -0.053 C 
ATOM     31  C   UNL     1      -6.141  -1.861   7.840  0.00  0.00    +0.002 C 
ENDBRANCH  29  30
ENDBRANCH  27  29
BRANCH  27  32
ATOM     32  C   UNL     1      -4.482   2.055   8.458  0.00  0.00    -0.051 C 
BRANCH  32  33
ATOM     33  C   UNL     1      -4.009   2.957   7.348  0.00  0.00    -0.053 C 
ATOM     34  C   UNL     1      -4.878   3.515   6.542  0.00  0.00    +0.002 C 
ENDBRANCH  32  33
ENDBRANCH  27  32
ENDBRANCH  23  27
ENDBRANCH  22  23
ENDBRANCH   1  22
TORSDOF 9
