REMARK  Name = ZINC11865407
REMARK  13 active torsions:
REMARK  status: ('A' for Active; 'I' for Inactive)
REMARK    1  A    between atoms: C_1  and  C_2
REMARK    2  A    between atoms: C_3  and  C_39
REMARK    3  A    between atoms: C_9  and  C_38
REMARK    4  A    between atoms: C_10  and  C_16
REMARK    5  A    between atoms: C_16  and  C_17
REMARK    6  A    between atoms: N_19  and  CA_20
REMARK    7  A    between atoms: CA_20  and  CB_22
REMARK    8  A    between atoms: CA_20  and  C_25
REMARK    9  A    between atoms: CB_22  and  CG1_23
REMARK   10  A    between atoms: CB_22  and  CG2_24
REMARK   11  A    between atoms: N_27  and  C_28
REMARK   12  A    between atoms: C_28  and  C_30
REMARK   13  A    between atoms: C_28  and  C_36
REMARK                            x       y       z     vdW  Elec       q    Type
REMARK                         _______ _______ _______ _____ _____    ______ ____
ROOT
ATOM      1  C   UNK A   0       6.670   3.657   2.723  0.00  0.00    +0.218 C 
ATOM      2  O   UNK A   0       7.422   3.546   1.778  0.00  0.00    -0.275 OA
ATOM      3  N   VAL A   1       5.354   3.863   2.516  0.00  0.00    -0.303 N 
ATOM      4  H   VAL A   1       4.753   3.952   3.272  0.00  0.00    +0.149 HD
ENDROOT
BRANCH   1   5
ATOM      5  C   UNK A   0       7.207   3.565   4.128  0.00  0.00    +0.138 C 
BRANCH   5  15
ATOM      6  C   UNK A   0      14.572   7.193   3.951  0.00  0.00    +0.048 C 
ATOM      7  C   UNK A   0      14.489   5.688   3.939  0.00  0.00    -0.002 A 
ATOM      8  C   UNK A   0      15.513   4.827   3.900  0.00  0.00    +0.106 A 
ATOM      9  O   UNK A   0      15.058   3.561   3.900  0.00  0.00    -0.460 OA
ATOM     10  C   UNK A   0      13.710   3.533   3.940  0.00  0.00    +0.139 A 
ATOM     11  C   UNK A   0      13.268   4.871   3.967  0.00  0.00    +0.024 A 
ATOM     12  C   UNK A   0      11.912   5.163   4.010  0.00  0.00    +0.023 A 
ATOM     13  C   UNK A   0      10.988   4.118   4.025  0.00  0.00    +0.022 A 
ATOM     14  C   UNK A   0       9.548   4.390   4.069  0.00  0.00    -0.029 A 
ATOM     15  C   UNK A   0       8.696   3.334   4.083  0.00  0.00    +0.049 A 
ATOM     16  C   UNK A   0       9.207   2.019   4.060  0.00  0.00    +0.341 A 
ATOM     17  O   UNK A   0       8.431   1.081   4.078  0.00  0.00    -0.245 OA
ATOM     18  O   UNK A   0      10.525   1.775   4.014  0.00  0.00    -0.422 OA
ATOM     19  C   UNK A   0      11.431   2.779   3.998  0.00  0.00    +0.143 A 
ATOM     20  C   UNK A   0      12.786   2.499   3.956  0.00  0.00    +0.093 A 
ATOM     21  C   UNK A   0       9.028   5.804   4.100  0.00  0.00    +0.045 C 
ATOM     22  C   UNK A   0      16.967   5.219   3.860  0.00  0.00    +0.086 C 
ENDBRANCH   5  15
ENDBRANCH   1   5
BRANCH   3  23
ATOM     23  CA  VAL A   1       4.833   3.952   1.150  0.00  0.00    +0.161 C 
BRANCH  23  24
ATOM     24  C   VAL A   1       3.375   3.571   1.143  0.00  0.00    +0.234 C 
ATOM     25  O   VAL A   1       2.694   3.761   2.129  0.00  0.00    -0.274 OA
ATOM     26  N   UNK A   2       2.827   3.020   0.042  0.00  0.00    -0.297 N 
ATOM     27  H   UNK A   2       3.351   2.936  -0.770  0.00  0.00    +0.150 HD
BRANCH  26  28
ATOM     28  C   UNK A   2       1.441   2.547   0.071  0.00  0.00    +0.217 C 
BRANCH  28  29
ATOM     29  C   UNK A   2       0.877   2.558  -1.326  0.00  0.00    -0.016 A 
ATOM     30  C   UNK A   2       1.663   2.163  -2.392  0.00  0.00    +0.006 A 
ATOM     31  C   UNK A   2       1.144   2.169  -3.673  0.00  0.00    +0.000 A 
ATOM     32  C   UNK A   2      -0.158   2.580  -3.889  0.00  0.00    +0.000 A 
ATOM     33  C   UNK A   2      -0.943   2.979  -2.824  0.00  0.00    +0.000 A 
ATOM     34  C   UNK A   2      -0.425   2.969  -1.542  0.00  0.00    +0.006 A 
ENDBRANCH  28  29
BRANCH  28  35
ATOM     35  C   UNK A   2       1.401   1.143   0.618  0.00  0.00    +0.380 C 
ATOM     36  O   UNK A   2       2.425   0.594   0.949  0.00  0.00    -0.244 OA
ATOM     37  O   UNK A   2       0.227   0.503   0.737  0.00  0.00    -0.244 OA
ENDBRANCH  28  35
ENDBRANCH  26  28
ENDBRANCH  23  24
BRANCH  23  38
ATOM     38  CB  VAL A   1       4.987   5.386   0.638  0.00  0.00    +0.012 C 
ATOM     39  CG1 VAL A   1       6.474   5.738   0.550  0.00  0.00    +0.009 C 
ATOM     40  CG2 VAL A   1       4.352   5.503  -0.749  0.00  0.00    +0.009 C 
ENDBRANCH  23  38
ENDBRANCH   3  23
TORSDOF 8
