REMARK  Name = ZINC58304697
REMARK  6 active torsions:
REMARK  status: ('A' for Active; 'I' for Inactive)
REMARK    1  A    between atoms: C_1  and  C_2
REMARK    2  A    between atoms: C_4  and  C_24
REMARK    3  A    between atoms: C_9  and  C_10
REMARK    4  A    between atoms: C_10  and  N_11
REMARK    5  A    between atoms: C_12  and  C_14
REMARK    6  A    between atoms: C_15  and  N_19
REMARK                            x       y       z     vdW  Elec       q    Type
REMARK                         _______ _______ _______ _____ _____    ______ ____
ROOT
ATOM      1  N   UNL     1      -1.348   0.142   2.992  0.00  0.00    -0.307 N 
ATOM      2  C   UNL     1      -1.592   0.762   4.163  0.00  0.00    +0.253 C 
ATOM      3  O   UNL     1      -0.670   1.229   4.808  0.00  0.00    -0.270 OA
ATOM      4  H   UNL     1      -2.083  -0.230   2.478  0.00  0.00    +0.149 HD
ENDROOT
BRANCH   2   5
ATOM      5  C   UNL     1      -2.961   0.874   4.660  0.00  0.00    +0.098 A 
ATOM      6  C   UNL     1      -3.425   1.472   5.830  0.00  0.00    +0.065 A 
ATOM      7  C   UNL     1      -4.791   1.416   6.024  0.00  0.00    +0.034 A 
ATOM      8  C   UNL     1      -5.562   0.803   5.096  0.00  0.00    +0.048 A 
ATOM      9  S   UNL     1      -4.475   0.286   3.925  0.00  0.00    -0.090 S 
BRANCH   6  10
ATOM     10  N   UNL     1      -2.565   2.088   6.746  0.00  0.00    -0.322 N 
ATOM     11  C   UNL     1      -1.426   1.540   7.262  0.00  0.00    +0.091 A 
ATOM     12  C   UNL     1      -0.872   2.434   8.105  0.00  0.00    +0.019 A 
ATOM     13  C   UNL     1      -1.698   3.577   8.112  0.00  0.00    +0.019 A 
ATOM     14  C   UNL     1      -2.722   3.341   7.267  0.00  0.00    +0.091 A 
ENDBRANCH   6  10
ENDBRANCH   2   5
BRANCH   1  15
ATOM     15  C   UNL     1       0.025   0.030   2.493  0.00  0.00    +0.145 C 
BRANCH  15  24
ATOM     16  C   UNL     1      -0.018   1.503   0.010  0.00  0.00    +0.044 C 
ATOM     17  C   UNL     1       0.002  -0.004   0.002  0.00  0.00    -0.039 A 
ATOM     18  C   UNL     1       0.006  -0.706  -1.212  0.00  0.00    +0.024 A 
ATOM     19  C   UNL     1       0.025  -2.059  -1.209  0.00  0.00    +0.016 A 
ATOM     20  N   UNL     1       0.040  -2.750  -0.040  0.00  0.00    -0.326 N 
ATOM     21  H   UNL     1       0.054  -3.720  -0.057  0.00  0.00    +0.169 HD
ATOM     22  C   UNL     1       0.037  -2.105   1.141  0.00  0.00    +0.254 A 
ATOM     23  O   UNL     1       0.051  -2.740   2.183  0.00  0.00    -0.268 OA
ATOM     24  C   UNL     1       0.023  -0.700   1.175  0.00  0.00    +0.037 A 
ATOM     25  C   UNL     1       0.029  -2.807  -2.517  0.00  0.00    +0.063 C 
ENDBRANCH  15  24
ENDBRANCH   1  15
TORSDOF 4
