REMARK  Name = ZINC36695008
REMARK  10 active torsions:
REMARK  status: ('A' for Active; 'I' for Inactive)
REMARK    1  A    between atoms: C_1  and  C_2
REMARK    2  A    between atoms: C_2  and  C_4
REMARK    3  A    between atoms: C_2  and  C_25
REMARK    4  A    between atoms: C_4  and  N_5
REMARK    5  A    between atoms: C_6  and  C_8
REMARK    6  A    between atoms: C_8  and  N_9
REMARK    7  A    between atoms: C_15  and  C_18
REMARK    8  A    between atoms: C_18  and  C_19
REMARK    9  A    between atoms: C_18  and  C_20
REMARK   10  A    between atoms: C_18  and  C_21
REMARK                            x       y       z     vdW  Elec       q    Type
REMARK                         _______ _______ _______ _____ _____    ______ ____
ROOT
ATOM      1  N   UNL     1       0.393  -0.588   6.085  0.00  0.00    -0.215 N 
ATOM      2  C   UNL     1       0.199  -1.802   6.640  0.00  0.00    +0.247 C 
ATOM      3  O   UNL     1      -0.565  -2.666   6.267  0.00  0.00    -0.273 OA
ATOM      4  C   UNL     1       1.136  -1.858   7.825  0.00  0.00    +0.113 C 
ATOM      5  C   UNL     1       2.144  -2.989   7.652  0.00  0.00    +0.035 C 
ATOM      6  C   UNL     1       1.409  -4.332   7.635  0.00  0.00    +0.006 C 
ATOM      7  C   UNL     1       0.639  -4.507   8.946  0.00  0.00    -0.005 C 
ATOM      8  C   UNL     1      -0.382  -3.378   9.096  0.00  0.00    +0.006 C 
ATOM      9  C   UNL     1       0.347  -2.032   9.118  0.00  0.00    +0.035 C 
ATOM     10  N   UNL     1       1.814  -0.556   7.806  0.00  0.00    -0.285 N 
ATOM     11  C   UNL     1       1.318   0.116   6.750  0.00  0.00    +0.310 C 
ATOM     12  O   UNL     1       1.667   1.237   6.437  0.00  0.00    -0.252 OA
ATOM     13  H   UNL     1       2.488  -0.243   8.429  0.00  0.00    +0.151 HD
ENDROOT
BRANCH   7  14
ATOM     14  C   UNL     1      -0.088  -5.853   8.934  0.00  0.00    -0.035 C 
ATOM     15  C   UNL     1       0.934  -6.983   8.786  0.00  0.00    +0.011 C 
ATOM     16  C   UNL     1      -0.857  -6.029  10.244  0.00  0.00    +0.011 C 
ATOM     17  C   UNL     1      -1.066  -5.894   7.758  0.00  0.00    +0.011 C 
ENDBRANCH   7  14
BRANCH   1  18
ATOM     18  C   UNL     1      -0.315  -0.103   4.898  0.00  0.00    +0.213 C 
BRANCH  18  20
ATOM     19  N   UNL     1      -0.008  -0.140   2.444  0.00  0.00    -0.313 N 
ATOM     20  C   UNL     1       0.457  -0.484   3.661  0.00  0.00    +0.231 C 
ATOM     21  O   UNL     1       1.496  -1.101   3.761  0.00  0.00    -0.274 OA
ATOM     22  H   UNL     1      -0.840   0.353   2.364  0.00  0.00    +0.149 HD
BRANCH  19  23
ATOM     23  C   UNL     1       0.742  -0.511   1.242  0.00  0.00    +0.112 C 
BRANCH  23  25
ATOM     24  C   UNL     1      -0.019   1.526   0.010  0.00  0.00    +0.014 C 
ATOM     25  C   UNL     1       0.002  -0.004   0.002  0.00  0.00    +0.033 C 
BRANCH  25  26
ATOM     26  C   UNL     1       0.707  -0.490  -1.238  0.00  0.00    -0.043 A 
ATOM     27  C   UNL     1       2.026  -0.142  -1.464  0.00  0.00    +0.004 A 
ATOM     28  C   UNL     1       2.673  -0.587  -2.602  0.00  0.00    +0.000 A 
ATOM     29  C   UNL     1       2.002  -1.382  -3.512  0.00  0.00    +0.000 A 
ATOM     30  C   UNL     1       0.684  -1.731  -3.285  0.00  0.00    +0.000 A 
ATOM     31  C   UNL     1       0.038  -1.289  -2.146  0.00  0.00    +0.004 A 
ENDBRANCH  25  26
ENDBRANCH  23  25
ENDBRANCH  19  23
ENDBRANCH  18  20
ENDBRANCH   1  18
TORSDOF 6
