REMARK  Name = ZINC14544796
REMARK  6 active torsions:
REMARK  status: ('A' for Active; 'I' for Inactive)
REMARK    1  A    between atoms: C_1  and  C_2
REMARK    2  A    between atoms: C_4  and  C_38
REMARK    3  A    between atoms: C_6  and  N_8
REMARK    4  A    between atoms: N_8  and  S_9
REMARK    5  A    between atoms: S_9  and  C_12
REMARK    6  A    between atoms: C_25  and  C_28
REMARK                            x       y       z     vdW  Elec       q    Type
REMARK                         _______ _______ _______ _____ _____    ______ ____
ROOT
ATOM      1  C   UNL     1      -2.083  11.477  -0.541  0.00  0.00    +0.109 A 
ATOM      2  C   UNL     1      -1.210  11.517  -1.614  0.00  0.00    +0.030 A 
ATOM      3  C   UNL     1      -0.507  10.383  -1.967  0.00  0.00    +0.025 A 
ATOM      4  C   UNL     1      -0.675   9.207  -1.245  0.00  0.00    +0.031 A 
ATOM      5  C   UNL     1      -1.547   9.163  -0.168  0.00  0.00    -0.018 A 
ATOM      6  C   UNL     1      -2.250  10.310   0.176  0.00  0.00    +0.034 A 
ATOM      7  C   UNL     1      -1.758   7.923   0.641  0.00  0.00    +0.049 C 
ATOM      8  C   UNL     1      -3.084   7.275   0.321  0.00  0.00    -0.023 C 
ATOM      9  C   UNL     1      -2.974   5.970   0.359  0.00  0.00    -0.030 C 
ATOM     10  C   UNL     1      -1.556   5.567   0.717  0.00  0.00    +0.033 C 
ATOM     11  C   UNL     1      -0.718   6.825   0.342  0.00  0.00    +0.029 C 
ATOM     12  C   UNL     1      -0.446   6.759  -1.163  0.00  0.00    +0.107 C 
ATOM     13  N   UNL     1       0.043   8.066  -1.615  0.00  0.00    -0.336 N 
ATOM     14  H   UNL     1       0.844   8.136  -2.158  0.00  0.00    +0.147 HD
ENDROOT
BRANCH  12  15
ATOM     15  C   UNL     1       0.596   5.706  -1.442  0.00  0.00    -0.002 A 
ATOM     16  C   UNL     1       1.918   5.904  -1.562  0.00  0.00    +0.089 A 
ATOM     17  N   UNL     1       2.547   4.714  -1.814  0.00  0.00    -0.360 N 
ATOM     18  H   UNL     1       3.502   4.605  -1.939  0.00  0.00    +0.165 HD
ATOM     19  C   UNL     1       1.620   3.697  -1.863  0.00  0.00    +0.047 A 
ATOM     20  C   UNL     1       0.358   4.273  -1.631  0.00  0.00    +0.005 A 
ATOM     21  C   UNL     1      -0.784   3.470  -1.623  0.00  0.00    +0.010 A 
ATOM     22  C   UNL     1      -0.669   2.126  -1.844  0.00  0.00    +0.001 A 
ATOM     23  C   UNL     1       0.574   1.552  -2.067  0.00  0.00    +0.002 A 
ATOM     24  C   UNL     1       1.714   2.326  -2.080  0.00  0.00    +0.026 A 
ENDBRANCH  12  15
BRANCH   1  25
ATOM     25  S   UNL     1      -2.984  12.921  -0.089  0.00  0.00    +0.072 S 
ATOM     26  O   UNL     1      -2.953  13.788  -1.215  0.00  0.00    -0.150 OA
ATOM     27  O   UNL     1      -4.199  12.475   0.496  0.00  0.00    -0.150 OA
BRANCH  25  28
ATOM     28  N   UNL     1      -2.129  13.675   1.112  0.00  0.00    -0.216 N 
ATOM     29  H   UNL     1      -2.516  13.770   1.997  0.00  0.00    +0.174 HD
BRANCH  28  35
ATOM     30  C   UNL     1       2.745  13.296   1.616  0.00  0.00    +0.044 C 
ATOM     31  C   UNL     1       1.530  14.012   1.084  0.00  0.00    -0.048 A 
ATOM     32  C   UNL     1       1.681  15.166   0.337  0.00  0.00    +0.006 A 
ATOM     33  C   UNL     1       0.569  15.826  -0.153  0.00  0.00    -0.048 A 
ATOM     34  C   UNL     1      -0.697  15.335   0.102  0.00  0.00    +0.028 A 
ATOM     35  C   UNL     1      -0.851  14.175   0.852  0.00  0.00    +0.049 A 
ATOM     36  C   UNL     1       0.268  13.518   1.347  0.00  0.00    +0.028 A 
ATOM     37  C   UNL     1       0.737  17.084  -0.966  0.00  0.00    +0.044 C 
ENDBRANCH  28  35
ENDBRANCH  25  28
ENDBRANCH   1  25
TORSDOF 4
