REMARK  Name = ZINC36123481
REMARK  12 active torsions:
REMARK  status: ('A' for Active; 'I' for Inactive)
REMARK    1  A    between atoms: C_1  and  C_2
REMARK    2  A    between atoms: C_2  and  C_3
REMARK    3  A    between atoms: C_2  and  C_4
REMARK    4  A    between atoms: C_2  and  N_5
REMARK    5  A    between atoms: N_8  and  C_9
REMARK    6  A    between atoms: N_8  and  C_16
REMARK    7  A    between atoms: C_9  and  C_10
REMARK    8  A    between atoms: C_10  and  N_11
REMARK    9  A    between atoms: C_16  and  C_17
REMARK   10  A    between atoms: C_27  and  C_29
REMARK   11  A    between atoms: C_29  and  O_30
REMARK   12  A    between atoms: O_30  and  C_31
REMARK                            x       y       z     vdW  Elec       q    Type
REMARK                         _______ _______ _______ _____ _____    ______ ____
ROOT
ATOM      1  C   UNL     1       1.217  -0.546  -4.528  0.00  0.00    +0.234 C 
ATOM      2  O   UNL     1       1.318   0.661  -4.465  0.00  0.00    -0.274 OA
ATOM      3  N   UNL     1       0.500  -1.111  -5.520  0.00  0.00    -0.289 N 
ATOM      4  C   UNL     1       0.365  -2.573  -5.603  0.00  0.00    +0.114 C 
ATOM      5  C   UNL     1       1.054  -3.048  -6.891  0.00  0.00    +0.061 C 
ATOM      6  C   UNL     1       0.690  -2.117  -8.001  0.00  0.00    -0.004 A 
ATOM      7  C   UNL     1       0.153  -0.870  -7.904  0.00  0.00    -0.014 A 
ATOM      8  C   UNL     1      -0.089  -0.198  -9.101  0.00  0.00    +0.013 A 
ATOM      9  C   UNL     1       0.203  -0.792 -10.281  0.00  0.00    +0.046 A 
ATOM     10  S   UNL     1       0.851  -2.369  -9.749  0.00  0.00    -0.101 S 
ATOM     11  C   UNL     1      -0.163  -0.274  -6.529  0.00  0.00    +0.144 C 
ENDROOT
BRANCH   1  12
ATOM     12  C   UNL     1       1.893  -1.414  -3.498  0.00  0.00    +0.205 C 
BRANCH  12  16
ATOM     13  N   UNL     1       0.688  -0.476  -1.203  0.00  0.00    -0.294 N 
ATOM     14  C   UNL     1       1.972  -0.132  -1.427  0.00  0.00    +0.303 C 
ATOM     15  O   UNL     1       2.561   0.570  -0.628  0.00  0.00    -0.253 OA
ATOM     16  N   UNL     1       2.602  -0.567  -2.536  0.00  0.00    -0.279 N 
ATOM     17  H   UNL     1       0.218  -1.037  -1.840  0.00  0.00    +0.151 HD
BRANCH  13  19
ATOM     18  C   UNL     1      -0.019   1.526   0.010  0.00  0.00    +0.031 C 
ATOM     19  C   UNL     1       0.002  -0.004   0.002  0.00  0.00    +0.028 C 
ATOM     20  C   UNL     1       0.742  -0.511   1.242  0.00  0.00    +0.031 C 
ATOM     21  C   UNL     1      -1.433  -0.534   0.013  0.00  0.00    +0.031 C 
ENDBRANCH  13  19
BRANCH  16  22
ATOM     22  C   UNL     1       3.998  -0.193  -2.779  0.00  0.00    +0.091 C 
BRANCH  22  23
ATOM     23  C   UNL     1       4.923  -1.238  -2.153  0.00  0.00    -0.060 C 
BRANCH  23  24
ATOM     24  N   UNL     1       6.322  -0.863  -2.397  0.00  0.00    +0.381 N 
ATOM     25  C   UNL     1       6.667   0.357  -1.623  0.00  0.00    -0.079 C 
ATOM     26  C   UNL     1       8.212   0.289  -1.524  0.00  0.00    -0.020 C 
ATOM     27  C   UNL     1       8.480  -1.223  -1.345  0.00  0.00    -0.020 C 
ATOM     28  C   UNL     1       7.228  -1.923  -1.903  0.00  0.00    -0.079 C 
ATOM     29  H   UNL     1       6.474  -0.706  -3.382  0.00  0.00    -0.082 HD
ENDBRANCH  23  24
ENDBRANCH  22  23
ENDBRANCH  16  22
ENDBRANCH  12  16
ENDBRANCH   1  12
BRANCH  11  30
ATOM     30  C   UNL     1      -1.675  -0.279  -6.294  0.00  0.00    +0.256 C 
BRANCH  30  31
ATOM     31  O   UNL     1      -2.186  -1.596  -6.505  0.00  0.00    -0.490 OA
BRANCH  31  32
ATOM     32  C   UNL     1      -3.523  -1.774  -6.335  0.00  0.00    +0.121 A 
ATOM     33  C   UNL     1      -4.327  -0.701  -5.978  0.00  0.00    +0.048 A 
ATOM     34  C   UNL     1      -5.685  -0.883  -5.806  0.00  0.00    +0.042 A 
ATOM     35  C   UNL     1      -6.245  -2.136  -5.988  0.00  0.00    +0.124 A 
ATOM     36  C   UNL     1      -5.444  -3.208  -6.344  0.00  0.00    +0.042 A 
ATOM     37  C   UNL     1      -4.086  -3.028  -6.523  0.00  0.00    +0.048 A 
ATOM     38  F   UNL     1      -7.574  -2.313  -5.819  0.00  0.00    -0.205 F 
ENDBRANCH  31  32
ENDBRANCH  30  31
ENDBRANCH  11  30
TORSDOF 9
