REMARK  Name = ZINC36598523
REMARK  17 active torsions:
REMARK  status: ('A' for Active; 'I' for Inactive)
REMARK    1  A    between atoms: C_1  and  C_2
REMARK    2  A    between atoms: C_5  and  C_7
REMARK    3  A    between atoms: C_7  and  N_8
REMARK    4  A    between atoms: N_8  and  C_9
REMARK    5  A    between atoms: C_9  and  C_11
REMARK    6  A    between atoms: C_9  and  C_20
REMARK    7  A    between atoms: C_12  and  O_19
REMARK    8  A    between atoms: C_14  and  O_18
REMARK    9  A    between atoms: C_16  and  O_17
REMARK   10  A    between atoms: N_22  and  C_23
REMARK   11  A    between atoms: C_23  and  C_24
REMARK   12  A    between atoms: C_23  and  C_25
REMARK   13  A    between atoms: C_23  and  C_26
REMARK   14  A    between atoms: C_27  and  C_29
REMARK   15  A    between atoms: C_29  and  C_30
REMARK   16  A    between atoms: C_30  and  C_32
REMARK   17  A    between atoms: C_30  and  C_33
REMARK                            x       y       z     vdW  Elec       q    Type
REMARK                         _______ _______ _______ _____ _____    ______ ____
ROOT
ATOM      1  C   UNL     1       3.041  -3.214  -2.166  0.00  0.00    +0.200 C 
ENDROOT
BRANCH   1   2
ATOM      2  C   UNL     1       3.917  -4.340  -2.650  0.00  0.00    +0.065 A 
ATOM      3  C   UNL     1       4.274  -4.415  -3.988  0.00  0.00    +0.129 A 
ATOM      4  C   UNL     1       5.081  -5.451  -4.433  0.00  0.00    +0.091 A 
ATOM      5  C   UNL     1       5.530  -6.413  -3.541  0.00  0.00    +0.124 A 
ATOM      6  C   UNL     1       5.173  -6.338  -2.203  0.00  0.00    +0.091 A 
ATOM      7  C   UNL     1       4.370  -5.299  -1.756  0.00  0.00    +0.129 A 
BRANCH   7   8
ATOM      8  O   UNL     1       4.025  -5.223  -0.445  0.00  0.00    -0.506 OA
ATOM      9  H   UNL     1       3.207  -5.690  -0.226  0.00  0.00    +0.292 HD
ENDBRANCH   7   8
BRANCH   5  10
ATOM     10  O   UNL     1       6.320  -7.429  -3.978  0.00  0.00    -0.507 OA
ATOM     11  H   UNL     1       7.266  -7.236  -3.940  0.00  0.00    +0.292 HD
ENDBRANCH   5  10
BRANCH   3  12
ATOM     12  O   UNL     1       3.834  -3.472  -4.862  0.00  0.00    -0.506 OA
ATOM     13  H   UNL     1       4.459  -2.749  -5.009  0.00  0.00    +0.292 HD
ENDBRANCH   3  12
ENDBRANCH   1   2
BRANCH   1  14
ATOM     14  C   UNL     1       3.875  -2.224  -1.394  0.00  0.00    +0.239 C 
ATOM     15  O   UNL     1       3.636  -2.012  -0.224  0.00  0.00    -0.273 OA
ATOM     16  N   UNL     1       4.887  -1.575  -2.003  0.00  0.00    -0.309 N 
ATOM     17  H   UNL     1       5.078  -1.745  -2.939  0.00  0.00    +0.149 HD
BRANCH  16  18
ATOM     18  C   UNL     1       5.698  -0.614  -1.253  0.00  0.00    +0.026 C 
ATOM     19  C   UNL     1       6.370  -1.322  -0.075  0.00  0.00    +0.031 C 
ATOM     20  C   UNL     1       6.769  -0.024  -2.172  0.00  0.00    +0.031 C 
ATOM     21  C   UNL     1       4.801   0.510  -0.728  0.00  0.00    +0.031 C 
ENDBRANCH  16  18
ENDBRANCH   1  14
BRANCH   1  22
ATOM     22  N   UNL     1       1.991  -3.751  -1.296  0.00  0.00    -0.278 N 
ATOM     23  C   UNL     1       0.982  -4.472  -1.824  0.00  0.00    +0.217 C 
ATOM     24  O   UNL     1       0.943  -4.676  -3.019  0.00  0.00    -0.276 OA
BRANCH  22  25
ATOM     25  C   UNL     1       2.038  -3.504   0.147  0.00  0.00    +0.183 C 
BRANCH  25  30
ATOM     26  C   UNL     1       1.252   1.375   1.156  0.00  0.00    +0.086 C 
ATOM     27  C   UNL     1       0.993  -0.087   0.897  0.00  0.00    +0.102 A 
ATOM     28  C   UNL     1      -0.213  -0.683   0.891  0.00  0.00    +0.045 A 
ATOM     29  C   UNL     1       0.007  -2.051   0.608  0.00  0.00    +0.046 A 
ATOM     30  C   UNL     1       1.334  -2.209   0.459  0.00  0.00    +0.122 A 
ATOM     31  O   UNL     1       1.926  -1.015   0.629  0.00  0.00    -0.463 OA
ENDBRANCH  25  30
ENDBRANCH  22  25
BRANCH  23  32
ATOM     32  C   UNL     1      -0.098  -5.024  -0.929  0.00  0.00    +0.104 C 
BRANCH  32  33
ATOM     33  C   UNL     1      -1.113  -5.797  -1.774  0.00  0.00    +0.025 C 
ATOM     34  C   UNL     1      -0.436  -7.021  -2.393  0.00  0.00    +0.013 C 
BRANCH  33  35
ATOM     35  C   UNL     1      -2.256  -6.244  -0.899  0.00  0.00    -0.044 A 
ATOM     36  C   UNL     1      -2.016  -7.071   0.183  0.00  0.00    +0.004 A 
ATOM     37  C   UNL     1      -3.065  -7.481   0.985  0.00  0.00    +0.000 A 
ATOM     38  C   UNL     1      -4.353  -7.065   0.706  0.00  0.00    +0.000 A 
ATOM     39  C   UNL     1      -4.593  -6.238  -0.376  0.00  0.00    +0.000 A 
ATOM     40  C   UNL     1      -3.544  -5.824  -1.175  0.00  0.00    +0.004 A 
ENDBRANCH  33  35
ENDBRANCH  32  33
ENDBRANCH  23  32
ENDBRANCH   1  22
TORSDOF 12
