REMARK  Name = ZINC59876071
REMARK  13 active torsions:
REMARK  status: ('A' for Active; 'I' for Inactive)
REMARK    1  A    between atoms: C_1  and  C_2
REMARK    2  A    between atoms: C_2  and  C_3
REMARK    3  A    between atoms: C_6  and  C_9
REMARK    4  A    between atoms: C_9  and  C_11
REMARK    5  A    between atoms: C_9  and  N_31
REMARK    6  A    between atoms: C_11  and  N_12
REMARK    7  A    between atoms: C_13  and  C_15
REMARK    8  A    between atoms: C_15  and  C_16
REMARK    9  A    between atoms: C_16  and  C_17
REMARK   10  A    between atoms: C_17  and  C_18
REMARK   11  A    between atoms: C_18  and  C_19
REMARK   12  A    between atoms: N_31  and  C_32
REMARK   13  A    between atoms: N_31  and  C_33
REMARK                            x       y       z     vdW  Elec       q    Type
REMARK                         _______ _______ _______ _____ _____    ______ ____
ROOT
ATOM      1  N   UNL     1       3.457  -1.988   6.880  0.00  0.00    -0.317 N 
ATOM      2  C   UNL     1       3.742  -1.354   8.035  0.00  0.00    +0.213 C 
ATOM      3  O   UNL     1       3.682  -0.144   8.094  0.00  0.00    -0.276 OA
ATOM      4  H   UNL     1       3.505  -2.955   6.833  0.00  0.00    +0.149 HD
ENDROOT
BRANCH   1   5
ATOM      5  C   UNL     1       3.074  -1.215   5.696  0.00  0.00    +0.093 C 
BRANCH   5   6
ATOM      6  C   UNL     1       2.713  -2.171   4.558  0.00  0.00    -0.021 C 
BRANCH   6  10
ATOM      7  C   UNL     1       6.173  -4.404   3.422  0.00  0.00    -0.048 A 
ATOM      8  C   UNL     1       5.223  -4.974   4.249  0.00  0.00    +0.004 A 
ATOM      9  C   UNL     1       4.104  -4.251   4.617  0.00  0.00    +0.002 A 
ATOM     10  C   UNL     1       3.934  -2.958   4.157  0.00  0.00    -0.059 A 
ATOM     11  C   UNL     1       4.885  -2.388   3.331  0.00  0.00    +0.002 A 
ATOM     12  C   UNL     1       6.006  -3.109   2.967  0.00  0.00    +0.004 A 
BRANCH   7  14
ATOM     13  C   UNL     1       8.508  -4.961   4.044  0.00  0.00    +0.009 C 
ATOM     14  C   UNL     1       7.394  -5.192   3.021  0.00  0.00    +0.032 C 
ENDBRANCH   7  14
ENDBRANCH   6  10
BRANCH   6  15
ATOM     15  N   UNL     1       2.229  -1.399   3.405  0.00  0.00    +0.382 N 
ATOM     16  C   UNL     1       1.926  -2.314   2.296  0.00  0.00    -0.096 C 
ATOM     17  C   UNL     1       1.013  -0.667   3.782  0.00  0.00    -0.096 C 
ATOM     18  H   UNL     1       2.940  -0.744   3.116  0.00  0.00    -0.082 HD
ENDBRANCH   6  15
ENDBRANCH   5   6
ENDBRANCH   1   5
BRANCH   2  19
ATOM     19  C   UNL     1       4.136  -2.150   9.253  0.00  0.00    +0.096 C 
BRANCH  19  20
ATOM     20  C   UNL     1       4.405  -1.196  10.419  0.00  0.00    +0.009 C 
BRANCH  20  21
ATOM     21  C   UNL     1       4.805  -2.004  11.656  0.00  0.00    +0.002 C 
BRANCH  21  22
ATOM     22  C   UNL     1       5.073  -1.051  12.822  0.00  0.00    +0.016 C 
BRANCH  22  23
ATOM     23  C   UNL     1       5.474  -1.858  14.059  0.00  0.00    +0.069 C 
ATOM     24  C   UNL     1       5.795  -0.928  15.248  0.00  0.00    +0.108 C 
ATOM     25  C   UNL     1       5.274  -1.445  16.592  0.00  0.00    +0.105 C 
ATOM     26  C   UNL     1       4.522  -2.790  16.490  0.00  0.00    +0.093 C 
ATOM     27  S   UNL     1       4.040  -2.814  14.719  0.00  0.00    -0.154 S 
ATOM     28  N   UNL     1       4.328  -0.407  17.032  0.00  0.00    -0.294 N 
ATOM     29  C   UNL     1       4.288   0.566  16.112  0.00  0.00    +0.300 C 
ATOM     30  O   UNL     1       3.587   1.553  16.220  0.00  0.00    -0.253 OA
ATOM     31  N   UNL     1       5.085   0.348  15.066  0.00  0.00    -0.294 N 
ATOM     32  H   UNL     1       3.816  -0.424  17.856  0.00  0.00    +0.151 HD
ATOM     33  H   UNL     1       5.180   0.942  14.306  0.00  0.00    +0.151 HD
ENDBRANCH  22  23
ENDBRANCH  21  22
ENDBRANCH  20  21
ENDBRANCH  19  20
ENDBRANCH   2  19
TORSDOF 10
