REMARK  Name = ZINC13033473
REMARK  14 active torsions:
REMARK  status: ('A' for Active; 'I' for Inactive)
REMARK    1  A    between atoms: C_1  and  C_2
REMARK    2  A    between atoms: C_2  and  C_3
REMARK    3  A    between atoms: C_2  and  C_4
REMARK    4  A    between atoms: C_2  and  N_5
REMARK    5  A    between atoms: C_6  and  C_10
REMARK    6  A    between atoms: C_10  and  N_65
REMARK    7  A    between atoms: C_11  and  C_12
REMARK    8  A    between atoms: C_11  and  N_65
REMARK    9  A    between atoms: C_16  and  O_26
REMARK   10  A    between atoms: C_17  and  O_24
REMARK   11  A    between atoms: O_24  and  C_25
REMARK   12  A    between atoms: O_26  and  C_27
REMARK   13  A    between atoms: C_28  and  C_29
REMARK   14  A    between atoms: C_28  and  N_65
REMARK                            x       y       z     vdW  Elec       q    Type
REMARK                         _______ _______ _______ _____ _____    ______ ____
ROOT
ATOM      1  N   UNL     1      -2.471   1.014   4.407  0.00  0.00    +0.389 N 
ATOM      2  H   UNL     1      -2.279   0.191   4.990  0.00  0.00    -0.081 HD
ENDROOT
BRANCH   1   3
ATOM      3  C   UNL     1      -1.274   1.880   4.390  0.00  0.00    +0.001 C 
BRANCH   3   5
ATOM      4  N   UNL     1       0.801   0.428   4.693  0.00  0.00    -0.226 N 
ATOM      5  C   UNL     1      -0.093   1.069   3.919  0.00  0.00    +0.136 A 
ATOM      6  N   UNL     1       0.263   0.855   2.676  0.00  0.00    -0.115 NA
ATOM      7  N   UNL     1       1.316   0.114   2.686  0.00  0.00    -0.023 NA
ATOM      8  N   UNL     1       1.645  -0.146   3.904  0.00  0.00    -0.043 NA
BRANCH   4  10
ATOM      9  C   UNL     1       1.911  -0.569   6.632  0.00  0.00    +0.036 C 
ATOM     10  C   UNL     1       0.813   0.386   6.158  0.00  0.00    +0.059 C 
ATOM     11  C   UNL     1      -0.545  -0.107   6.664  0.00  0.00    +0.036 C 
ATOM     12  C   UNL     1       1.083   1.788   6.707  0.00  0.00    +0.036 C 
ENDBRANCH   4  10
ENDBRANCH   3   5
ENDBRANCH   1   3
BRANCH   1  13
ATOM     13  C   UNL     1      -3.618   1.750   4.980  0.00  0.00    -0.037 C 
BRANCH  13  14
ATOM     14  C   UNL     1      -4.701   0.762   5.330  0.00  0.00    +0.001 A 
ATOM     15  C   UNL     1      -4.768   0.250   6.586  0.00  0.00    +0.017 A 
ATOM     16  C   UNL     1      -5.834  -0.702   6.896  0.00  0.00    +0.002 A 
ATOM     17  C   UNL     1      -5.955  -1.258   8.176  0.00  0.00    +0.059 A 
ATOM     18  C   UNL     1      -6.967  -2.155   8.436  0.00  0.00    +0.162 A 
ATOM     19  C   UNL     1      -7.870  -2.512   7.429  0.00  0.00    +0.163 A 
ATOM     20  C   UNL     1      -7.759  -1.969   6.162  0.00  0.00    +0.075 A 
ATOM     21  C   UNL     1      -6.744  -1.062   5.883  0.00  0.00    +0.053 A 
ATOM     22  N   UNL     1      -6.617  -0.508   4.625  0.00  0.00    -0.322 N 
ATOM     23  H   UNL     1      -7.244  -0.757   3.928  0.00  0.00    +0.169 HD
ATOM     24  C   UNL     1      -5.637   0.370   4.352  0.00  0.00    +0.251 A 
ATOM     25  O   UNL     1      -5.554   0.839   3.229  0.00  0.00    -0.268 OA
BRANCH  19  26
ATOM     26  O   UNL     1      -8.863  -3.398   7.697  0.00  0.00    -0.491 OA
ATOM     27  C   UNL     1      -9.752  -3.721   6.626  0.00  0.00    +0.277 C 
ENDBRANCH  19  26
BRANCH  18  28
ATOM     28  O   UNL     1      -7.089  -2.697   9.678  0.00  0.00    -0.491 OA
ATOM     29  C   UNL     1      -6.134  -2.291  10.660  0.00  0.00    +0.277 C 
ENDBRANCH  18  28
ENDBRANCH  13  14
ENDBRANCH   1  13
BRANCH   1  30
ATOM     30  C   UNL     1      -2.792   0.568   3.035  0.00  0.00    -0.046 C 
BRANCH  30  31
ATOM     31  C   UNL     1      -3.020   1.771   2.119  0.00  0.00    +0.102 C 
ATOM     32  C   UNL     1      -3.519   1.305   0.733  0.00  0.00    +0.032 C 
ATOM     33  C   UNL     1      -2.830   2.270  -0.258  0.00  0.00    +0.030 C 
ATOM     34  C   UNL     1      -1.996   3.205   0.646  0.00  0.00    +0.160 C 
ATOM     35  O   UNL     1      -1.770   2.445   1.854  0.00  0.00    -0.378 OA
ENDBRANCH  30  31
ENDBRANCH   1  30
TORSDOF 9
