REMARK  Name = ZINC65134638
REMARK  7 active torsions:
REMARK  status: ('A' for Active; 'I' for Inactive)
REMARK    1  A    between atoms: C_1  and  C_2
REMARK    2  A    between atoms: C_2  and  C_3
REMARK    3  A    between atoms: C_2  and  C_4
REMARK    4  A    between atoms: C_4  and  C_5
REMARK    5  A    between atoms: C_5  and  N_6
REMARK    6  A    between atoms: N_9  and  N_10
REMARK    7  A    between atoms: C_11  and  C_13
REMARK                            x       y       z     vdW  Elec       q    Type
REMARK                         _______ _______ _______ _____ _____    ______ ____
ROOT
ATOM      1  N   UNL     1      -5.360  -3.464  -0.087  0.00  0.00    -0.229 N 
ATOM      2  C   UNL     1      -6.624  -3.930  -0.077  0.00  0.00    +0.262 C 
ATOM      3  O   UNL     1      -6.832  -5.125  -0.174  0.00  0.00    -0.269 OA
ATOM      4  H   UNL     1      -5.194  -2.511  -0.010  0.00  0.00    +0.173 HD
ENDROOT
BRANCH   2   5
ATOM      5  C   UNL     1      -7.755  -2.992   0.050  0.00  0.00    +0.062 A 
ATOM      6  C   UNL     1      -7.521  -1.623   0.154  0.00  0.00    +0.015 A 
ATOM      7  C   UNL     1      -8.578  -0.738   0.275  0.00  0.00    +0.001 A 
ATOM      8  C   UNL     1      -9.878  -1.196   0.293  0.00  0.00    +0.010 A 
ATOM      9  C   UNL     1     -10.140  -2.563   0.190  0.00  0.00    +0.004 A 
ATOM     10  C   UNL     1      -9.074  -3.474   0.060  0.00  0.00    +0.059 A 
ATOM     11  N   UNL     1      -9.618  -4.731  -0.029  0.00  0.00    -0.357 N 
ATOM     12  H   UNL     1      -9.110  -5.552  -0.123  0.00  0.00    +0.166 HD
ATOM     13  C   UNL     1     -10.982  -4.656   0.035  0.00  0.00    +0.020 A 
ATOM     14  C   UNL     1     -11.357  -3.370   0.175  0.00  0.00    -0.019 A 
ATOM     15  C   UNL     1     -12.784  -2.899   0.278  0.00  0.00    +0.037 C 
ATOM     16  C   UNL     1     -13.705  -4.034  -0.188  0.00  0.00    +0.005 C 
ATOM     17  C   UNL     1     -13.311  -5.331   0.525  0.00  0.00    +0.006 C 
ATOM     18  C   UNL     1     -11.956  -5.811  -0.024  0.00  0.00    +0.053 C 
ENDBRANCH   2   5
BRANCH   1  22
ATOM     19  N   UNL     1      -2.790  -2.565  -0.111  0.00  0.00    -0.298 N 
ATOM     20  C   UNL     1      -3.021  -3.888  -0.217  0.00  0.00    +0.316 C 
ATOM     21  O   UNL     1      -2.088  -4.662  -0.322  0.00  0.00    -0.251 OA
ATOM     22  N   UNL     1      -4.285  -4.355  -0.208  0.00  0.00    -0.218 N 
ATOM     23  H   UNL     1      -3.534  -1.948  -0.027  0.00  0.00    +0.150 HD
ATOM     24  H   UNL     1      -4.451  -5.307  -0.285  0.00  0.00    +0.174 HD
BRANCH  19  25
ATOM     25  C   UNL     1      -1.416  -2.058  -0.121  0.00  0.00    +0.106 C 
BRANCH  25  26
ATOM     26  C   UNL     1      -1.433  -0.534   0.013  0.00  0.00    +0.022 C 
BRANCH  26  28
ATOM     27  C   UNL     1      -0.019   1.526   0.010  0.00  0.00    +0.007 C 
ATOM     28  C   UNL     1       0.002  -0.004   0.002  0.00  0.00    -0.016 C 
ATOM     29  C   UNL     1       0.742  -0.511   1.242  0.00  0.00    +0.007 C 
ENDBRANCH  26  28
ENDBRANCH  25  26
ENDBRANCH  19  25
ENDBRANCH   1  22
TORSDOF 5
