REMARK  Name = ZINC39012329
REMARK  4 active torsions:
REMARK  status: ('A' for Active; 'I' for Inactive)
REMARK    1  A    between atoms: C_4  and  O_24
REMARK    2  A    between atoms: C_5  and  C_7
REMARK    3  A    between atoms: N_8  and  N_9
REMARK    4  A    between atoms: C_10  and  C_16
REMARK                            x       y       z     vdW  Elec       q    Type
REMARK                         _______ _______ _______ _____ _____    ______ ____
ROOT
ATOM      1  N   UNL     1       2.417  -4.182   0.059  0.00  0.00    -0.172 N 
ATOM      2  C   UNL     1       3.601  -5.055   0.166  0.00  0.00    +0.265 C 
ATOM      3  N   UNL     1       3.034  -6.410   0.236  0.00  0.00    -0.189 NA
ATOM      4  N   UNL     1       1.805  -6.316   0.180  0.00  0.00    -0.219 N 
ATOM      5  C   UNL     1       1.367  -5.032   0.081  0.00  0.00    +0.174 C 
ATOM      6  S   UNL     1      -0.277  -4.562  -0.007  0.00  0.00    -0.015 S 
ATOM      7  H   UNL     1       1.210  -7.081   0.209  0.00  0.00    +0.176 HD
ENDROOT
BRANCH   2   8
ATOM      8  C   UNL     1       4.478  -4.907  -1.050  0.00  0.00    +0.016 A 
ATOM      9  C   UNL     1       4.446  -3.739  -1.789  0.00  0.00    +0.010 A 
ATOM     10  C   UNL     1       5.250  -3.603  -2.904  0.00  0.00    +0.020 A 
ATOM     11  C   UNL     1       6.089  -4.636  -3.282  0.00  0.00    +0.042 A 
ATOM     12  C   UNL     1       6.123  -5.805  -2.544  0.00  0.00    +0.040 A 
ATOM     13  C   UNL     1       5.321  -5.939  -1.425  0.00  0.00    +0.049 A 
ATOM     14 CL   UNL     1       5.367  -7.404  -0.493  0.00  0.00    -0.083 Cl
ATOM     15 CL   UNL     1       7.099  -4.466  -4.684  0.00  0.00    -0.083 Cl
ENDBRANCH   2   8
BRANCH   1  17
ATOM     16  C   UNL     1       1.259  -2.171  -0.233  0.00  0.00    +0.142 C 
ATOM     17  N   UNL     1       2.387  -2.785  -0.038  0.00  0.00    -0.183 NA
BRANCH  16  22
ATOM     18  C   UNL     1      -0.034   1.344  -0.454  0.00  0.00    +0.001 A 
ATOM     19  C   UNL     1       1.125   2.073  -0.251  0.00  0.00    +0.004 A 
ATOM     20  C   UNL     1       2.330   1.428  -0.043  0.00  0.00    +0.046 A 
ATOM     21  C   UNL     1       2.384   0.044  -0.035  0.00  0.00    +0.125 A 
ATOM     22  C   UNL     1       1.213  -0.699  -0.239  0.00  0.00    +0.036 A 
ATOM     23  C   UNL     1       0.002  -0.035  -0.449  0.00  0.00    +0.013 A 
BRANCH  21  24
ATOM     24  O   UNL     1       3.567  -0.591   0.169  0.00  0.00    -0.506 OA
ATOM     25  H   UNL     1       3.759  -0.775   1.099  0.00  0.00    +0.292 HD
ENDBRANCH  21  24
ENDBRANCH  16  22
ENDBRANCH   1  17
TORSDOF 4
