REMARK  Name = ZINC11997626
REMARK  11 active torsions:
REMARK  status: ('A' for Active; 'I' for Inactive)
REMARK    1  A    between atoms: C_1  and  C_2
REMARK    2  A    between atoms: C_2  and  C_3
REMARK    3  A    between atoms: C_6  and  C_9
REMARK    4  A    between atoms: C_9  and  C_11
REMARK    5  A    between atoms: C_9  and  N_58
REMARK    6  A    between atoms: C_11  and  N_12
REMARK    7  A    between atoms: N_12  and  S_13
REMARK    8  A    between atoms: S_13  and  C_16
REMARK    9  A    between atoms: C_19  and  N_22
REMARK   10  A    between atoms: C_30  and  N_58
REMARK   11  A    between atoms: C_31  and  N_58
REMARK                            x       y       z     vdW  Elec       q    Type
REMARK                         _______ _______ _______ _____ _____    ______ ____
ROOT
ATOM      1  S   UNL     1       8.050  -1.756   1.685  0.00  0.00    +0.058 S 
ATOM      2  O   UNL     1       8.249  -0.940   2.831  0.00  0.00    -0.153 OA
ATOM      3  O   UNL     1       8.191  -3.169   1.722  0.00  0.00    -0.153 OA
ENDROOT
BRANCH   1   4
ATOM      4  C   UNL     1       6.417  -1.427   1.110  0.00  0.00    +0.105 A 
ATOM      5  C   UNL     1       5.750  -2.371   0.351  0.00  0.00    +0.030 A 
ATOM      6  C   UNL     1       4.470  -2.117  -0.101  0.00  0.00    +0.027 A 
ATOM      7  C   UNL     1       3.853  -0.911   0.208  0.00  0.00    +0.059 A 
ATOM      8  C   UNL     1       4.528   0.037   0.965  0.00  0.00    +0.027 A 
ATOM      9  C   UNL     1       5.806  -0.226   1.419  0.00  0.00    +0.030 A 
BRANCH   7  10
ATOM     10  N   UNL     1       2.556  -0.651  -0.248  0.00  0.00    -0.144 N 
ATOM     11  C   UNL     1       1.630  -1.569  -0.562  0.00  0.00    +0.240 C 
ATOM     12  O   UNL     1       1.862  -2.753  -0.434  0.00  0.00    -0.274 OA
ATOM     13  C   UNL     1       0.302  -1.099  -1.074  0.00  0.00    +0.122 C 
ATOM     14  C   UNL     1       0.118   0.391  -0.681  0.00  0.00    +0.198 C 
ATOM     15  S   UNL     1       1.886   0.863  -0.500  0.00  0.00    +0.052 S 
ATOM     16  O   UNL     1       2.419   1.319  -1.736  0.00  0.00    -0.155 OA
ATOM     17  O   UNL     1       2.098   1.583   0.707  0.00  0.00    -0.155 OA
ENDBRANCH   7  10
ENDBRANCH   1   4
BRANCH   1  18
ATOM     18  N   UNL     1       9.097  -1.206   0.525  0.00  0.00    -0.191 NA
ATOM     19  H   UNL     1       9.661  -1.833   0.045  0.00  0.00    +0.148 HD
BRANCH  18  20
ATOM     20  C   UNL     1       9.172   0.226   0.225  0.00  0.00    +0.095 C 
BRANCH  20  21
ATOM     21  C   UNL     1      10.467   0.521  -0.534  0.00  0.00    -0.023 C 
BRANCH  21  25
ATOM     22  C   UNL     1      13.818  -0.421   1.942  0.00  0.00    -0.048 A 
ATOM     23  C   UNL     1      13.407  -1.310   0.967  0.00  0.00    +0.004 A 
ATOM     24  C   UNL     1      12.323  -1.006   0.166  0.00  0.00    +0.002 A 
ATOM     25  C   UNL     1      11.649   0.189   0.340  0.00  0.00    -0.060 A 
ATOM     26  C   UNL     1      12.062   1.081   1.311  0.00  0.00    +0.002 A 
ATOM     27  C   UNL     1      13.143   0.774   2.116  0.00  0.00    +0.004 A 
BRANCH  22  29
ATOM     28  C   UNL     1      16.280  -0.230   2.161  0.00  0.00    +0.009 C 
ATOM     29  C   UNL     1      15.000  -0.753   2.816  0.00  0.00    +0.032 C 
ENDBRANCH  22  29
ENDBRANCH  21  25
BRANCH  21  32
ATOM     30  C   UNL     1      11.725   2.258  -1.658  0.00  0.00    -0.096 C 
ATOM     31  C   UNL     1       9.305   2.335  -1.639  0.00  0.00    -0.096 C 
ATOM     32  N   UNL     1      10.510   1.959  -0.871  0.00  0.00    +0.381 N 
ATOM     33  H   UNL     1      10.534   2.505  -0.001  0.00  0.00    -0.082 HD
ENDBRANCH  21  32
ENDBRANCH  20  21
ENDBRANCH  18  20
ENDBRANCH   1  18
TORSDOF 8
