REMARK  Name = ZINC66386484
REMARK  6 active torsions:
REMARK  status: ('A' for Active; 'I' for Inactive)
REMARK    1  A    between atoms: C_1  and  C_2
REMARK    2  A    between atoms: C_2  and  C_3
REMARK    3  A    between atoms: C_2  and  N_4
REMARK    4  A    between atoms: C_6  and  N_9
REMARK    5  A    between atoms: C_10  and  C_12
REMARK    6  A    between atoms: C_15  and  C_17
REMARK                            x       y       z     vdW  Elec       q    Type
REMARK                         _______ _______ _______ _____ _____    ______ ____
ROOT
ATOM      1  N   UNL     1       3.568  -1.410   3.098  0.00  0.00    -0.283 N 
ATOM      2  C   UNL     1       3.672  -1.872   4.360  0.00  0.00    +0.221 C 
ATOM      3  O   UNL     1       2.675  -2.031   5.032  0.00  0.00    -0.275 OA
ATOM      4  H   UNL     1       4.366  -1.282   2.561  0.00  0.00    +0.155 HD
ENDROOT
BRANCH   1   7
ATOM      5  N   UNL     1       0.711  -0.489   1.189  0.00  0.00    -0.267 N 
ATOM      6  C   UNL     1       2.055  -0.643   1.310  0.00  0.00    +0.132 A 
ATOM      7  C   UNL     1       2.302  -1.112   2.560  0.00  0.00    +0.071 A 
ATOM      8  C   UNL     1       1.071  -1.249   3.219  0.00  0.00    +0.157 A 
ATOM      9  N   UNL     1       0.122  -0.871   2.401  0.00  0.00    -0.178 NA
BRANCH   5  11
ATOM     10  C   UNL     1      -0.019   1.526   0.010  0.00  0.00    +0.032 C 
ATOM     11  C   UNL     1       0.002  -0.004   0.002  0.00  0.00    +0.101 C 
ATOM     12  C   UNL     1       0.718  -0.497  -1.257  0.00  0.00    +0.032 C 
ENDBRANCH   5  11
ENDBRANCH   1   7
BRANCH   2  13
ATOM     13  C   UNL     1       5.028  -2.190   4.936  0.00  0.00    +0.083 C 
ATOM     14  C   UNL     1       5.549  -1.287   6.056  0.00  0.00    +0.022 C 
ATOM     15  C   UNL     1       5.080  -2.709   6.375  0.00  0.00    +0.032 C 
BRANCH  15  16
ATOM     16  C   UNL     1       3.772  -2.863   7.107  0.00  0.00    -0.043 A 
ATOM     17  C   UNL     1       2.956  -1.764   7.303  0.00  0.00    +0.005 A 
ATOM     18  C   UNL     1       1.756  -1.904   7.973  0.00  0.00    +0.015 A 
ATOM     19  C   UNL     1       1.371  -3.145   8.449  0.00  0.00    +0.018 A 
ATOM     20  C   UNL     1       2.187  -4.244   8.253  0.00  0.00    +0.015 A 
ATOM     21  C   UNL     1       3.385  -4.104   7.577  0.00  0.00    +0.005 A 
ATOM     22 BR   UNL     1      -0.271  -3.337   9.368  0.00  0.00    -0.050 Br
ENDBRANCH  15  16
ENDBRANCH   2  13
TORSDOF 4
