REMARK  Name = ZINC20154206
REMARK  5 active torsions:
REMARK  status: ('A' for Active; 'I' for Inactive)
REMARK    1  A    between atoms: C_5  and  N_7
REMARK    2  A    between atoms: C_11  and  C_14
REMARK    3  A    between atoms: N_16  and  C_17
REMARK    4  A    between atoms: C_20  and  N_26
REMARK    5  A    between atoms: C_21  and  N_23
REMARK                            x       y       z     vdW  Elec       q    Type
REMARK                         _______ _______ _______ _____ _____    ______ ____
ROOT
ATOM      1  C   UNL     1      -3.413   3.870   0.717  0.00  0.00    +0.256 C 
ATOM      2  O   UNL     1      -4.309   4.418   1.333  0.00  0.00    -0.269 OA
ATOM      3  N   UNL     1      -3.659   2.729   0.043  0.00  0.00    -0.281 N 
ATOM      4  H   UNL     1      -2.871   2.275  -0.576  0.00  0.00    +0.155 HD
ENDROOT
BRANCH   1  12
ATOM      5  C   UNL     1       1.681   7.341   1.529  0.00  0.00    +0.003 A 
ATOM      6  C   UNL     1       0.362   7.109   1.752  0.00  0.00    +0.010 A 
ATOM      7  C   UNL     1      -0.281   5.976   1.191  0.00  0.00    +0.010 A 
ATOM      8  C   UNL     1       0.525   5.122   0.401  0.00  0.00    +0.052 A 
ATOM      9  C   UNL     1       1.863   5.370   0.183  0.00  0.00    +0.140 A 
ATOM     10  C   UNL     1       2.449   6.485   0.749  0.00  0.00    +0.034 A 
ATOM     11  S   UNL     1      -0.600   3.850  -0.113  0.00  0.00    -0.080 S 
ATOM     12  C   UNL     1      -2.066   4.453   0.707  0.00  0.00    +0.094 A 
ATOM     13  C   UNL     1      -1.628   5.586   1.319  0.00  0.00    +0.068 A 
ATOM     14 CL   UNL     1      -2.725   6.545   2.262  0.00  0.00    -0.082 Cl
BRANCH   9  15
ATOM     15  N   UNL     1       2.666   4.448  -0.650  0.00  0.00    +0.058 N 
ATOM     16  O   UNL     1       3.849   4.671  -0.840  0.00  0.00    -0.126 OA
ATOM     17  O   UNL     1       2.145   3.465  -1.147  0.00  0.00    -0.126 OA
ENDBRANCH   9  15
ENDBRANCH   1  12
BRANCH   3  18
ATOM     18  C   UNL     1      -4.918   2.121   0.132  0.00  0.00    +0.036 A 
ATOM     19  C   UNL     1      -5.023   0.736   0.117  0.00  0.00    +0.025 A 
ATOM     20  C   UNL     1      -6.263   0.137   0.208  0.00  0.00    +0.027 A 
ATOM     21  C   UNL     1      -7.407   0.919   0.306  0.00  0.00    +0.060 A 
ATOM     22  C   UNL     1      -7.302   2.303   0.316  0.00  0.00    +0.149 A 
ATOM     23  C   UNL     1      -6.061   2.903   0.229  0.00  0.00    +0.058 A 
BRANCH  21  24
ATOM     24  N   UNL     1      -8.664   0.311   0.393  0.00  0.00    -0.332 N 
ATOM     25  C   UNL     1      -8.925  -0.530  -0.783  0.00  0.00    +0.086 C 
ATOM     26  C   UNL     1     -10.338  -1.111  -0.687  0.00  0.00    -0.063 C 
ATOM     27  N   UNL     1     -10.461  -1.891   0.552  0.00  0.00    +0.381 N 
ATOM     28  C   UNL     1     -10.200  -1.050   1.728  0.00  0.00    -0.063 C 
ATOM     29  C   UNL     1      -8.787  -0.469   1.633  0.00  0.00    +0.086 C 
ATOM     30  H   UNL     1     -11.480  -2.300   0.628  0.00  0.00    -0.086 HD
ATOM     31  H   UNL     1      -9.735  -2.717   0.539  0.00  0.00    -0.086 HD
ENDBRANCH  21  24
BRANCH  22  32
ATOM     32  N   UNL     1      -8.521   3.137   0.420  0.00  0.00    +0.058 N 
ATOM     33  O   UNL     1      -8.439   4.349   0.332  0.00  0.00    -0.126 OA
ATOM     34  O   UNL     1      -9.606   2.610   0.593  0.00  0.00    -0.126 OA
ENDBRANCH  22  32
ENDBRANCH   3  18
TORSDOF 5
