REMARK  Name = ZINC00717453
REMARK  8 active torsions:
REMARK  status: ('A' for Active; 'I' for Inactive)
REMARK    1  A    between atoms: C_1  and  C_2
REMARK    2  A    between atoms: C_2  and  O_3
REMARK    3  A    between atoms: O_3  and  C_4
REMARK    4  A    between atoms: C_6  and  C_12
REMARK    5  A    between atoms: C_9  and  O_10
REMARK    6  A    between atoms: C_15  and  C_26
REMARK    7  A    between atoms: C_21  and  N_25
REMARK    8  A    between atoms: C_22  and  C_23
REMARK                            x       y       z     vdW  Elec       q    Type
REMARK                         _______ _______ _______ _____ _____    ______ ____
ROOT
ATOM      1  C   UNL     1      -0.298  -4.998   0.586  0.00  0.00    +0.102 C 
ATOM      2  C   UNL     1       0.805  -5.934   1.006  0.00  0.00    +0.054 A 
ATOM      3  C   UNL     1       1.936  -5.676   1.785  0.00  0.00    +0.100 A 
ATOM      4  N   UNL     1       2.622  -6.798   1.891  0.00  0.00    -0.171 NA
ATOM      5  N   UNL     1       1.943  -7.800   1.180  0.00  0.00    -0.246 N 
ATOM      6  H   UNL     1       2.223  -8.724   1.088  0.00  0.00    +0.192 HD
ATOM      7  C   UNL     1       0.832  -7.251   0.646  0.00  0.00    +0.223 A 
ATOM      8  O   UNL     1      -0.134  -7.821  -0.117  0.00  0.00    -0.423 OA
ATOM      9  C   UNL     1      -1.279  -7.131  -0.294  0.00  0.00    +0.200 C 
ATOM     10  C   UNL     1      -1.424  -5.822   0.012  0.00  0.00    +0.098 C 
ENDROOT
BRANCH   3  11
ATOM     11  C   UNL     1       2.301  -4.370   2.388  0.00  0.00    +0.006 A 
ATOM     12  C   UNL     1       1.323  -3.581   2.990  0.00  0.00    +0.014 A 
ATOM     13  C   UNL     1       1.664  -2.367   3.550  0.00  0.00    +0.050 A 
ATOM     14  C   UNL     1       2.979  -1.927   3.516  0.00  0.00    +0.166 A 
ATOM     15  C   UNL     1       3.961  -2.712   2.915  0.00  0.00    +0.167 A 
ATOM     16  C   UNL     1       3.624  -3.932   2.357  0.00  0.00    +0.059 A 
ATOM     17  O   UNL     1       5.158  -2.063   3.013  0.00  0.00    -0.453 OA
ATOM     18  C   UNL     1       4.830  -0.694   3.315  0.00  0.00    +0.466 C 
ATOM     19  O   UNL     1       3.562  -0.787   3.990  0.00  0.00    -0.453 OA
ENDBRANCH   3  11
BRANCH   1  22
ATOM     20  C   UNL     1       0.581  -1.798  -1.222  0.00  0.00    +0.163 A 
ATOM     21  C   UNL     1       0.108  -2.679  -0.261  0.00  0.00    +0.054 A 
ATOM     22  C   UNL     1       0.217  -4.042  -0.460  0.00  0.00    -0.030 A 
ATOM     23  C   UNL     1       0.797  -4.532  -1.615  0.00  0.00    +0.023 A 
ATOM     24  C   UNL     1       1.271  -3.659  -2.578  0.00  0.00    +0.063 A 
ATOM     25  C   UNL     1       1.160  -2.290  -2.387  0.00  0.00    +0.173 A 
ATOM     26 BR   UNL     1       2.065  -4.332  -4.156  0.00  0.00    -0.046 Br
BRANCH  25  27
ATOM     27  O   UNL     1       1.620  -1.430  -3.335  0.00  0.00    -0.503 OA
ATOM     28  H   UNL     1       2.546  -1.176  -3.218  0.00  0.00    +0.292 HD
ENDBRANCH  25  27
BRANCH  20  29
ATOM     29  O   UNL     1       0.475  -0.457  -1.027  0.00  0.00    -0.489 OA
BRANCH  29  31
ATOM     30  C   UNL     1      -0.160   1.506   0.233  0.00  0.00    +0.048 C 
ATOM     31  C   UNL     1      -0.129  -0.024   0.193  0.00  0.00    +0.226 C 
ENDBRANCH  29  31
ENDBRANCH  20  29
ENDBRANCH   1  22
BRANCH   9  32
ATOM     32  N   UNL     1      -2.360  -7.795  -0.817  0.00  0.00    -0.328 N 
ATOM     33  H   UNL     1      -2.287  -8.735  -1.047  0.00  0.00    +0.145 HD
ATOM     34  H   UNL     1      -3.197  -7.325  -0.957  0.00  0.00    +0.145 HD
ENDBRANCH   9  32
BRANCH  10  35
ATOM     35  C   UNL     1      -2.691  -5.195  -0.215  0.00  0.00    +0.101 C 
ATOM     36  N   UNL     1      -3.696  -4.697  -0.396  0.00  0.00    -0.191 NA
ENDBRANCH  10  35
TORSDOF 7
