REMARK  Name = ZINC39450101
REMARK  7 active torsions:
REMARK  status: ('A' for Active; 'I' for Inactive)
REMARK    1  A    between atoms: C_1  and  S_2
REMARK    2  A    between atoms: S_2  and  C_3
REMARK    3  A    between atoms: C_13  and  C_16
REMARK    4  A    between atoms: C_16  and  C_17
REMARK    5  A    between atoms: N_25  and  S_26
REMARK    6  A    between atoms: S_26  and  O_29
REMARK    7  A    between atoms: O_29  and  C_30
REMARK                            x       y       z     vdW  Elec       q    Type
REMARK                         _______ _______ _______ _____ _____    ______ ____
ROOT
ATOM      1  C   UNL     1      -1.548  -0.386   0.025  0.00  0.00    +0.136 C 
ATOM      2  C   UNL     1      -1.791  -1.516  -0.982  0.00  0.00    +0.114 C 
ATOM      3  C   UNL     1      -1.694  -0.967  -2.381  0.00  0.00    +0.186 C 
ATOM      4  O   UNL     1      -1.318  -1.687  -3.285  0.00  0.00    -0.290 OA
ATOM      5  C   UNL     1      -2.038   0.377  -2.654  0.00  0.00    +0.137 A 
ATOM      6  C   UNL     1      -2.411   1.214  -1.618  0.00  0.00    +0.084 A 
ATOM      7  C   UNL     1      -2.776   2.608  -1.902  0.00  0.00    +0.099 A 
ATOM      8  C   UNL     1      -2.720   3.052  -3.241  0.00  0.00    +0.069 A 
ATOM      9  C   UNL     1      -3.061   4.374  -3.535  0.00  0.00    +0.021 A 
ATOM     10  C   UNL     1      -3.441   5.195  -2.488  0.00  0.00    -0.024 A 
ATOM     11  C   UNL     1      -3.472   4.689  -1.196  0.00  0.00    +0.115 A 
ATOM     12  N   UNL     1      -3.147   3.440  -0.938  0.00  0.00    -0.253 NA
ATOM     13  C   UNL     1      -2.305   2.107  -4.287  0.00  0.00    +0.283 A 
ATOM     14  O   UNL     1      -2.248   2.470  -5.447  0.00  0.00    -0.265 OA
ATOM     15  N   UNL     1      -1.988   0.841  -3.962  0.00  0.00    -0.141 N 
ATOM     16  N   UNL     1      -2.434   0.737  -0.321  0.00  0.00    -0.328 N 
ATOM     17  H   UNL     1      -3.020   1.131   0.345  0.00  0.00    +0.147 HD
ENDROOT
BRANCH  15  18
ATOM     18  S   UNL     1      -1.522  -0.201  -5.162  0.00  0.00    +0.224 S 
ATOM     19  O   UNL     1      -1.736   0.476  -6.393  0.00  0.00    -0.113 OA
ATOM     20  O   UNL     1      -0.251  -0.712  -4.785  0.00  0.00    -0.113 OA
BRANCH  18  21
ATOM     21  O   UNL     1      -2.489  -1.376  -5.138  0.00  0.00    -0.329 OA
BRANCH  21  22
ATOM     22  C   UNL     1      -3.712  -1.097  -5.658  0.00  0.00    +0.158 A 
ATOM     23  C   UNL     1      -4.721  -0.610  -4.839  0.00  0.00    +0.048 A 
ATOM     24  C   UNL     1      -5.964  -0.326  -5.370  0.00  0.00    +0.004 A 
ATOM     25  C   UNL     1      -6.204  -0.526  -6.717  0.00  0.00    +0.000 A 
ATOM     26  C   UNL     1      -5.201  -1.011  -7.535  0.00  0.00    +0.004 A 
ATOM     27  C   UNL     1      -3.954  -1.291  -7.010  0.00  0.00    +0.048 A 
ENDBRANCH  21  22
ENDBRANCH  18  21
ENDBRANCH  15  18
BRANCH   1  29
ATOM     28  C   UNL     1       0.079   1.962  -0.081  0.00  0.00    +0.086 C 
ATOM     29  S   UNL     1       0.182   0.151  -0.063  0.00  0.00    -0.142 S 
ENDBRANCH   1  29
BRANCH  10  30
ATOM     30  C   UNL     1      -3.819   6.630  -2.749  0.00  0.00    +0.071 C 
BRANCH  30  31
ATOM     31  C   UNL     1      -5.298   6.718  -3.022  0.00  0.00    -0.043 A 
ATOM     32  C   UNL     1      -5.771   6.595  -4.315  0.00  0.00    +0.004 A 
ATOM     33  C   UNL     1      -7.128   6.676  -4.566  0.00  0.00    +0.000 A 
ATOM     34  C   UNL     1      -8.012   6.880  -3.523  0.00  0.00    +0.000 A 
ATOM     35  C   UNL     1      -7.540   7.003  -2.229  0.00  0.00    +0.000 A 
ATOM     36  C   UNL     1      -6.183   6.918  -1.979  0.00  0.00    +0.004 A 
ENDBRANCH  30  31
ENDBRANCH  10  30
TORSDOF 6
