REMARK  Name = ZINC59461849
REMARK  8 active torsions:
REMARK  status: ('A' for Active; 'I' for Inactive)
REMARK    1  A    between atoms: C_1  and  C_2
REMARK    2  A    between atoms: C_5  and  C_8
REMARK    3  A    between atoms: C_15  and  C_19
REMARK    4  A    between atoms: C_16  and  C_18
REMARK    5  A    between atoms: C_19  and  C_21
REMARK    6  A    between atoms: C_19  and  C_28
REMARK    7  A    between atoms: C_28  and  C_30
REMARK    8  A    between atoms: C_28  and  C_32
REMARK                            x       y       z     vdW  Elec       q    Type
REMARK                         _______ _______ _______ _____ _____    ______ ____
ROOT
ATOM      1  C   UNL     1       0.678  -3.755  -0.965  0.00  0.00    +0.080 A 
ATOM      2  C   UNL     1       0.781  -4.277   0.294  0.00  0.00    +0.077 A 
ATOM      3  S   UNL     1       0.682  -6.026  -0.063  0.00  0.00    -0.056 S 
ATOM      4  C   UNL     1       0.514  -5.883  -1.837  0.00  0.00    +0.196 A 
ATOM      5  N   UNL     1       0.542  -4.572  -1.998  0.00  0.00    -0.221 NA
ATOM      6  N   UNL     1       0.385  -6.883  -2.791  0.00  0.00    -0.194 N 
ATOM      7  C   UNL     1       0.359  -8.210  -2.554  0.00  0.00    +0.277 A 
ATOM      8  C   UNL     1       0.213  -8.865  -3.799  0.00  0.00    +0.048 A 
ATOM      9  C   UNL     1       0.154  -7.923  -4.763  0.00  0.00    +0.039 A 
ATOM     10  N   UNL     1       0.251  -6.695  -4.173  0.00  0.00    -0.292 N 
ATOM     11  C   UNL     1       0.001  -8.182  -6.239  0.00  0.00    +0.065 C 
ATOM     12  O   UNL     1       0.445  -8.748  -1.464  0.00  0.00    -0.265 OA
ATOM     13  H   UNL     1       0.232  -5.840  -4.632  0.00  0.00    +0.187 HD
ENDROOT
BRANCH   1  18
ATOM     14  C   UNL     1       0.805   1.946  -1.767  0.00  0.00    +0.044 C 
ATOM     15  C   UNL     1       0.772   0.454  -1.557  0.00  0.00    -0.050 A 
ATOM     16  C   UNL     1       0.630  -0.391  -2.643  0.00  0.00    +0.004 A 
ATOM     17  C   UNL     1       0.599  -1.758  -2.457  0.00  0.00    +0.010 A 
ATOM     18  C   UNL     1       0.711  -2.287  -1.171  0.00  0.00    +0.001 A 
ATOM     19  C   UNL     1       0.853  -1.430  -0.081  0.00  0.00    +0.010 A 
ATOM     20  C   UNL     1       0.888  -0.065  -0.280  0.00  0.00    +0.004 A 
ENDBRANCH   1  18
BRANCH   8  21
ATOM     21  C   UNL     1       0.138 -10.355  -4.012  0.00  0.00    +0.082 C 
BRANCH  21  22
ATOM     22  C   UNL     1       1.434 -10.990  -3.579  0.00  0.00    -0.038 A 
ATOM     23  C   UNL     1       1.718 -11.133  -2.233  0.00  0.00    +0.006 A 
ATOM     24  C   UNL     1       2.907 -11.715  -1.836  0.00  0.00    +0.020 A 
ATOM     25  C   UNL     1       3.813 -12.155  -2.785  0.00  0.00    +0.041 A 
ATOM     26  C   UNL     1       3.528 -12.012  -4.131  0.00  0.00    +0.020 A 
ATOM     27  C   UNL     1       2.337 -11.435  -4.527  0.00  0.00    +0.006 A 
ATOM     28 CL   UNL     1       5.306 -12.886  -2.286  0.00  0.00    -0.084 Cl
ENDBRANCH  21  22
BRANCH  21  29
ATOM     29  C   UNL     1      -1.013 -10.931  -3.185  0.00  0.00    +0.189 C 
BRANCH  29  30
ATOM     30  C   UNL     1      -2.309 -10.296  -3.618  0.00  0.00    +0.228 C 
ATOM     31  O   UNL     1      -3.206 -10.985  -4.056  0.00  0.00    -0.275 OA
ATOM     32  N   UNL     1      -2.472  -8.961  -3.518  0.00  0.00    -0.328 N 
ATOM     33  H   UNL     1      -1.755  -8.410  -3.167  0.00  0.00    +0.145 HD
ATOM     34  H   UNL     1      -3.307  -8.553  -3.796  0.00  0.00    +0.145 HD
ENDBRANCH  29  30
BRANCH  29  35
ATOM     35  C   UNL     1      -1.086 -12.386  -3.393  0.00  0.00    +0.076 C 
ATOM     36  N   UNL     1      -1.143 -13.509  -3.553  0.00  0.00    -0.196 NA
ENDBRANCH  29  35
ENDBRANCH  21  29
ENDBRANCH   8  21
TORSDOF 6
