REMARK  Name = ZINC36313056
REMARK  17 active torsions:
REMARK  status: ('A' for Active; 'I' for Inactive)
REMARK    1  A    between atoms: C_1  and  C_2
REMARK    2  A    between atoms: C_2  and  N_3
REMARK    3  A    between atoms: N_3  and  C_4
REMARK    4  A    between atoms: N_3  and  C_6
REMARK    5  A    between atoms: C_4  and  C_5
REMARK    6  A    between atoms: C_7  and  C_17
REMARK    7  A    between atoms: C_8  and  C_11
REMARK    8  A    between atoms: C_17  and  N_18
REMARK    9  A    between atoms: N_18  and  C_19
REMARK   10  A    between atoms: N_18  and  C_27
REMARK   11  A    between atoms: C_19  and  C_20
REMARK   12  A    between atoms: C_27  and  C_28
REMARK   13  A    between atoms: C_28  and  C_30
REMARK   14  A    between atoms: C_28  and  O_35
REMARK   15  A    between atoms: C_30  and  O_31
REMARK   16  A    between atoms: O_31  and  C_32
REMARK   17  A    between atoms: C_32  and  C_33
REMARK                            x       y       z     vdW  Elec       q    Type
REMARK                         _______ _______ _______ _____ _____    ______ ____
ROOT
ATOM      1  N   UNL     1       2.151  -3.684   3.458  0.00  0.00    +0.387 N 
ATOM      2  H   UNL     1       1.992  -3.960   2.501  0.00  0.00    -0.081 HD
ENDROOT
BRANCH   1   3
ATOM      3  C   UNL     1       2.125  -2.218   3.556  0.00  0.00    -0.035 C 
BRANCH   3   5
ATOM      4  C   UNL     1       3.021  -1.317   1.341  0.00  0.00    +0.222 A 
ATOM      5  C   UNL     1       3.180  -1.636   2.651  0.00  0.00    +0.025 A 
ATOM      6  C   UNL     1       4.507  -1.325   3.015  0.00  0.00    +0.117 A 
ATOM      7  N   UNL     1       5.114  -0.839   1.958  0.00  0.00    -0.076 NA
ATOM      8  O   UNL     1       4.188  -0.831   0.886  0.00  0.00    -0.339 OA
BRANCH   6   9
ATOM      9  C   UNL     1       5.110  -1.515   4.359  0.00  0.00    +0.004 A 
ATOM     10  C   UNL     1       4.395  -1.167   5.502  0.00  0.00    +0.010 A 
ATOM     11  C   UNL     1       4.960  -1.346   6.748  0.00  0.00    +0.001 A 
ATOM     12  C   UNL     1       6.235  -1.870   6.863  0.00  0.00    +0.000 A 
ATOM     13  C   UNL     1       6.950  -2.217   5.731  0.00  0.00    +0.001 A 
ATOM     14  C   UNL     1       6.392  -2.048   4.480  0.00  0.00    +0.010 A 
ENDBRANCH   6   9
BRANCH   4  15
ATOM     15  N   UNL     1       1.862  -1.470   0.603  0.00  0.00    -0.300 N 
BRANCH  15  17
ATOM     16  C   UNL     1       0.006  -0.236   1.609  0.00  0.00    +0.024 C 
ATOM     17  C   UNL     1       0.957  -0.334   0.415  0.00  0.00    +0.104 C 
ENDBRANCH  15  17
BRANCH  15  18
ATOM     18  C   UNL     1       1.538  -2.770   0.008  0.00  0.00    +0.104 C 
ATOM     19  C   UNL     1       2.235  -2.898  -1.348  0.00  0.00    +0.024 C 
ENDBRANCH  15  18
ENDBRANCH   4  15
ENDBRANCH   3   5
ENDBRANCH   1   3
BRANCH   1  20
ATOM     20  C   UNL     1       3.462  -4.181   3.899  0.00  0.00    -0.040 C 
BRANCH  20  21
ATOM     21  C   UNL     1       3.534  -5.670   3.680  0.00  0.00    -0.029 A 
ATOM     22  C   UNL     1       3.369  -6.534   4.746  0.00  0.00    +0.004 A 
ATOM     23  C   UNL     1       3.436  -7.900   4.545  0.00  0.00    +0.000 A 
ATOM     24  C   UNL     1       3.667  -8.403   3.278  0.00  0.00    +0.003 A 
ATOM     25  C   UNL     1       3.831  -7.541   2.211  0.00  0.00    +0.038 A 
ATOM     26  C   UNL     1       3.760  -6.173   2.410  0.00  0.00    +0.125 A 
ATOM     27  F   UNL     1       3.915  -5.329   1.367  0.00  0.00    -0.205 F 
ENDBRANCH  20  21
ENDBRANCH   1  20
BRANCH   1  28
ATOM     28  C   UNL     1       1.100  -4.250   4.313  0.00  0.00    -0.044 C 
BRANCH  28  29
ATOM     29  C   UNL     1      -0.272  -3.898   3.735  0.00  0.00    +0.124 C 
BRANCH  29  30
ATOM     30  O   UNL     1      -0.498  -2.493   3.865  0.00  0.00    -0.391 OA
ATOM     31  H   UNL     1      -0.483  -2.175   4.778  0.00  0.00    +0.210 HD
ENDBRANCH  29  30
BRANCH  29  32
ATOM     32  C   UNL     1      -1.358  -4.661   4.497  0.00  0.00    +0.189 C 
BRANCH  32  33
ATOM     33  O   UNL     1      -2.627  -4.424   3.883  0.00  0.00    -0.373 OA
BRANCH  33  34
ATOM     34  C   UNL     1      -3.715  -5.094   4.521  0.00  0.00    +0.186 C 
BRANCH  34  35
ATOM     35  C   UNL     1      -4.997  -4.775   3.796  0.00  0.00    -0.007 C 
ATOM     36  C   UNL     1      -5.849  -5.730   3.520  0.00  0.00    +0.006 C 
ENDBRANCH  34  35
ENDBRANCH  33  34
ENDBRANCH  32  33
ENDBRANCH  29  32
ENDBRANCH  28  29
ENDBRANCH   1  28
TORSDOF 15
