REMARK  Name = ZINC64588157
REMARK  9 active torsions:
REMARK  status: ('A' for Active; 'I' for Inactive)
REMARK    1  A    between atoms: C_1  and  C_2
REMARK    2  A    between atoms: C_2  and  C_3
REMARK    3  A    between atoms: C_3  and  C_5
REMARK    4  A    between atoms: C_3  and  N_6
REMARK    5  A    between atoms: C_7  and  C_9
REMARK    6  A    between atoms: N_18  and  C_21
REMARK    7  A    between atoms: C_21  and  C_22
REMARK    8  A    between atoms: C_25  and  C_28
REMARK    9  A    between atoms: N_30  and  C_33
REMARK                            x       y       z     vdW  Elec       q    Type
REMARK                         _______ _______ _______ _____ _____    ______ ____
ROOT
ATOM      1  C   UNL     1      -0.220   0.416  -4.827  0.00  0.00    +0.039 A 
ATOM      2  C   UNL     1      -1.595   0.639  -4.718  0.00  0.00    +0.014 A 
ATOM      3  C   UNL     1      -2.329   1.000  -5.827  0.00  0.00    +0.016 A 
ATOM      4  C   UNL     1      -1.696   1.142  -7.061  0.00  0.00    +0.064 A 
ATOM      5  C   UNL     1      -0.316   0.919  -7.175  0.00  0.00    +0.067 A 
ATOM      6  C   UNL     1       0.419   0.561  -6.057  0.00  0.00    +0.040 A 
ATOM      7  N   UNL     1       0.300   1.065  -8.418  0.00  0.00    -0.229 N 
ATOM      8  C   UNL     1      -0.436   1.426  -9.525  0.00  0.00    +0.240 A 
ATOM      9  N   UNL     1       0.368   1.494 -10.551  0.00  0.00    -0.129 NA
ATOM     10  N   UNL     1       1.660   1.172 -10.115  0.00  0.00    -0.206 N 
ATOM     11  C   UNL     1       1.587   0.912  -8.794  0.00  0.00    +0.353 A 
ATOM     12  O   UNL     1       2.515   0.597  -8.071  0.00  0.00    -0.244 OA
ATOM     13  N   UNL     1      -1.803   1.653  -9.439  0.00  0.00    -0.280 N 
ATOM     14  C   UNL     1      -2.457   1.528  -8.267  0.00  0.00    +0.263 A 
ATOM     15  O   UNL     1      -3.654   1.729  -8.203  0.00  0.00    -0.267 OA
ATOM     16  C   UNL     1      -2.547   2.035 -10.641  0.00  0.00    +0.155 C 
ENDROOT
BRANCH   1  18
ATOM     17  N   UNL     1      -0.055  -0.114  -2.441  0.00  0.00    -0.309 N 
ATOM     18  C   UNL     1       0.561   0.028  -3.631  0.00  0.00    +0.244 C 
ATOM     19  O   UNL     1       1.758  -0.163  -3.722  0.00  0.00    -0.270 OA
ATOM     20  H   UNL     1      -1.010   0.038  -2.368  0.00  0.00    +0.149 HD
BRANCH  17  21
ATOM     21  C   UNL     1       0.718  -0.497  -1.257  0.00  0.00    +0.070 C 
ATOM     22  C   UNL     1       0.849  -2.021  -1.205  0.00  0.00    +0.028 C 
BRANCH  21  24
ATOM     23  C   UNL     1      -0.019   1.526   0.010  0.00  0.00    +0.005 C 
ATOM     24  C   UNL     1       0.002  -0.004   0.002  0.00  0.00    +0.018 C 
ENDBRANCH  21  24
ENDBRANCH  17  21
ENDBRANCH   1  18
BRANCH  10  25
ATOM     25  C   UNL     1       2.868   1.127 -10.942  0.00  0.00    +0.184 C 
BRANCH  25  26
ATOM     26  C   UNL     1       3.036  -0.260 -11.509  0.00  0.00    -0.026 A 
ATOM     27  C   UNL     1       3.755  -1.209 -10.805  0.00  0.00    +0.006 A 
ATOM     28  C   UNL     1       3.912  -2.480 -11.319  0.00  0.00    +0.008 A 
ATOM     29  C   UNL     1       3.345  -2.806 -12.552  0.00  0.00    -0.026 A 
ATOM     30  C   UNL     1       2.622  -1.844 -13.257  0.00  0.00    +0.008 A 
ATOM     31  C   UNL     1       2.467  -0.578 -12.729  0.00  0.00    +0.006 A 
BRANCH  29  32
ATOM     32  C   UNL     1       3.511  -4.165 -13.108  0.00  0.00    +0.000 C 
ATOM     33  C   UNL     1       2.971  -4.472 -14.280  0.00  0.00    +0.009 C 
ENDBRANCH  29  32
ENDBRANCH  25  26
ENDBRANCH  10  25
TORSDOF 6
