REMARK  Name = ZINC31870128
REMARK  7 active torsions:
REMARK  status: ('A' for Active; 'I' for Inactive)
REMARK    1  A    between atoms: C_1  and  C_2
REMARK    2  A    between atoms: C_2  and  C_4
REMARK    3  A    between atoms: C_2  and  N_8
REMARK    4  A    between atoms: C_4  and  O_6
REMARK    5  A    between atoms: O_6  and  C_7
REMARK    6  A    between atoms: C_11  and  C_19
REMARK    7  A    between atoms: C_22  and  C_24
REMARK                            x       y       z     vdW  Elec       q    Type
REMARK                         _______ _______ _______ _____ _____    ______ ____
ROOT
ATOM      1  N   UNL     1       0.002  -0.004   0.002  0.00  0.00    -0.252 N 
ATOM      2  C   UNL     1      -0.602  -0.719  -1.043  0.00  0.00    +0.080 A 
ATOM      3  C   UNL     1      -0.941  -0.086  -2.225  0.00  0.00    +0.037 A 
ATOM      4  C   UNL     1      -1.541  -0.815  -3.251  0.00  0.00    +0.003 A 
ATOM      5  C   UNL     1      -1.798  -2.174  -3.081  0.00  0.00    +0.014 A 
ATOM      6  C   UNL     1      -1.458  -2.801  -1.898  0.00  0.00    +0.048 A 
ATOM      7  C   UNL     1      -0.861  -2.079  -0.878  0.00  0.00    +0.143 A 
ATOM      8  O   UNL     1      -0.520  -2.687   0.290  0.00  0.00    -0.481 OA
ATOM      9  C   UNL     1       0.645  -2.193   0.956  0.00  0.00    +0.325 C 
ATOM     10  C   UNL     1       0.608  -0.687   0.998  0.00  0.00    +0.258 C 
ATOM     11  O   UNL     1       1.116  -0.091   1.924  0.00  0.00    -0.271 OA
ENDROOT
BRANCH   4  12
ATOM     12  C   UNL     1      -1.907  -0.144  -4.523  0.00  0.00    +0.079 A 
ATOM     13  C   UNL     1      -2.588  -0.829  -5.495  0.00  0.00    +0.075 A 
ATOM     14  S   UNL     1      -2.744   0.440  -6.746  0.00  0.00    -0.075 S 
ATOM     15  C   UNL     1      -1.895   1.736  -5.855  0.00  0.00    +0.109 A 
ATOM     16  N   UNL     1      -1.584   1.119  -4.726  0.00  0.00    -0.239 NA
BRANCH  15  17
ATOM     17  C   UNL     1      -1.621   3.130  -6.266  0.00  0.00    +0.007 A 
ATOM     18  C   UNL     1      -0.939   3.993  -5.407  0.00  0.00    +0.010 A 
ATOM     19  C   UNL     1      -0.680   5.290  -5.800  0.00  0.00    +0.001 A 
ATOM     20  C   UNL     1      -1.106   5.739  -7.037  0.00  0.00    +0.000 A 
ATOM     21  C   UNL     1      -1.787   4.890  -7.892  0.00  0.00    +0.001 A 
ATOM     22  C   UNL     1      -2.046   3.589  -7.513  0.00  0.00    +0.010 A 
ENDBRANCH  15  17
ENDBRANCH   4  12
BRANCH   1  24
ATOM     23  C   UNL     1       1.418   1.990  -0.001  0.00  0.00    +0.040 C 
ATOM     24  C   UNL     1      -0.018   1.461   0.010  0.00  0.00    +0.187 C 
BRANCH  24  25
ATOM     25  C   UNL     1      -0.723   1.947   1.250  0.00  0.00    +0.328 C 
ATOM     26  O   UNL     1      -1.164   1.151   2.045  0.00  0.00    -0.249 OA
BRANCH  25  27
ATOM     27  O   UNL     1      -0.862   3.264   1.471  0.00  0.00    -0.467 OA
ATOM     28  C   UNL     1      -1.552   3.659   2.685  0.00  0.00    +0.280 C 
ENDBRANCH  25  27
ENDBRANCH  24  25
ENDBRANCH   1  24
TORSDOF 5
