REMARK  Name = ZINC66894500
REMARK  10 active torsions:
REMARK  status: ('A' for Active; 'I' for Inactive)
REMARK    1  A    between atoms: C_1  and  C_2
REMARK    2  A    between atoms: C_2  and  C_4
REMARK    3  A    between atoms: C_2  and  N_13
REMARK    4  A    between atoms: N_9  and  C_10
REMARK    5  A    between atoms: C_10  and  C_11
REMARK    6  A    between atoms: C_10  and  C_12
REMARK    7  A    between atoms: C_17  and  C_20
REMARK    8  A    between atoms: C_20  and  C_21
REMARK    9  A    between atoms: C_26  and  O_27
REMARK   10  A    between atoms: O_27  and  C_28
REMARK                            x       y       z     vdW  Elec       q    Type
REMARK                         _______ _______ _______ _____ _____    ______ ____
ROOT
ATOM      1  N   UNL     1       0.018  -0.916  -1.149  0.00  0.00    +0.387 N 
ATOM      2  C   UNL     1      -0.712  -0.305  -2.266  0.00  0.00    -0.078 C 
ATOM      3  C   UNL     1      -0.629  -1.215  -3.494  0.00  0.00    -0.018 C 
ATOM      4  C   UNL     1      -1.251  -2.573  -3.158  0.00  0.00    +0.000 C 
ATOM      5  C   UNL     1      -0.530  -3.168  -1.945  0.00  0.00    -0.023 C 
ATOM      6  C   UNL     1      -0.617  -2.186  -0.775  0.00  0.00    -0.074 C 
ATOM      7  H   UNL     1       0.973  -1.088  -1.428  0.00  0.00    -0.081 HD
ENDROOT
BRANCH   1   9
ATOM      8  C   UNL     1       0.631   1.332  -0.397  0.00  0.00    -0.004 C 
ATOM      9  C   UNL     1       0.002  -0.004   0.002  0.00  0.00    +0.017 C 
BRANCH   9  10
ATOM     10  C   UNL     1       0.789  -0.611   1.135  0.00  0.00    +0.207 C 
ATOM     11  O   UNL     1       1.687  -1.391   0.900  0.00  0.00    -0.277 OA
ATOM     12  N   UNL     1       0.493  -0.288   2.410  0.00  0.00    -0.242 N 
ATOM     13  C   UNL     1       1.197  -0.831   3.423  0.00  0.00    +0.306 C 
ATOM     14  O   UNL     1       2.098  -1.612   3.187  0.00  0.00    -0.252 OA
ATOM     15  N   UNL     1       0.902  -0.507   4.697  0.00  0.00    -0.297 N 
ATOM     16  H   UNL     1      -0.225   0.336   2.598  0.00  0.00    +0.159 HD
ATOM     17  H   UNL     1       0.183   0.116   4.886  0.00  0.00    +0.151 HD
BRANCH  15  18
ATOM     18  C   UNL     1       1.667  -1.098   5.799  0.00  0.00    +0.068 C 
ATOM     19  C   UNL     1       1.603  -0.173   7.016  0.00  0.00    +0.027 C 
ATOM     20  C   UNL     1       1.071  -2.460   6.161  0.00  0.00    +0.027 C 
ENDBRANCH  15  18
ENDBRANCH   9  10
ENDBRANCH   1   9
BRANCH   5  21
ATOM     21  C   UNL     1      -1.194  -4.490  -1.553  0.00  0.00    +0.040 C 
BRANCH  21  22
ATOM     22  C   UNL     1      -1.005  -5.494  -2.661  0.00  0.00    -0.006 A 
ATOM     23  C   UNL     1      -1.987  -5.659  -3.619  0.00  0.00    +0.007 A 
ATOM     24  C   UNL     1      -1.814  -6.581  -4.635  0.00  0.00    +0.000 A 
ATOM     25  C   UNL     1      -0.659  -7.339  -4.695  0.00  0.00    +0.004 A 
ATOM     26  C   UNL     1       0.325  -7.178  -3.740  0.00  0.00    +0.046 A 
ATOM     27  C   UNL     1       0.156  -6.250  -2.722  0.00  0.00    +0.123 A 
BRANCH  27  28
ATOM     28  O   UNL     1       1.126  -6.085  -1.784  0.00  0.00    -0.495 OA
ATOM     29  C   UNL     1       2.295  -6.896  -1.910  0.00  0.00    +0.277 C 
ENDBRANCH  27  28
ENDBRANCH  21  22
ENDBRANCH   5  21
TORSDOF 6
