REMARK  Name = ZINC34762197
REMARK  9 active torsions:
REMARK  status: ('A' for Active; 'I' for Inactive)
REMARK    1  A    between atoms: C_1  and  C_2
REMARK    2  A    between atoms: C_2  and  C_3
REMARK    3  A    between atoms: C_4  and  C_27
REMARK    4  A    between atoms: C_8  and  N_17
REMARK    5  A    between atoms: C_10  and  S_12
REMARK    6  A    between atoms: S_12  and  C_13
REMARK    7  A    between atoms: C_13  and  C_14
REMARK    8  A    between atoms: N_20  and  C_23
REMARK    9  A    between atoms: C_23  and  C_24
REMARK                            x       y       z     vdW  Elec       q    Type
REMARK                         _______ _______ _______ _____ _____    ______ ____
ROOT
ATOM      1  C   UNL     1      -1.366  -0.631   0.140  0.00  0.00    -0.025 A 
ATOM      2  C   UNL     1      -1.910  -0.812   1.352  0.00  0.00    -0.007 A 
ATOM      3  S   UNL     1      -3.549  -1.412   0.989  0.00  0.00    -0.073 S 
ATOM      4  C   UNL     1      -3.460  -1.404  -0.782  0.00  0.00    +0.115 A 
ATOM      5  C   UNL     1      -2.156  -0.928  -1.044  0.00  0.00    +0.051 A 
ATOM      6  C   UNL     1      -1.810  -0.815  -2.418  0.00  0.00    +0.134 A 
ATOM      7  N   UNL     1      -2.698  -1.145  -3.340  0.00  0.00    -0.206 NA
ATOM      8  C   UNL     1      -3.912  -1.583  -3.025  0.00  0.00    +0.191 A 
ATOM      9  N   UNL     1      -4.287  -1.718  -1.760  0.00  0.00    -0.214 NA
ATOM     10  C   UNL     1      -1.284  -0.567   2.701  0.00  0.00    +0.052 C 
ENDROOT
BRANCH   6  11
ATOM     11  N   UNL     1      -0.556  -0.363  -2.788  0.00  0.00    -0.318 N 
ATOM     12  C   UNL     1       0.545  -1.306  -3.039  0.00  0.00    +0.088 C 
ATOM     13  C   UNL     1       1.175  -0.968  -4.394  0.00  0.00    -0.059 C 
ATOM     14  N   UNL     1       1.573   0.445  -4.409  0.00  0.00    +0.387 N 
ATOM     15  C   UNL     1       0.385   1.301  -4.301  0.00  0.00    -0.059 C 
ATOM     16  C   UNL     1      -0.286   1.075  -2.947  0.00  0.00    +0.088 C 
ATOM     17  H   UNL     1       2.189   0.628  -3.631  0.00  0.00    -0.081 HD
BRANCH  14  18
ATOM     18  C   UNL     1       2.275   0.741  -5.665  0.00  0.00    +0.018 C 
BRANCH  18  19
ATOM     19  C   UNL     1       2.792   2.156  -5.630  0.00  0.00    +0.194 C 
ATOM     20  O   UNL     1       2.594   2.850  -4.655  0.00  0.00    -0.278 OA
ATOM     21  N   UNL     1       3.473   2.651  -6.682  0.00  0.00    -0.331 N 
ATOM     22  H   UNL     1       3.631   2.096  -7.462  0.00  0.00    +0.145 HD
ATOM     23  H   UNL     1       3.806   3.562  -6.660  0.00  0.00    +0.145 HD
ENDBRANCH  18  19
ENDBRANCH  14  18
ENDBRANCH   6  11
BRANCH   1  25
ATOM     24  C   UNL     1       0.044   1.408   0.093  0.00  0.00    +0.009 C 
ATOM     25  C   UNL     1       0.045  -0.120   0.006  0.00  0.00    +0.033 C 
ENDBRANCH   1  25
BRANCH   8  26
ATOM     26  S   UNL     1      -5.040  -2.004  -4.311  0.00  0.00    -0.077 S 
BRANCH  26  27
ATOM     27  C   UNL     1      -6.532  -2.537  -3.429  0.00  0.00    +0.172 C 
BRANCH  27  28
ATOM     28  C   UNL     1      -7.592  -2.930  -4.425  0.00  0.00    +0.221 C 
ATOM     29  O   UNL     1      -7.363  -2.858  -5.614  0.00  0.00    -0.275 OA
ATOM     30  N   UNL     1      -8.794  -3.363  -3.996  0.00  0.00    -0.329 N 
ATOM     31  H   UNL     1      -8.977  -3.421  -3.045  0.00  0.00    +0.145 HD
ATOM     32  H   UNL     1      -9.476  -3.616  -4.638  0.00  0.00    +0.145 HD
ENDBRANCH  27  28
ENDBRANCH  26  27
ENDBRANCH   8  26
TORSDOF 7
