REMARK  Name = ZINC39667624
REMARK  6 active torsions:
REMARK  status: ('A' for Active; 'I' for Inactive)
REMARK    1  A    between atoms: C_1  and  C_2
REMARK    2  A    between atoms: C_6  and  C_9
REMARK    3  A    between atoms: C_7  and  C_8
REMARK    4  A    between atoms: C_9  and  N_10
REMARK    5  A    between atoms: C_11  and  C_13
REMARK    6  A    between atoms: C_24  and  C_26
REMARK                            x       y       z     vdW  Elec       q    Type
REMARK                         _______ _______ _______ _____ _____    ______ ____
ROOT
ATOM      1  C   UNL     1      -2.829  -3.525   4.827  0.00  0.00    +0.100 C 
ATOM      2  C   UNL     1      -3.356  -2.132   5.239  0.00  0.00    +0.121 C 
ATOM      3  N   UNL     1      -4.141  -2.378   6.471  0.00  0.00    -0.297 N 
ATOM      4  C   UNL     1      -3.352  -3.389   7.216  0.00  0.00    +0.115 C 
ATOM      5  C   UNL     1      -2.827  -4.347   6.128  0.00  0.00    -0.004 C 
ATOM      6  C   UNL     1      -3.754  -5.551   5.993  0.00  0.00    -0.010 C 
ATOM      7  C   UNL     1      -3.692  -6.383   7.277  0.00  0.00    -0.082 C 
ATOM      8  N   UNL     1      -2.312  -6.826   7.509  0.00  0.00    +0.379 N 
ATOM      9  C   UNL     1      -1.444  -5.663   7.730  0.00  0.00    -0.082 C 
ATOM     10  C   UNL     1      -1.411  -4.801   6.465  0.00  0.00    -0.010 C 
ATOM     11  C   UNL     1      -5.309  -1.811   6.834  0.00  0.00    +0.260 C 
ATOM     12  O   UNL     1      -5.882  -1.062   6.071  0.00  0.00    -0.271 OA
ATOM     13  H   UNL     1      -2.284  -7.424   8.321  0.00  0.00    -0.086 HD
ATOM     14  H   UNL     1      -1.986  -7.340   6.705  0.00  0.00    -0.086 HD
ENDROOT
BRANCH  11  15
ATOM     15  C   UNL     1      -5.902  -2.107   8.187  0.00  0.00    +0.296 C 
ATOM     16  C   UNL     1      -5.018  -1.499   9.284  0.00  0.00    +0.283 C 
ATOM     17  O   UNL     1      -5.616  -1.786  10.553  0.00  0.00    -0.484 OA
ATOM     18  C   UNL     1      -6.955  -1.565  10.661  0.00  0.00    +0.162 A 
ATOM     19  C   UNL     1      -7.529  -1.470  11.920  0.00  0.00    +0.049 A 
ATOM     20  C   UNL     1      -8.888  -1.250  12.046  0.00  0.00    +0.004 A 
ATOM     21  C   UNL     1      -9.678  -1.124  10.918  0.00  0.00    +0.004 A 
ATOM     22  C   UNL     1      -9.111  -1.217   9.661  0.00  0.00    +0.049 A 
ATOM     23  C   UNL     1      -7.748  -1.437   9.527  0.00  0.00    +0.163 A 
ATOM     24  O   UNL     1      -7.204  -1.519   8.283  0.00  0.00    -0.473 OA
ENDBRANCH  11  15
BRANCH   1  26
ATOM     25  N   UNL     1      -0.950  -4.377   3.463  0.00  0.00    -0.311 N 
ATOM     26  C   UNL     1      -1.431  -3.415   4.275  0.00  0.00    +0.218 C 
ATOM     27  O   UNL     1      -0.740  -2.461   4.561  0.00  0.00    -0.275 OA
ATOM     28  H   UNL     1      -1.503  -5.141   3.235  0.00  0.00    +0.149 HD
BRANCH  25  29
ATOM     29  C   UNL     1       0.409  -4.270   2.926  0.00  0.00    +0.139 C 
BRANCH  29  35
ATOM     30  C   UNL     1      -0.024  -6.645  -1.458  0.00  0.00    +0.044 C 
ATOM     31  C   UNL     1       0.492  -6.601  -0.043  0.00  0.00    -0.047 A 
ATOM     32  C   UNL     1       1.233  -7.656   0.456  0.00  0.00    +0.003 A 
ATOM     33  C   UNL     1       1.707  -7.616   1.753  0.00  0.00    +0.001 A 
ATOM     34  C   UNL     1       1.440  -6.520   2.553  0.00  0.00    +0.005 A 
ATOM     35  C   UNL     1       0.700  -5.465   2.054  0.00  0.00    -0.027 A 
ATOM     36  C   UNL     1       0.230  -5.503   0.755  0.00  0.00    -0.043 A 
ATOM     37  C   UNL     1      -0.572  -4.350   0.209  0.00  0.00    +0.044 C 
ENDBRANCH  29  35
ENDBRANCH  25  29
ENDBRANCH   1  26
TORSDOF 4
