REMARK  Name = ZINC66721399
REMARK  11 active torsions:
REMARK  status: ('A' for Active; 'I' for Inactive)
REMARK    1  A    between atoms: C_1  and  C_2
REMARK    2  A    between atoms: C_2  and  C_3
REMARK    3  A    between atoms: C_3  and  C_4
REMARK    4  A    between atoms: C_10  and  N_12
REMARK    5  A    between atoms: C_13  and  C_15
REMARK    6  A    between atoms: N_17  and  C_18
REMARK    7  A    between atoms: C_21  and  C_25
REMARK    8  A    between atoms: C_22  and  C_24
REMARK    9  A    between atoms: N_27  and  C_28
REMARK   10  A    between atoms: C_28  and  C_29
REMARK   11  A    between atoms: C_28  and  C_30
REMARK                            x       y       z     vdW  Elec       q    Type
REMARK                         _______ _______ _______ _____ _____    ______ ____
ROOT
ATOM      1  C   UNL     1       5.173  -1.335  -3.056  0.00  0.00    +0.303 C 
ATOM      2  O   UNL     1       5.722  -1.045  -2.013  0.00  0.00    -0.265 OA
ATOM      3  N   UNL     1       5.830  -1.196  -4.225  0.00  0.00    -0.278 N 
ATOM      4  H   UNL     1       5.418  -1.495  -5.051  0.00  0.00    +0.155 HD
ENDROOT
BRANCH   3   5
ATOM      5  C   UNL     1       7.099  -0.623  -4.246  0.00  0.00    +0.034 A 
ATOM      6  C   UNL     1       7.985  -0.858  -3.198  0.00  0.00    +0.024 A 
ATOM      7  C   UNL     1       9.240  -0.293  -3.217  0.00  0.00    +0.015 A 
ATOM      8  C   UNL     1       9.625   0.516  -4.290  0.00  0.00    +0.040 A 
ATOM      9  C   UNL     1       8.733   0.750  -5.340  0.00  0.00    -0.037 A 
ATOM     10  C   UNL     1       7.481   0.177  -5.319  0.00  0.00    +0.027 A 
ATOM     11  C   UNL     1       9.145   1.621  -6.498  0.00  0.00    +0.044 C 
BRANCH   8  12
ATOM     12  C   UNL     1      10.970   1.123  -4.312  0.00  0.00    +0.245 C 
ATOM     13  O   UNL     1      11.279   1.883  -5.210  0.00  0.00    -0.270 OA
ATOM     14  N   UNL     1      11.855   0.836  -3.338  0.00  0.00    -0.309 N 
ATOM     15  H   UNL     1      11.609   0.231  -2.621  0.00  0.00    +0.149 HD
BRANCH  14  16
ATOM     16  C   UNL     1      13.191   1.439  -3.360  0.00  0.00    +0.067 C 
ATOM     17  C   UNL     1      13.138   2.820  -2.704  0.00  0.00    +0.027 C 
ATOM     18  C   UNL     1      14.166   0.546  -2.592  0.00  0.00    +0.027 C 
ENDBRANCH  14  16
ENDBRANCH   8  12
ENDBRANCH   3   5
BRANCH   1  20
ATOM     19  N   UNL     1       3.112  -1.984  -1.876  0.00  0.00    -0.304 N 
ATOM     20  C   UNL     1       3.769  -1.845  -3.044  0.00  0.00    +0.300 C 
ATOM     21  O   UNL     1       3.220  -2.136  -4.087  0.00  0.00    -0.265 OA
ATOM     22  H   UNL     1       3.551  -1.752  -1.042  0.00  0.00    +0.149 HD
BRANCH  19  28
ATOM     23  C   UNL     1       1.022  -1.986  -0.606  0.00  0.00    +0.009 C 
ATOM     24  C   UNL     1      -0.416  -2.510  -0.594  0.00  0.00    +0.005 C 
ATOM     25  C   UNL     1      -0.402  -4.040  -0.599  0.00  0.00    +0.000 C 
ATOM     26  C   UNL     1       0.312  -4.539  -1.857  0.00  0.00    +0.002 C 
ATOM     27  C   UNL     1       1.750  -4.015  -1.869  0.00  0.00    +0.022 C 
ATOM     28  C   UNL     1       1.736  -2.485  -1.864  0.00  0.00    +0.076 C 
BRANCH  23  29
ATOM     29  C   UNL     1       1.008  -0.456  -0.601  0.00  0.00    +0.005 C 
BRANCH  29  31
ATOM     30  C   UNL     1       0.392   1.574   0.719  0.00  0.00    +0.004 C 
ATOM     31  C   UNL     1       0.406   0.044   0.714  0.00  0.00    -0.003 C 
ENDBRANCH  29  31
ENDBRANCH  23  29
ENDBRANCH  19  28
ENDBRANCH   1  20
TORSDOF 7
