REMARK  Name = ZINC39633601
REMARK  6 active torsions:
REMARK  status: ('A' for Active; 'I' for Inactive)
REMARK    1  A    between atoms: C_1  and  C_2
REMARK    2  A    between atoms: C_2  and  C_3
REMARK    3  A    between atoms: C_3  and  C_5
REMARK    4  A    between atoms: C_3  and  C_11
REMARK    5  A    between atoms: C_15  and  C_24
REMARK    6  A    between atoms: N_26  and  C_27
REMARK                            x       y       z     vdW  Elec       q    Type
REMARK                         _______ _______ _______ _____ _____    ______ ____
ROOT
ATOM      1  C   UNL     1      -1.399  -2.183   0.096  0.00  0.00    +0.223 C 
ATOM      2  O   UNL     1      -1.933  -2.886  -0.736  0.00  0.00    -0.275 OA
ATOM      3  N   UNL     1      -0.848  -2.738   1.194  0.00  0.00    -0.300 N 
ATOM      4  C   UNL     1      -0.163  -2.049   2.313  0.00  0.00    +0.121 C 
ATOM      5  C   UNL     1      -0.626  -2.805   3.578  0.00  0.00    +0.100 C 
ATOM      6  C   UNL     1      -1.035  -4.200   3.075  0.00  0.00    -0.004 C 
ATOM      7  C   UNL     1      -0.797  -4.174   1.558  0.00  0.00    +0.115 C 
ATOM      8  C   UNL     1      -0.170  -5.273   3.728  0.00  0.00    -0.010 C 
ATOM      9  C   UNL     1      -0.634  -6.654   3.256  0.00  0.00    -0.082 C 
ATOM     10  N   UNL     1      -2.044  -6.848   3.616  0.00  0.00    +0.379 N 
ATOM     11  C   UNL     1      -2.880  -5.869   2.909  0.00  0.00    -0.082 C 
ATOM     12  C   UNL     1      -2.511  -4.455   3.367  0.00  0.00    -0.010 C 
ATOM     13  H   UNL     1      -2.329  -7.780   3.358  0.00  0.00    -0.086 HD
ATOM     14  H   UNL     1      -2.155  -6.727   4.611  0.00  0.00    -0.086 HD
ENDROOT
BRANCH   5  15
ATOM     15  C   UNL     1       0.505  -2.913   4.568  0.00  0.00    +0.218 C 
ATOM     16  O   UNL     1       1.650  -2.979   4.175  0.00  0.00    -0.275 OA
ATOM     17  N   UNL     1       0.243  -2.938   5.890  0.00  0.00    -0.312 N 
ATOM     18  H   UNL     1      -0.673  -2.885   6.205  0.00  0.00    +0.149 HD
BRANCH  17  19
ATOM     19  C   UNL     1       1.343  -3.043   6.853  0.00  0.00    +0.073 C 
ATOM     20  C   UNL     1       1.752  -4.524   6.984  0.00  0.00    +0.022 C 
ATOM     21  C   UNL     1       3.150  -4.587   7.537  0.00  0.00    +0.002 C 
ATOM     22  C   UNL     1       3.171  -4.742   9.070  0.00  0.00    +0.000 C 
ATOM     23  C   UNL     1       2.124  -3.858   9.774  0.00  0.00    +0.000 C 
ATOM     24  C   UNL     1       2.039  -2.479   9.178  0.00  0.00    +0.002 C 
ATOM     25  C   UNL     1       0.916  -2.470   8.121  0.00  0.00    +0.022 C 
ENDBRANCH  17  19
ENDBRANCH   5  15
BRANCH   1  26
ATOM     26  C   UNL     1      -1.350  -0.689  -0.099  0.00  0.00    +0.105 C 
BRANCH  26  27
ATOM     27  C   UNL     1      -2.031  -0.329  -1.394  0.00  0.00    -0.036 A 
ATOM     28  C   UNL     1      -1.559  -0.842  -2.588  0.00  0.00    +0.004 A 
ATOM     29  C   UNL     1      -2.183  -0.511  -3.777  0.00  0.00    +0.000 A 
ATOM     30  C   UNL     1      -3.279   0.331  -3.771  0.00  0.00    +0.000 A 
ATOM     31  C   UNL     1      -3.751   0.843  -2.577  0.00  0.00    +0.000 A 
ATOM     32  C   UNL     1      -3.130   0.509  -1.388  0.00  0.00    +0.004 A 
ENDBRANCH  26  27
BRANCH  26  34
ATOM     33  C   UNL     1       0.157   1.300  -0.215  0.00  0.00    +0.005 C 
ATOM     34  C   UNL     1       0.108  -0.228  -0.143  0.00  0.00    +0.014 C 
ENDBRANCH  26  34
ENDBRANCH   1  26
TORSDOF 5
