REMARK  Name = ZINC06595995
REMARK  8 active torsions:
REMARK  status: ('A' for Active; 'I' for Inactive)
REMARK    1  A    between atoms: C_1  and  C_2
REMARK    2  A    between atoms: C_2  and  O_3
REMARK    3  A    between atoms: O_3  and  C_4
REMARK    4  A    between atoms: C_7  and  C_13
REMARK    5  A    between atoms: C_9  and  N_10
REMARK    6  A    between atoms: N_15  and  C_16
REMARK    7  A    between atoms: C_16  and  N_18
REMARK    8  A    between atoms: N_18  and  C_19
REMARK                            x       y       z     vdW  Elec       q    Type
REMARK                         _______ _______ _______ _____ _____    ______ ____
ROOT
ATOM      1  C   UNL     1      -2.518   3.868   0.046  0.00  0.00    +0.250 C 
ATOM      2  O   UNL     1      -2.532   5.083   0.053  0.00  0.00    -0.270 OA
ATOM      3  N   UNL     1      -3.678   3.181   0.054  0.00  0.00    -0.264 N 
ATOM      4  H   UNL     1      -3.667   2.211   0.049  0.00  0.00    +0.157 HD
ENDROOT
BRANCH   1   8
ATOM      5  C   UNL     1       1.182   1.786   0.000  0.00  0.00    +0.151 A 
ATOM      6  C   UNL     1      -0.013   1.076   0.008  0.00  0.00    +0.049 A 
ATOM      7  C   UNL     1      -1.214   1.747   0.017  0.00  0.00    +0.017 A 
ATOM      8  C   UNL     1      -1.232   3.145   0.030  0.00  0.00    +0.039 A 
ATOM      9  C   UNL     1      -0.029   3.855   0.022  0.00  0.00    +0.049 A 
ATOM     10  C   UNL     1       1.169   3.176   0.007  0.00  0.00    +0.168 A 
BRANCH  10  11
ATOM     11  N   UNL     1       2.444   3.928  -0.002  0.00  0.00    +0.060 N 
ATOM     12  O   UNL     1       2.434   5.145   0.004  0.00  0.00    -0.126 OA
ATOM     13  O   UNL     1       3.505   3.328  -0.015  0.00  0.00    -0.126 OA
ENDBRANCH  10  11
BRANCH   5  14
ATOM     14  O   UNL     1       2.365   1.121  -0.014  0.00  0.00    -0.490 OA
BRANCH  14  16
ATOM     15  C   UNL     1       3.727  -0.876  -0.037  0.00  0.00    +0.048 C 
ATOM     16  C   UNL     1       2.306  -0.307  -0.021  0.00  0.00    +0.226 C 
ENDBRANCH  14  16
ENDBRANCH   5  14
ENDBRANCH   1   8
BRANCH   3  17
ATOM     17  C   UNL     1      -4.852   3.842   0.069  0.00  0.00    +0.137 C 
ATOM     18  S   UNL     1      -4.871   5.554   0.078  0.00  0.00    -0.018 S 
BRANCH  17  19
ATOM     19  N   UNL     1      -6.012   3.155   0.077  0.00  0.00    -0.323 N 
ATOM     20  H   UNL     1      -6.001   2.185   0.072  0.00  0.00    +0.148 HD
BRANCH  19  21
ATOM     21  C   UNL     1      -7.288   3.873   0.093  0.00  0.00    +0.078 C 
ATOM     22  C   UNL     1      -7.657   4.225   1.535  0.00  0.00    +0.010 C 
ATOM     23  C   UNL     1      -8.991   4.976   1.552  0.00  0.00    +0.009 C 
ATOM     24  C   UNL     1     -10.082   4.089   0.949  0.00  0.00    -0.010 C 
ATOM     25  C   UNL     1     -10.209   2.805   1.771  0.00  0.00    +0.007 C 
ATOM     26  C   UNL     1      -8.875   2.055   1.754  0.00  0.00    -0.010 C 
ATOM     27  C   UNL     1      -7.784   2.941   2.357  0.00  0.00    +0.009 C 
ATOM     28  C   UNL     1      -8.507   1.703   0.312  0.00  0.00    +0.009 C 
ATOM     29  C   UNL     1      -8.380   2.987  -0.511  0.00  0.00    +0.010 C 
ATOM     30  C   UNL     1      -9.713   3.737  -0.494  0.00  0.00    +0.009 C 
ENDBRANCH  19  21
ENDBRANCH  17  19
ENDBRANCH   3  17
TORSDOF 7
