REMARK  Name = ZINC55300036
REMARK  5 active torsions:
REMARK  status: ('A' for Active; 'I' for Inactive)
REMARK    1  A    between atoms: C_1  and  C_2
REMARK    2  A    between atoms: C_2  and  N_3
REMARK    3  A    between atoms: N_3  and  C_4
REMARK    4  A    between atoms: C_4  and  C_6
REMARK    5  A    between atoms: C_4  and  C_18
REMARK                            x       y       z     vdW  Elec       q    Type
REMARK                         _______ _______ _______ _____ _____    ______ ____
ROOT
ATOM      1  C   UNL     1       0.710  -1.947  -1.215  0.00  0.00    -0.009 C 
ENDROOT
BRANCH   1   2
ATOM      2  C   UNL     1      -0.700  -2.467  -1.328  0.00  0.00    -0.057 A 
ATOM      3  C   UNL     1      -1.601  -1.841  -2.172  0.00  0.00    +0.004 A 
ATOM      4  C   UNL     1      -2.894  -2.311  -2.283  0.00  0.00    +0.028 A 
ATOM      5  C   UNL     1      -3.293  -3.415  -1.545  0.00  0.00    +0.067 A 
ATOM      6  C   UNL     1      -2.385  -4.047  -0.693  0.00  0.00    +0.067 A 
ATOM      7  C   UNL     1      -1.086  -3.571  -0.593  0.00  0.00    +0.030 A 
ATOM      8  N   UNL     1      -3.063  -5.107  -0.097  0.00  0.00    -0.306 N 
ATOM      9  H   UNL     1      -2.689  -5.730   0.546  0.00  0.00    +0.170 HD
ATOM     10  C   UNL     1      -4.326  -5.120  -0.564  0.00  0.00    +0.325 A 
ATOM     11  O   UNL     1      -5.184  -5.921  -0.243  0.00  0.00    -0.247 OA
ATOM     12  N   UNL     1      -4.495  -4.111  -1.439  0.00  0.00    -0.306 N 
ATOM     13  H   UNL     1      -5.314  -3.904  -1.916  0.00  0.00    +0.170 HD
ENDBRANCH   1   2
BRANCH   1  14
ATOM     14  C   UNL     1       1.532  -2.439  -2.407  0.00  0.00    +0.134 C 
ATOM     15  C   UNL     1       1.656  -3.964  -2.349  0.00  0.00    +0.190 C 
ATOM     16  O   UNL     1       2.330  -4.426  -3.523  0.00  0.00    -0.375 OA
ATOM     17  C   UNL     1       1.677  -4.054  -4.741  0.00  0.00    +0.188 C 
ATOM     18  C   UNL     1       1.553  -2.529  -4.799  0.00  0.00    +0.188 C 
ATOM     19  O   UNL     1       0.881  -2.066  -3.625  0.00  0.00    -0.373 OA
ENDBRANCH   1  14
BRANCH   1  20
ATOM     20  N   UNL     1       0.690  -0.478  -1.207  0.00  0.00    +0.385 N 
ATOM     21  H   UNL     1       0.202  -0.144  -2.024  0.00  0.00    -0.085 HD
ATOM     22  H   UNL     1       1.636  -0.129  -1.214  0.00  0.00    -0.085 HD
BRANCH  20  24
ATOM     23  C   UNL     1      -0.019   1.526   0.010  0.00  0.00    -0.017 C 
ATOM     24  C   UNL     1       0.002  -0.004   0.002  0.00  0.00    -0.085 C 
ENDBRANCH  20  24
ENDBRANCH   1  20
TORSDOF 4
