REMARK  Name = ZINC29776269
REMARK  6 active torsions:
REMARK  status: ('A' for Active; 'I' for Inactive)
REMARK    1  A    between atoms: C_1  and  C_2
REMARK    2  A    between atoms: C_2  and  C_3
REMARK    3  A    between atoms: C_2  and  C_4
REMARK    4  A    between atoms: C_10  and  C_12
REMARK    5  A    between atoms: C_12  and  C_13
REMARK    6  A    between atoms: C_13  and  N_14
REMARK                            x       y       z     vdW  Elec       q    Type
REMARK                         _______ _______ _______ _____ _____    ______ ____
ROOT
ATOM      1  C   UNL     1      -3.658   1.831   0.029  0.00  0.00    +0.127 C 
ENDROOT
BRANCH   1   2
ATOM      2  N   UNL     1      -4.917   1.081   0.031  0.00  0.00    -0.224 N 
ATOM      3  C   UNL     1      -5.563   0.687   1.148  0.00  0.00    +0.247 C 
ATOM      4  O   UNL     1      -5.226   0.879   2.297  0.00  0.00    -0.273 OA
ATOM      5  C   UNL     1      -6.795  -0.043   0.665  0.00  0.00    +0.113 C 
ATOM      6  C   UNL     1      -8.056   0.663   1.153  0.00  0.00    +0.035 C 
ATOM      7  C   UNL     1      -9.292  -0.075   0.630  0.00  0.00    +0.003 C 
ATOM      8  C   UNL     1      -9.270  -1.521   1.131  0.00  0.00    +0.000 C 
ATOM      9  C   UNL     1      -8.013  -2.222   0.613  0.00  0.00    +0.003 C 
ATOM     10  C   UNL     1      -6.772  -1.493   1.135  0.00  0.00    +0.035 C 
ATOM     11  N   UNL     1      -6.700   0.026  -0.798  0.00  0.00    -0.285 N 
ATOM     12  C   UNL     1      -5.572   0.707  -1.075  0.00  0.00    +0.309 C 
ATOM     13  O   UNL     1      -5.189   0.952  -2.202  0.00  0.00    -0.252 OA
ATOM     14  H   UNL     1      -7.478  -0.437  -1.423  0.00  0.00    +0.151 HD
ENDBRANCH   1   2
BRANCH   1  15
ATOM     15  C   UNL     1      -2.482   0.853   0.018  0.00  0.00    +0.115 C 
BRANCH  15  22
ATOM     16  C   UNL     1       3.452   2.041  -0.020  0.00  0.00    +0.053 A 
ATOM     17  C   UNL     1       3.216   3.375  -0.010  0.00  0.00    +0.072 A 
ATOM     18  S   UNL     1       1.429   3.396   0.007  0.00  0.00    -0.060 S 
ATOM     19  C   UNL     1       1.183   1.677  -0.000  0.00  0.00    +0.165 A 
ATOM     20  N   UNL     1       2.420   1.220  -0.009  0.00  0.00    -0.229 NA
ATOM     21  N   UNL     1      -0.011   0.966   0.007  0.00  0.00    -0.265 N 
ATOM     22  C   UNL     1      -1.187   1.624   0.017  0.00  0.00    +0.220 C 
ATOM     23  O   UNL     1      -1.204   2.837   0.023  0.00  0.00    -0.275 OA
ATOM     24  H   UNL     1       0.004  -0.134   0.006  0.00  0.00    +0.157 HD
BRANCH  16  26
ATOM     25  C   UNL     1       5.369   1.452  -1.480  0.00  0.00    +0.014 C 
ATOM     26  C   UNL     1       4.861   1.507  -0.037  0.00  0.00    +0.032 C 
ATOM     27  C   UNL     1       5.765   2.427   0.787  0.00  0.00    +0.014 C 
ENDBRANCH  16  26
ENDBRANCH  15  22
ENDBRANCH   1  15
TORSDOF 4
