REMARK  Name = ZINC09524338
REMARK  7 active torsions:
REMARK  status: ('A' for Active; 'I' for Inactive)
REMARK    1  A    between atoms: C_1  and  C_2
REMARK    2  A    between atoms: C_5  and  C_8
REMARK    3  A    between atoms: C_8  and  S_9
REMARK    4  A    between atoms: S_9  and  C_10
REMARK    5  A    between atoms: C_21  and  C_23
REMARK    6  A    between atoms: C_32  and  C_34
REMARK    7  A    between atoms: C_32  and  C_35
REMARK                            x       y       z     vdW  Elec       q    Type
REMARK                         _______ _______ _______ _____ _____    ______ ____
ROOT
ATOM      1  C   UNL     1      -4.673   2.016  -3.458  0.00  0.00    +0.171 A 
ATOM      2  N   UNL     1      -3.638   1.136  -3.553  0.00  0.00    -0.302 N 
ATOM      3  H   UNL     1      -3.408   0.750  -4.412  0.00  0.00    +0.171 HD
ATOM      4  C   UNL     1      -2.932   0.800  -2.452  0.00  0.00    +0.258 A 
ATOM      5  O   UNL     1      -2.001   0.013  -2.527  0.00  0.00    -0.267 OA
ATOM      6  C   UNL     1      -3.286   1.371  -1.224  0.00  0.00    +0.069 A 
ATOM      7  C   UNL     1      -4.349   2.257  -1.182  0.00  0.00    +0.135 A 
ATOM      8  N   UNL     1      -5.012   2.555  -2.305  0.00  0.00    -0.208 NA
ATOM      9  N   UNL     1      -4.716   2.827   0.021  0.00  0.00    -0.302 N 
ATOM     10  C   UNL     1      -4.335   2.259   1.206  0.00  0.00    +0.017 C 
ATOM     11  C   UNL     1      -3.299   1.396   1.260  0.00  0.00    +0.024 C 
ATOM     12  C   UNL     1      -2.524   1.026   0.020  0.00  0.00    +0.094 C 
ATOM     13  C   UNL     1      -2.905   0.813   2.477  0.00  0.00    +0.162 C 
ATOM     14  O   UNL     1      -1.979   0.025   2.489  0.00  0.00    -0.292 OA
ATOM     15  C   UNL     1      -3.605   1.146   3.766  0.00  0.00    +0.086 C 
ATOM     16  C   UNL     1      -4.183   2.562   3.667  0.00  0.00    -0.023 C 
ATOM     17  C   UNL     1      -5.109   2.622   2.450  0.00  0.00    +0.058 C 
ATOM     18  C   UNL     1      -3.046   3.571   3.499  0.00  0.00    +0.011 C 
ATOM     19  C   UNL     1      -4.976   2.885   4.934  0.00  0.00    +0.011 C 
ATOM     20  H   UNL     1      -5.249   3.637   0.026  0.00  0.00    +0.153 HD
ENDROOT
BRANCH  12  21
ATOM     21  C   UNL     1      -1.213   1.769   0.017  0.00  0.00    -0.017 A 
ATOM     22  C   UNL     1      -0.013   1.076   0.008  0.00  0.00    +0.007 A 
ATOM     23  C   UNL     1       1.169   1.802   0.001  0.00  0.00    +0.020 A 
ATOM     24  C   UNL     1       1.111   3.183   0.008  0.00  0.00    +0.111 A 
ATOM     25  N   UNL     1      -0.050   3.809   0.022  0.00  0.00    -0.263 NA
ATOM     26  C   UNL     1      -1.193   3.151   0.030  0.00  0.00    +0.115 A 
ENDBRANCH  12  21
BRANCH   1  27
ATOM     27  S   UNL     1      -5.579   2.442  -4.909  0.00  0.00    -0.083 S 
BRANCH  27  28
ATOM     28  C   UNL     1      -6.779   3.597  -4.202  0.00  0.00    +0.112 C 
BRANCH  28  33
ATOM     29  C   UNL     1     -10.263   5.551  -8.378  0.00  0.00    +0.044 C 
ATOM     30  C   UNL     1      -9.354   5.042  -7.289  0.00  0.00    -0.050 A 
ATOM     31  C   UNL     1      -9.691   3.900  -6.586  0.00  0.00    +0.003 A 
ATOM     32  C   UNL     1      -8.858   3.433  -5.587  0.00  0.00    +0.005 A 
ATOM     33  C   UNL     1      -7.688   4.107  -5.291  0.00  0.00    -0.037 A 
ATOM     34  C   UNL     1      -7.354   5.251  -5.990  0.00  0.00    +0.005 A 
ATOM     35  C   UNL     1      -8.185   5.716  -6.992  0.00  0.00    +0.003 A 
ENDBRANCH  28  33
ENDBRANCH  27  28
ENDBRANCH   1  27
TORSDOF 4
