REMARK  Name = ZINC02316385
REMARK  8 active torsions:
REMARK  status: ('A' for Active; 'I' for Inactive)
REMARK    1  A    between atoms: C_1  and  O_2
REMARK    2  A    between atoms: O_2  and  C_3
REMARK    3  A    between atoms: C_3  and  C_5
REMARK    4  A    between atoms: C_9  and  N_10
REMARK    5  A    between atoms: N_10  and  C_11
REMARK    6  A    between atoms: C_11  and  N_13
REMARK    7  A    between atoms: C_14  and  C_16
REMARK    8  A    between atoms: C_17  and  C_18
REMARK                            x       y       z     vdW  Elec       q    Type
REMARK                         _______ _______ _______ _____ _____    ______ ____
ROOT
ATOM      1  N   UNL     1       4.712   1.173  -0.037  0.00  0.00    -0.290 N 
ATOM      2  H   UNL     1       4.725   0.203  -0.042  0.00  0.00    +0.154 HD
ENDROOT
BRANCH   1   7
ATOM      3  C   UNL     1       7.200   1.388  -0.054  0.00  0.00    +0.091 A 
ATOM      4  C   UNL     1       8.285   2.356  -0.065  0.00  0.00    -0.021 A 
ATOM      5  C   UNL     1       7.902   3.650  -0.053  0.00  0.00    -0.004 A 
ATOM      6  S   UNL     1       6.132   3.599  -0.037  0.00  0.00    -0.077 S 
ATOM      7  C   UNL     1       5.902   1.882  -0.044  0.00  0.00    +0.086 A 
ATOM      8  C   UNL     1       8.790   4.856  -0.055  0.00  0.00    +0.043 C 
ATOM      9  C   UNL     1      10.214   4.408   0.306  0.00  0.00    +0.005 C 
ATOM     10  C   UNL     1      10.576   3.184  -0.541  0.00  0.00    +0.005 C 
ATOM     11  C   UNL     1       9.760   1.974  -0.083  0.00  0.00    +0.037 C 
BRANCH   3  12
ATOM     12  C   UNL     1       7.466  -0.051  -0.056  0.00  0.00    +0.342 C 
ATOM     13  O   UNL     1       7.569  -0.649  -1.111  0.00  0.00    -0.245 OA
BRANCH  12  15
ATOM     14  C   UNL     1       7.859  -2.141   1.032  0.00  0.00    +0.280 C 
ATOM     15  O   UNL     1       7.596  -0.715   1.111  0.00  0.00    -0.464 OA
ENDBRANCH  12  15
ENDBRANCH   3  12
ENDBRANCH   1   7
BRANCH   1  16
ATOM     16  C   UNL     1       3.536   1.831  -0.022  0.00  0.00    +0.141 C 
ATOM     17  S   UNL     1       3.512   3.543  -0.013  0.00  0.00    -0.018 S 
BRANCH  16  18
ATOM     18  N   UNL     1       2.378   1.141  -0.015  0.00  0.00    -0.264 N 
ATOM     19  C   UNL     1       1.202   1.799   0.000  0.00  0.00    +0.242 C 
ATOM     20  O   UNL     1       1.185   3.017   0.007  0.00  0.00    -0.270 OA
ATOM     21  H   UNL     1       2.391   0.171  -0.020  0.00  0.00    +0.157 HD
BRANCH  19  22
ATOM     22  C   UNL     1      -0.013   1.076   0.008  0.00  0.00    +0.069 C 
ATOM     23  C   UNL     1      -1.197   1.738   0.017  0.00  0.00    +0.020 C 
BRANCH  23  24
ATOM     24  C   UNL     1      -2.413   1.014   0.019  0.00  0.00    +0.012 A 
ATOM     25  C   UNL     1      -3.718   1.493   0.028  0.00  0.00    +0.015 A 
ATOM     26  C   UNL     1      -4.724   0.560   0.028  0.00  0.00    +0.008 A 
ATOM     27  C   UNL     1      -4.404  -0.762   0.019  0.00  0.00    +0.046 A 
ATOM     28  S   UNL     1      -2.671  -0.751   0.003  0.00  0.00    -0.097 S 
ENDBRANCH  23  24
ENDBRANCH  19  22
ENDBRANCH  16  18
ENDBRANCH   1  16
TORSDOF 7
