REMARK  Name = ZINC36544174
REMARK  12 active torsions:
REMARK  status: ('A' for Active; 'I' for Inactive)
REMARK    1  A    between atoms: C_1  and  C_2
REMARK    2  A    between atoms: C_2  and  C_3
REMARK    3  A    between atoms: C_3  and  C_4
REMARK    4  A    between atoms: C_4  and  N_5
REMARK    5  A    between atoms: C_6  and  C_8
REMARK    6  A    between atoms: C_8  and  C_10
REMARK    7  A    between atoms: C_8  and  N_19
REMARK    8  A    between atoms: C_11  and  O_18
REMARK    9  A    between atoms: C_13  and  O_17
REMARK   10  A    between atoms: C_15  and  O_16
REMARK   11  A    between atoms: N_19  and  C_20
REMARK   12  A    between atoms: C_27  and  C_29
REMARK                            x       y       z     vdW  Elec       q    Type
REMARK                         _______ _______ _______ _____ _____    ______ ____
ROOT
ATOM      1  C   UNL     1       2.441  -4.606   3.227  0.00  0.00    +0.204 C 
ENDROOT
BRANCH   1   2
ATOM      2  C   UNL     1       1.562  -3.449   3.626  0.00  0.00    +0.065 A 
ATOM      3  C   UNL     1       1.672  -2.901   4.895  0.00  0.00    +0.129 A 
ATOM      4  C   UNL     1       0.863  -1.837   5.263  0.00  0.00    +0.091 A 
ATOM      5  C   UNL     1      -0.056  -1.320   4.361  0.00  0.00    +0.124 A 
ATOM      6  C   UNL     1      -0.165  -1.868   3.092  0.00  0.00    +0.091 A 
ATOM      7  C   UNL     1       0.647  -2.929   2.723  0.00  0.00    +0.129 A 
BRANCH   7   8
ATOM      8  O   UNL     1       0.544  -3.463   1.477  0.00  0.00    -0.506 OA
ATOM      9  H   UNL     1      -0.098  -4.184   1.410  0.00  0.00    +0.292 HD
ENDBRANCH   7   8
BRANCH   5  10
ATOM     10  O   UNL     1      -0.849  -0.277   4.722  0.00  0.00    -0.507 OA
ATOM     11  H   UNL     1      -0.469   0.591   4.530  0.00  0.00    +0.292 HD
ENDBRANCH   5  10
BRANCH   3  12
ATOM     12  O   UNL     1       2.571  -3.407   5.779  0.00  0.00    -0.506 OA
ATOM     13  H   UNL     1       3.461  -3.038   5.690  0.00  0.00    +0.292 HD
ENDBRANCH   3  12
ENDBRANCH   1   2
BRANCH   1  15
ATOM     14  N   UNL     1       2.167  -4.888   0.784  0.00  0.00    -0.313 N 
ATOM     15  C   UNL     1       1.847  -5.298   2.027  0.00  0.00    +0.239 C 
ATOM     16  O   UNL     1       1.079  -6.225   2.181  0.00  0.00    -0.273 OA
ATOM     17  H   UNL     1       2.781  -4.147   0.662  0.00  0.00    +0.149 HD
BRANCH  14  18
ATOM     18  C   UNL     1       1.589  -5.561  -0.381  0.00  0.00    +0.104 C 
BRANCH  18  19
ATOM     19  C   UNL     1       2.114  -4.905  -1.661  0.00  0.00    +0.018 C 
BRANCH  19  21
ATOM     20  C   UNL     1       2.034  -4.952  -4.157  0.00  0.00    +0.004 C 
ATOM     21  C   UNL     1       1.510  -5.608  -2.878  0.00  0.00    -0.002 C 
ENDBRANCH  19  21
ENDBRANCH  18  19
ENDBRANCH  14  18
ENDBRANCH   1  15
BRANCH   1  22
ATOM     22  N   UNL     1       2.537  -5.554   4.340  0.00  0.00    -0.250 N 
ATOM     23  C   UNL     1       3.726  -5.776   4.935  0.00  0.00    +0.252 C 
ATOM     24  O   UNL     1       4.697  -5.117   4.618  0.00  0.00    -0.270 OA
BRANCH  22  25
ATOM     25  C   UNL     1       1.395  -6.229   4.784  0.00  0.00    +0.056 A 
ATOM     26  C   UNL     1       0.485  -5.586   5.614  0.00  0.00    +0.025 A 
ATOM     27  C   UNL     1      -0.641  -6.254   6.051  0.00  0.00    +0.002 A 
ATOM     28  C   UNL     1      -0.865  -7.563   5.664  0.00  0.00    +0.002 A 
ATOM     29  C   UNL     1       0.038  -8.207   4.838  0.00  0.00    +0.022 A 
ATOM     30  C   UNL     1       1.165  -7.542   4.392  0.00  0.00    +0.062 A 
ATOM     31 CL   UNL     1       2.296  -8.349   3.350  0.00  0.00    -0.082 Cl
ENDBRANCH  22  25
BRANCH  23  32
ATOM     32  C   UNL     1       3.848  -6.820   5.974  0.00  0.00    +0.039 A 
ATOM     33  C   UNL     1       5.057  -7.496   6.149  0.00  0.00    +0.013 A 
ATOM     34  C   UNL     1       5.165  -8.470   7.120  0.00  0.00    +0.002 A 
ATOM     35  C   UNL     1       4.079  -8.778   7.921  0.00  0.00    +0.020 A 
ATOM     36  C   UNL     1       2.877  -8.111   7.753  0.00  0.00    +0.042 A 
ATOM     37  C   UNL     1       2.758  -7.130   6.788  0.00  0.00    +0.033 A 
ATOM     38 CL   UNL     1       1.520  -8.505   8.761  0.00  0.00    -0.084 Cl
ENDBRANCH  23  32
ENDBRANCH   1  22
TORSDOF 11
