REMARK  Name = ZINC42476839
REMARK  3 active torsions:
REMARK  status: ('A' for Active; 'I' for Inactive)
REMARK    1  A    between atoms: CB_1  and  CA_2
REMARK    2  A    between atoms: CA_2  and  C_4
REMARK    3  A    between atoms: CA_2  and  N_7
REMARK                            x       y       z     vdW  Elec       q    Type
REMARK                         _______ _______ _______ _____ _____    ______ ____
ROOT
ATOM      1  N   ALA A   1       0.711  -0.489   1.189  0.00  0.00    -0.286 N 
ATOM      2  C   UNK A   0       2.054  -0.600   1.174  0.00  0.00    +0.306 C 
ATOM      3  O   UNK A   0       2.677  -0.297   0.175  0.00  0.00    -0.252 OA
ATOM      4  N   UNK A   0       2.706  -1.046   2.266  0.00  0.00    -0.248 N 
ATOM      5  C   UNK A   0       4.091  -1.160   2.250  0.00  0.00    +0.166 A 
ATOM      6  N   UNK A   0       4.921  -0.877   1.276  0.00  0.00    -0.229 NA
ATOM      7  C   UNK A   0       6.246  -1.037   1.402  0.00  0.00    +0.054 A 
ATOM      8  C   UNK A   0       6.648  -1.510   2.604  0.00  0.00    +0.014 A 
ATOM      9  S   UNK A   0       5.112  -1.688   3.480  0.00  0.00    -0.057 S 
ATOM     10  C   UNK A   0       8.136  -1.671   2.680  0.00  0.00    +0.045 C 
ATOM     11  C   UNK A   0       8.608  -1.636   1.208  0.00  0.00    +0.011 C 
ATOM     12  C   UNK A   0       7.484  -0.822   0.535  0.00  0.00    +0.056 C 
ATOM     13  H   ALA A   1       0.213  -0.731   1.986  0.00  0.00    +0.151 HD
ATOM     14  H   UNK A   0       2.208  -1.288   3.062  0.00  0.00    +0.158 HD
ENDROOT
BRANCH   1  16
ATOM     15  CB  ALA A   1      -0.019   1.526   0.010  0.00  0.00    +0.040 C 
ATOM     16  CA  ALA A   1       0.002  -0.004   0.002  0.00  0.00    +0.184 C 
BRANCH  16  17
ATOM     17  C   ALA A   1      -1.412  -0.526   0.013  0.00  0.00    +0.376 C 
ATOM     18  O   ALA A   1      -2.118  -0.393  -0.972  0.00  0.00    -0.244 OA
ATOM     19  OXT ALA A   1      -1.849  -1.081   1.006  0.00  0.00    -0.244 OA
ENDBRANCH  16  17
ENDBRANCH   1  16
TORSDOF 2
