REMARK  Name = ZINC18243593
REMARK  13 active torsions:
REMARK  status: ('A' for Active; 'I' for Inactive)
REMARK    1  A    between atoms: C_1  and  C_2
REMARK    2  A    between atoms: C_2  and  C_3
REMARK    3  A    between atoms: C_2  and  C_4
REMARK    4  A    between atoms: C_4  and  C_6
REMARK    5  A    between atoms: C_4  and  N_25
REMARK    6  A    between atoms: C_6  and  O_8
REMARK    7  A    between atoms: O_8  and  C_9
REMARK    8  A    between atoms: C_9  and  C_10
REMARK    9  A    between atoms: N_12  and  C_13
REMARK   10  A    between atoms: N_12  and  C_14
REMARK   11  A    between atoms: C_14  and  C_15
REMARK   12  A    between atoms: N_17  and  C_18
REMARK   13  A    between atoms: C_26  and  C_28
REMARK                            x       y       z     vdW  Elec       q    Type
REMARK                         _______ _______ _______ _____ _____    ______ ____
ROOT
ATOM      1  O   UNL     1       4.460  -0.685   2.525  0.00  0.00    -0.454 OA
ENDROOT
BRANCH   1   2
ATOM      2  C   UNL     1       5.484  -1.538   2.691  0.00  0.00    +0.328 C 
ATOM      3  O   UNL     1       6.047  -2.000   1.728  0.00  0.00    -0.249 OA
BRANCH   2   4
ATOM      4  C   UNL     1       5.929  -1.918   4.080  0.00  0.00    +0.185 C 
BRANCH   4   5
ATOM      5  N   UNL     1       7.054  -2.853   3.992  0.00  0.00    -0.298 N 
ATOM      6  C   UNL     1       7.300  -3.707   5.006  0.00  0.00    +0.246 C 
ATOM      7  O   UNL     1       6.590  -3.701   5.992  0.00  0.00    -0.270 OA
ATOM      8  H   UNL     1       7.621  -2.858   3.205  0.00  0.00    +0.150 HD
BRANCH   6   9
ATOM      9  C   UNL     1       8.434  -4.651   4.918  0.00  0.00    +0.055 A 
ATOM     10  C   UNL     1       9.249  -4.664   3.784  0.00  0.00    +0.014 A 
ATOM     11  C   UNL     1      10.309  -5.543   3.710  0.00  0.00    +0.001 A 
ATOM     12  C   UNL     1      10.560  -6.419   4.752  0.00  0.00    +0.001 A 
ATOM     13  C   UNL     1       9.755  -6.416   5.876  0.00  0.00    +0.021 A 
ATOM     14  C   UNL     1       8.693  -5.537   5.966  0.00  0.00    +0.053 A 
ATOM     15 CL   UNL     1       7.682  -5.534   7.377  0.00  0.00    -0.083 Cl
ENDBRANCH   6   9
ENDBRANCH   4   5
BRANCH   4  17
ATOM     16  C   UNL     1       5.194   0.314   4.927  0.00  0.00    +0.009 C 
ATOM     17  C   UNL     1       6.368  -0.663   4.836  0.00  0.00    +0.014 C 
ATOM     18  C   UNL     1       6.821  -1.049   6.246  0.00  0.00    +0.009 C 
ENDBRANCH   4  17
ENDBRANCH   2   4
ENDBRANCH   1   2
BRANCH   1  19
ATOM     19  C   UNL     1       4.085  -0.364   1.159  0.00  0.00    +0.327 C 
BRANCH  19  20
ATOM     20  C   UNL     1       2.927   0.601   1.170  0.00  0.00    +0.253 C 
ATOM     21  O   UNL     1       2.463   0.980   2.225  0.00  0.00    -0.272 OA
ATOM     22  N   UNL     1       2.406   1.042   0.008  0.00  0.00    -0.293 N 
ATOM     23  C   UNL     1       2.966   0.584  -1.266  0.00  0.00    +0.132 C 
BRANCH  22  24
ATOM     24  C   UNL     1       1.280   1.979   0.019  0.00  0.00    +0.203 C 
BRANCH  24  25
ATOM     25  C   UNL     1      -0.015   1.208   0.015  0.00  0.00    +0.235 C 
ATOM     26  O   UNL     1       0.001  -0.005   0.005  0.00  0.00    -0.274 OA
ATOM     27  N   UNL     1      -1.191   1.867   0.018  0.00  0.00    -0.283 N 
ATOM     28  H   UNL     1      -1.205   2.834   0.092  0.00  0.00    +0.155 HD
BRANCH  27  29
ATOM     29  C   UNL     1      -2.392   1.155  -0.086  0.00  0.00    +0.052 A 
ATOM     30  C   UNL     1      -2.510  -0.099   0.499  0.00  0.00    +0.025 A 
ATOM     31  C   UNL     1      -3.698  -0.796   0.399  0.00  0.00    +0.002 A 
ATOM     32  C   UNL     1      -4.766  -0.253  -0.291  0.00  0.00    +0.002 A 
ATOM     33  C   UNL     1      -4.650   0.993  -0.880  0.00  0.00    +0.022 A 
ATOM     34  C   UNL     1      -3.466   1.699  -0.779  0.00  0.00    +0.062 A 
ATOM     35 CL   UNL     1      -3.320   3.263  -1.519  0.00  0.00    -0.082 Cl
ENDBRANCH  27  29
ENDBRANCH  24  25
ENDBRANCH  22  24
ENDBRANCH  19  20
ENDBRANCH   1  19
TORSDOF 10
