REMARK  Name = ZINC31796320
REMARK  9 active torsions:
REMARK  status: ('A' for Active; 'I' for Inactive)
REMARK    1  A    between atoms: C_7  and  C_17
REMARK    2  A    between atoms: C_9  and  C_11
REMARK    3  A    between atoms: N_19  and  C_20
REMARK    4  A    between atoms: C_20  and  C_21
REMARK    5  A    between atoms: C_21  and  C_22
REMARK    6  A    between atoms: C_22  and  C_23
REMARK    7  A    between atoms: C_24  and  C_36
REMARK    8  A    between atoms: C_25  and  N_35
REMARK    9  A    between atoms: N_26  and  C_28
REMARK                            x       y       z     vdW  Elec       q    Type
REMARK                         _______ _______ _______ _____ _____    ______ ____
ROOT
ATOM      1  C   UNL     1      -0.292   1.272  -4.907  0.00  0.00    +0.245 C 
ATOM      2  O   UNL     1       0.695   0.574  -5.032  0.00  0.00    -0.270 OA
ATOM      3  N   UNL     1      -0.735   1.599  -3.677  0.00  0.00    -0.311 N 
ATOM      4  H   UNL     1      -1.628   2.231  -3.564  0.00  0.00    +0.149 HD
ENDROOT
BRANCH   1  11
ATOM      5  C   UNL     1       1.182   0.658  -8.870  0.00  0.00    +0.001 A 
ATOM      6  C   UNL     1       0.477   1.135  -9.973  0.00  0.00    +0.002 A 
ATOM      7  C   UNL     1      -0.701   1.799  -9.820  0.00  0.00    +0.028 A 
ATOM      8  C   UNL     1      -1.212   2.024  -8.528  0.00  0.00    +0.072 A 
ATOM      9  C   UNL     1      -0.490   1.540  -7.409  0.00  0.00    +0.013 A 
ATOM     10  C   UNL     1       0.714   0.852  -7.605  0.00  0.00    +0.011 A 
ATOM     11  C   UNL     1      -1.007   1.762  -6.106  0.00  0.00    +0.048 A 
ATOM     12  C   UNL     1      -2.201   2.457  -5.991  0.00  0.00    +0.042 A 
ATOM     13  C   UNL     1      -2.853   2.907  -7.150  0.00  0.00    +0.074 A 
ATOM     14  N   UNL     1      -2.357   2.686  -8.351  0.00  0.00    -0.247 NA
BRANCH  13  15
ATOM     15  C   UNL     1      -4.130   3.649  -7.020  0.00  0.00    +0.018 A 
ATOM     16  C   UNL     1      -4.803   4.110  -8.155  0.00  0.00    +0.013 A 
ATOM     17  C   UNL     1      -5.991   4.798  -7.980  0.00  0.00    +0.020 A 
ATOM     18  C   UNL     1      -6.471   5.005  -6.699  0.00  0.00    +0.111 A 
ATOM     19  N   UNL     1      -5.814   4.557  -5.646  0.00  0.00    -0.263 NA
ATOM     20  C   UNL     1      -4.682   3.893  -5.763  0.00  0.00    +0.120 A 
ENDBRANCH  13  15
ENDBRANCH   1  11
BRANCH   3  21
ATOM     21  C   UNL     1      -0.026   1.114  -2.490  0.00  0.00    +0.105 C 
BRANCH  21  22
ATOM     22  C   UNL     1      -0.729   1.626  -1.232  0.00  0.00    +0.025 C 
BRANCH  22  23
ATOM     23  C   UNL     1       0.011   1.119   0.008  0.00  0.00    +0.060 C 
BRANCH  23  24
ATOM     24  C   UNL     1      -0.682   1.623   1.248  0.00  0.00    +0.083 A 
ATOM     25  C   UNL     1      -1.724   0.965   1.941  0.00  0.00    +0.114 A 
ATOM     26  C   UNL     1      -2.069   1.773   3.021  0.00  0.00    +0.138 A 
ATOM     27  N   UNL     1      -1.270   2.863   2.973  0.00  0.00    -0.217 N 
ATOM     28  N   UNL     1      -0.420   2.740   1.869  0.00  0.00    -0.168 NA
BRANCH  27  29
ATOM     29  C   UNL     1      -1.288   3.933   3.879  0.00  0.00    +0.068 A 
ATOM     30  C   UNL     1      -2.489   4.354   4.433  0.00  0.00    +0.030 A 
ATOM     31  C   UNL     1      -2.504   5.405   5.329  0.00  0.00    +0.040 A 
ATOM     32  C   UNL     1      -1.323   6.046   5.666  0.00  0.00    +0.124 A 
ATOM     33  C   UNL     1      -0.125   5.630   5.110  0.00  0.00    +0.040 A 
ATOM     34  C   UNL     1      -0.105   4.576   4.218  0.00  0.00    +0.030 A 
ATOM     35  F   UNL     1      -1.341   7.077   6.538  0.00  0.00    -0.205 F 
ENDBRANCH  27  29
BRANCH  26  36
ATOM     36  N   UNL     1      -3.044   1.510   3.964  0.00  0.00    -0.342 N 
ATOM     37  H   UNL     1      -3.230   2.227   4.778  0.00  0.00    +0.144 HD
ATOM     38  H   UNL     1      -3.635   0.584   3.902  0.00  0.00    +0.144 HD
ENDBRANCH  26  36
BRANCH  25  39
ATOM     39  C   UNL     1      -2.312  -0.295   1.598  0.00  0.00    +0.104 C 
ATOM     40  N   UNL     1      -2.778  -1.295   1.326  0.00  0.00    -0.191 NA
ENDBRANCH  25  39
ENDBRANCH  23  24
ENDBRANCH  22  23
ENDBRANCH  21  22
ENDBRANCH   3  21
TORSDOF 9
