REMARK  Name = ZINC50988242
REMARK  6 active torsions:
REMARK  status: ('A' for Active; 'I' for Inactive)
REMARK    1  A    between atoms: C_1  and  C_2
REMARK    2  A    between atoms: C_2  and  C_3
REMARK    3  A    between atoms: C_3  and  N_4
REMARK    4  A    between atoms: C_5  and  C_18
REMARK    5  A    between atoms: C_7  and  C_10
REMARK    6  A    between atoms: C_18  and  C_19
REMARK                            x       y       z     vdW  Elec       q    Type
REMARK                         _______ _______ _______ _____ _____    ______ ____
ROOT
ATOM      1  N   UNL     1      -1.413  -1.998   0.005  0.00  0.00    -0.279 N 
ATOM      2  C   UNL     1      -1.392  -2.787   1.120  0.00  0.00    +0.076 C 
ATOM      3  N   UNL     1      -1.377  -4.045   0.855  0.00  0.00    -0.363 N 
ATOM      4  C   UNL     1      -1.389  -4.206  -0.608  0.00  0.00    +0.175 C 
ATOM      5  C   UNL     1      -1.419  -2.782  -1.129  0.00  0.00    +0.101 C 
ATOM      6  N   UNL     1      -1.443  -2.391  -2.361  0.00  0.00    -0.388 N 
ATOM      7  H   UNL     1      -1.459  -1.444  -2.569  0.00  0.00    +0.157 HD
ATOM      8  H   UNL     1      -1.445  -3.045  -3.077  0.00  0.00    +0.157 HD
ATOM      9  H   UNL     1      -1.361  -4.764   1.506  0.00  0.00    +0.162 HD
ENDROOT
BRANCH   4  10
ATOM     10  C   UNL     1      -2.622  -4.952  -1.048  0.00  0.00    +0.018 A 
ATOM     11  C   UNL     1      -3.752  -4.951  -0.252  0.00  0.00    +0.024 A 
ATOM     12  C   UNL     1      -4.884  -5.635  -0.656  0.00  0.00    +0.018 A 
ATOM     13  C   UNL     1      -4.886  -6.322  -1.857  0.00  0.00    +0.018 A 
ATOM     14  C   UNL     1      -3.757  -6.324  -2.654  0.00  0.00    +0.040 A 
ATOM     15  C   UNL     1      -2.626  -5.634  -2.253  0.00  0.00    +0.129 A 
ATOM     16  F   UNL     1      -1.524  -5.631  -3.034  0.00  0.00    -0.205 F 
ATOM     17 BR   UNL     1      -6.429  -5.633   0.434  0.00  0.00    -0.050 Br
ENDBRANCH   4  10
BRANCH   2  18
ATOM     18  C   UNL     1      -1.386  -2.237   2.523  0.00  0.00    +0.066 C 
ATOM     19  C   UNL     1      -2.826  -2.070   3.012  0.00  0.00    +0.011 C 
ENDBRANCH   2  18
BRANCH   1  20
ATOM     20  C   UNL     1      -1.433  -0.534   0.013  0.00  0.00    +0.113 C 
BRANCH  20  22
ATOM     21  C   UNL     1      -0.019   1.526   0.010  0.00  0.00    +0.005 C 
ATOM     22  C   UNL     1       0.002  -0.004   0.002  0.00  0.00    +0.016 C 
ENDBRANCH  20  22
ENDBRANCH   1  20
TORSDOF 4
