REMARK  Name = ZINC08927623
REMARK  5 active torsions:
REMARK  status: ('A' for Active; 'I' for Inactive)
REMARK    1  A    between atoms: C_1  and  C_2
REMARK    2  A    between atoms: C_2  and  N_42
REMARK    3  A    between atoms: C_10  and  O_24
REMARK    4  A    between atoms: C_12  and  C_15
REMARK    5  A    between atoms: C_20  and  O_21
REMARK                            x       y       z     vdW  Elec       q    Type
REMARK                         _______ _______ _______ _____ _____    ______ ____
ROOT
ATOM      1  C   UNL     1       2.083   6.780  -2.757  0.00  0.00    -0.074 C 
ATOM      2  C   UNL     1       2.140   5.656  -1.720  0.00  0.00    +0.018 C 
ATOM      3  C   UNL     1       0.886   4.802  -1.873  0.00  0.00    -0.027 A 
ATOM      4  C   UNL     1      -0.185   5.289  -2.545  0.00  0.00    -0.021 A 
ATOM      5  S   UNL     1      -1.389   3.989  -2.485  0.00  0.00    -0.080 S 
ATOM      6  C   UNL     1      -0.491   2.836  -1.594  0.00  0.00    +0.080 A 
ATOM      7  C   UNL     1       0.738   3.460  -1.342  0.00  0.00    +0.067 A 
ATOM      8  C   UNL     1       1.745   2.691  -0.567  0.00  0.00    +0.220 C 
ATOM      9  N   UNL     1       1.359   1.580  -0.002  0.00  0.00    -0.223 NA
ATOM     10  C   UNL     1      -0.013   1.086   0.008  0.00  0.00    +0.227 C 
ATOM     11  N   UNL     1      -0.773   1.563  -1.162  0.00  0.00    -0.313 N 
ATOM     12  C   UNL     1      -0.297   6.636  -3.185  0.00  0.00    -0.035 C 
ATOM     13  H   UNL     1      -1.435   1.008  -1.602  0.00  0.00    +0.149 HD
ATOM     14  N   UNL     1       0.791   7.487  -2.644  0.00  0.00    +0.383 N 
ATOM     15  H   UNL     1       0.602   7.682  -1.654  0.00  0.00    -0.081 HD
ENDROOT
BRANCH  10  16
ATOM     16  C   UNL     1      -0.697   1.561   1.264  0.00  0.00    +0.038 A 
ATOM     17  C   UNL     1      -2.043   1.872   1.242  0.00  0.00    +0.026 A 
ATOM     18  C   UNL     1      -2.673   2.304   2.395  0.00  0.00    +0.020 A 
ATOM     19  C   UNL     1      -1.955   2.435   3.571  0.00  0.00    +0.034 A 
ATOM     20  C   UNL     1      -0.607   2.130   3.596  0.00  0.00    +0.061 A 
ATOM     21  C   UNL     1       0.025   1.692   2.440  0.00  0.00    +0.138 A 
ATOM     22 BR   UNL     1       0.374   2.309   5.202  0.00  0.00    -0.046 Br
ATOM     23 BR   UNL     1      -4.517   2.723   2.364  0.00  0.00    -0.050 Br
BRANCH  21  24
ATOM     24  O   UNL     1       1.351   1.391   2.462  0.00  0.00    -0.505 OA
ATOM     25  H   UNL     1       1.927   2.140   2.257  0.00  0.00    +0.292 HD
ENDBRANCH  21  24
ENDBRANCH  10  16
BRANCH  14  27
ATOM     26  C   UNL     1       1.233   8.523  -4.844  0.00  0.00    -0.017 C 
ATOM     27  C   UNL     1       0.847   8.767  -3.384  0.00  0.00    -0.082 C 
ENDBRANCH  14  27
BRANCH   8  28
ATOM     28  O   UNL     1       3.020   3.127  -0.450  0.00  0.00    -0.492 OA
ATOM     29  H   UNL     1       3.587   2.548   0.077  0.00  0.00    +0.294 HD
ENDBRANCH   8  28
TORSDOF 4
