REMARK  Name = ZINC66563572
REMARK  8 active torsions:
REMARK  status: ('A' for Active; 'I' for Inactive)
REMARK    1  A    between atoms: C_1  and  C_2
REMARK    2  A    between atoms: C_2  and  C_3
REMARK    3  A    between atoms: C_2  and  C_4
REMARK    4  A    between atoms: C_2  and  N_19
REMARK    5  A    between atoms: C_4  and  N_5
REMARK    6  A    between atoms: C_6  and  C_8
REMARK    7  A    between atoms: C_8  and  N_9
REMARK    8  A    between atoms: C_14  and  C_16
REMARK                            x       y       z     vdW  Elec       q    Type
REMARK                         _______ _______ _______ _____ _____    ______ ____
ROOT
ATOM      1  N   UNL     1      -0.573  -2.736   0.276  0.00  0.00    -0.315 N 
ATOM      2  C   UNL     1      -1.802  -3.183  -0.050  0.00  0.00    +0.197 C 
ATOM      3  O   UNL     1      -2.762  -2.450   0.056  0.00  0.00    -0.278 OA
ATOM      4  H   UNL     1       0.195  -3.322   0.191  0.00  0.00    +0.149 HD
ENDROOT
BRANCH   1   5
ATOM      5  C   UNL     1      -0.397  -1.364   0.759  0.00  0.00    +0.125 C 
BRANCH   5   7
ATOM      6  C   UNL     1       1.787  -1.101  -0.426  0.00  0.00    +0.029 C 
ATOM      7  C   UNL     1       1.094  -1.074   0.938  0.00  0.00    +0.032 C 
ATOM      8  C   UNL     1       1.272   0.307   1.573  0.00  0.00    +0.029 C 
BRANCH   7   9
ATOM      9  N   UNL     1       1.691  -2.094   1.811  0.00  0.00    -0.291 NA
ATOM     10  C   UNL     1       1.006  -2.141   3.111  0.00  0.00    +0.113 C 
ATOM     11  C   UNL     1       1.618  -3.255   3.964  0.00  0.00    +0.175 C 
ATOM     12  O   UNL     1       3.023  -3.026   4.101  0.00  0.00    -0.377 OA
ATOM     13  C   UNL     1       3.722  -2.974   2.854  0.00  0.00    +0.175 C 
ATOM     14  C   UNL     1       3.131  -1.858   1.989  0.00  0.00    +0.113 C 
ENDBRANCH   7   9
ENDBRANCH   5   7
ENDBRANCH   1   5
BRANCH   2  15
ATOM     15  C   UNL     1      -1.982  -4.595  -0.547  0.00  0.00    +0.020 C 
BRANCH  15  16
ATOM     16  N   UNL     1      -3.403  -4.835  -0.832  0.00  0.00    +0.393 N 
ATOM     17  C   UNL     1      -4.164  -4.804   0.422  0.00  0.00    -0.077 C 
ATOM     18  C   UNL     1      -5.655  -4.974   0.123  0.00  0.00    -0.019 C 
ATOM     19  C   UNL     1      -5.880  -6.316  -0.579  0.00  0.00    -0.003 C 
ATOM     20  C   UNL     1      -5.024  -6.366  -1.848  0.00  0.00    -0.006 C 
ATOM     21  C   UNL     1      -3.556  -6.145  -1.476  0.00  0.00    +0.020 C 
ATOM     22  H   UNL     1      -3.748  -4.116  -1.450  0.00  0.00    -0.080 HD
BRANCH  21  23
ATOM     23  C   UNL     1      -2.710  -6.195  -2.721  0.00  0.00    +0.197 C 
ATOM     24  O   UNL     1      -2.469  -5.175  -3.331  0.00  0.00    -0.278 OA
ATOM     25  N   UNL     1      -2.221  -7.372  -3.158  0.00  0.00    -0.331 N 
ATOM     26  H   UNL     1      -2.414  -8.188  -2.670  0.00  0.00    +0.145 HD
ATOM     27  H   UNL     1      -1.676  -7.404  -3.960  0.00  0.00    +0.145 HD
ENDBRANCH  21  23
ENDBRANCH  15  16
ENDBRANCH   2  15
TORSDOF 6
