REMARK  Name = ZINC39710276
REMARK  15 active torsions:
REMARK  status: ('A' for Active; 'I' for Inactive)
REMARK    1  A    between atoms: C_1  and  C_2
REMARK    2  A    between atoms: C_2  and  C_3
REMARK    3  A    between atoms: C_3  and  C_4
REMARK    4  A    between atoms: C_3  and  C_5
REMARK    5  A    between atoms: C_3  and  N_6
REMARK    6  A    between atoms: C_7  and  C_12
REMARK    7  A    between atoms: C_12  and  C_14
REMARK    8  A    between atoms: C_12  and  N_27
REMARK    9  A    between atoms: C_19  and  C_26
REMARK   10  A    between atoms: N_27  and  C_28
REMARK   11  A    between atoms: N_27  and  C_37
REMARK   12  A    between atoms: C_28  and  C_29
REMARK   13  A    between atoms: C_32  and  O_35
REMARK   14  A    between atoms: O_35  and  C_36
REMARK   15  A    between atoms: C_37  and  C_38
REMARK                            x       y       z     vdW  Elec       q    Type
REMARK                         _______ _______ _______ _____ _____    ______ ____
ROOT
ATOM      1  C   UNL     1       1.254  -2.779  -4.135  0.00  0.00    -0.008 C 
ENDROOT
BRANCH   1   2
ATOM      2  C   UNL     1       0.512  -1.497  -4.518  0.00  0.00    +0.088 C 
ATOM      3  C   UNL     1      -0.575  -1.262  -3.487  0.00  0.00    -0.006 C 
ATOM      4  C   UNL     1      -1.858  -1.183  -3.939  0.00  0.00    -0.007 A 
ATOM      5  C   UNL     1      -2.968  -0.959  -3.012  0.00  0.00    +0.012 A 
ATOM      6  C   UNL     1      -4.231  -0.887  -3.507  0.00  0.00    -0.050 A 
ATOM      7  C   UNL     1      -4.484  -1.021  -4.873  0.00  0.00    +0.005 A 
ATOM      8  C   UNL     1      -3.499  -1.231  -5.784  0.00  0.00    +0.024 A 
ATOM      9  C   UNL     1      -2.155  -1.321  -5.375  0.00  0.00    +0.040 A 
ATOM     10  N   UNL     1      -1.197  -1.526  -6.278  0.00  0.00    -0.285 N 
ATOM     11  C   UNL     1       0.083  -1.623  -5.963  0.00  0.00    +0.223 C 
ATOM     12  O   UNL     1       0.913  -1.812  -6.832  0.00  0.00    -0.275 OA
ATOM     13  C   UNL     1      -5.382  -0.656  -2.562  0.00  0.00    +0.044 C 
ATOM     14  H   UNL     1      -1.450  -1.610  -7.211  0.00  0.00    +0.155 HD
ENDBRANCH   1   2
BRANCH   1  16
ATOM     15  N   UNL     1       0.971  -2.116  -1.772  0.00  0.00    -0.182 NA
ATOM     16  C   UNL     1       1.942  -2.585  -2.782  0.00  0.00    +0.205 C 
ATOM     17  N   UNL     1       2.425  -3.871  -2.260  0.00  0.00    -0.152 NA
ATOM     18  N   UNL     1       1.863  -4.102  -1.188  0.00  0.00    -0.070 NA
ATOM     19  N   UNL     1       0.970  -3.098  -0.816  0.00  0.00    -0.179 N 
ATOM     20  H   UNL     1       0.433  -3.095  -0.008  0.00  0.00    +0.191 HD
BRANCH  15  21
ATOM     21  C   UNL     1       1.384  -0.827  -1.202  0.00  0.00    +0.037 C 
ATOM     22  C   UNL     1       1.614   0.179  -2.331  0.00  0.00    +0.029 C 
ATOM     23  C   UNL     1       2.681  -1.012  -0.411  0.00  0.00    +0.029 C 
BRANCH  21  25
ATOM     24  C   UNL     1       0.719   1.036   0.324  0.00  0.00    +0.006 C 
ATOM     25  C   UNL     1       0.288  -0.307  -0.269  0.00  0.00    +0.020 C 
ENDBRANCH  21  25
ENDBRANCH  15  21
ENDBRANCH   1  16
BRANCH   1  26
ATOM     26  N   UNL     1       2.263  -3.085  -5.158  0.00  0.00    +0.392 N 
ATOM     27  H   UNL     1       1.811  -3.194  -6.054  0.00  0.00    -0.080 HD
BRANCH  26  28
ATOM     28  C   UNL     1       3.236  -1.988  -5.230  0.00  0.00    -0.042 C 
BRANCH  28  29
ATOM     29  C   UNL     1       4.191  -2.237  -6.369  0.00  0.00    -0.064 A 
ATOM     30  C   UNL     1       5.354  -2.953  -6.149  0.00  0.00    +0.005 A 
ATOM     31  C   UNL     1       6.231  -3.183  -7.191  0.00  0.00    +0.046 A 
ATOM     32  C   UNL     1       5.945  -2.695  -8.458  0.00  0.00    +0.120 A 
ATOM     33  C   UNL     1       4.778  -1.978  -8.675  0.00  0.00    +0.046 A 
ATOM     34  C   UNL     1       3.901  -1.755  -7.631  0.00  0.00    +0.005 A 
BRANCH  32  35
ATOM     35  O   UNL     1       6.807  -2.920  -9.485  0.00  0.00    -0.495 OA
ATOM     36  C   UNL     1       6.448  -2.388 -10.761  0.00  0.00    +0.277 C 
ENDBRANCH  32  35
ENDBRANCH  28  29
ENDBRANCH  26  28
BRANCH  26  37
ATOM     37  C   UNL     1       2.955  -4.332  -4.805  0.00  0.00    -0.002 C 
BRANCH  37  38
ATOM     38  C   UNL     1       1.966  -5.468  -4.784  0.00  0.00    +0.089 A 
ATOM     39  C   UNL     1       1.701  -6.299  -5.808  0.00  0.00    +0.042 A 
ATOM     40  C   UNL     1       0.717  -7.207  -5.354  0.00  0.00    +0.041 A 
ATOM     41  C   UNL     1       0.440  -6.877  -4.080  0.00  0.00    +0.195 A 
ATOM     42  O   UNL     1       1.203  -5.826  -3.738  0.00  0.00    -0.470 OA
ENDBRANCH  37  38
ENDBRANCH  26  37
ENDBRANCH   1  26
TORSDOF 10
