REMARK  Name = ZINC65409850
REMARK  2 active torsions:
REMARK  status: ('A' for Active; 'I' for Inactive)
REMARK    1  A    between atoms: C_6  and  C_7
REMARK    2  A    between atoms: C_12  and  C_21
REMARK                            x       y       z     vdW  Elec       q    Type
REMARK                         _______ _______ _______ _____ _____    ______ ____
ROOT
ATOM      1  C   UNL     1      -1.293  -0.775   0.011  0.00  0.00    +0.042 C 
ATOM      2  C   UNL     1      -1.350  -1.674   1.256  0.00  0.00    +0.062 C 
ATOM      3  C   UNL     1      -2.218  -2.872   0.985  0.00  0.00    +0.042 C 
ATOM      4  N   UNL     1      -1.890  -4.097   1.113  0.00  0.00    -0.264 NA
ATOM      5  C   UNL     1      -3.009  -4.978   0.758  0.00  0.00    +0.239 C 
ATOM      6  N   UNL     1      -4.220  -4.125   0.803  0.00  0.00    -0.274 NA
ATOM      7  C   UNL     1      -3.664  -2.773   0.533  0.00  0.00    +0.187 C 
ATOM      8  C   UNL     1      -3.698  -2.543  -0.955  0.00  0.00    +0.236 C 
ATOM      9  O   UNL     1      -4.655  -2.955  -1.577  0.00  0.00    -0.274 OA
ATOM     10  N   UNL     1      -2.747  -1.921  -1.618  0.00  0.00    -0.313 N 
ATOM     11  C   UNL     1      -1.374  -1.658  -1.239  0.00  0.00    +0.112 C 
ATOM     12  H   UNL     1      -4.879  -4.395   0.088  0.00  0.00    +0.125 HD
ATOM     13  H   UNL     1      -3.004  -1.586  -2.491  0.00  0.00    +0.149 HD
ENDROOT
BRANCH   1  19
ATOM     14  C   UNL     1      -0.017   1.378   0.010  0.00  0.00    +0.005 A 
ATOM     15  C   UNL     1       1.171   2.086   0.002  0.00  0.00    +0.020 A 
ATOM     16  C   UNL     1       2.378   1.410  -0.013  0.00  0.00    +0.041 A 
ATOM     17  C   UNL     1       2.396   0.027  -0.021  0.00  0.00    +0.020 A 
ATOM     18  C   UNL     1       1.208  -0.679  -0.013  0.00  0.00    +0.005 A 
ATOM     19  C   UNL     1       0.002  -0.004   0.002  0.00  0.00    -0.042 A 
ATOM     20 CL   UNL     1       3.870   2.298  -0.023  0.00  0.00    -0.084 Cl
ENDBRANCH   1  19
BRANCH   5  21
ATOM     21  C   UNL     1      -2.813  -5.534  -0.629  0.00  0.00    +0.146 A 
ATOM     22  N   UNL     1      -3.766  -5.832  -1.470  0.00  0.00    -0.237 NA
ATOM     23  C   UNL     1      -3.224  -6.300  -2.604  0.00  0.00    +0.130 A 
ATOM     24  C   UNL     1      -1.885  -6.291  -2.461  0.00  0.00    +0.104 A 
ATOM     25  N   UNL     1      -1.624  -5.800  -1.210  0.00  0.00    -0.345 N 
ATOM     26  H   UNL     1      -0.748  -5.669  -0.814  0.00  0.00    +0.167 HD
ENDBRANCH   5  21
TORSDOF 2
