REMARK  Name = ZINC15403862
REMARK  5 active torsions:
REMARK  status: ('A' for Active; 'I' for Inactive)
REMARK    1  A    between atoms: C_1  and  C_2
REMARK    2  A    between atoms: C_7  and  N_8
REMARK    3  A    between atoms: C_12  and  C_15
REMARK    4  A    between atoms: C_17  and  C_27
REMARK    5  A    between atoms: C_19  and  C_20
REMARK                            x       y       z     vdW  Elec       q    Type
REMARK                         _______ _______ _______ _____ _____    ______ ____
ROOT
ATOM      1  N   UNL     1      -3.111   4.344   9.005  0.00  0.00    -0.292 N 
ATOM      2  C   UNL     1      -2.707   4.018   7.730  0.00  0.00    +0.180 C 
ATOM      3  N   UNL     1      -3.569   3.516   6.880  0.00  0.00    -0.127 NA
ATOM      4  N   UNL     1      -3.242   3.167   5.576  0.00  0.00    -0.150 NA
ATOM      5  C   UNL     1      -2.053   2.877   5.164  0.00  0.00    +0.083 C 
ATOM      6  C   UNL     1      -0.852   2.909   6.070  0.00  0.00    +0.135 C 
ATOM      7  S   UNL     1      -1.032   4.276   7.246  0.00  0.00    -0.082 S 
ATOM      8  H   UNL     1      -2.458   4.633   9.661  0.00  0.00    +0.154 HD
ENDROOT
BRANCH   5   9
ATOM      9  C   UNL     1      -1.864   2.507   3.752  0.00  0.00    +0.020 A 
ATOM     10  C   UNL     1      -0.600   2.151   3.097  0.00  0.00    +0.033 A 
ATOM     11  C   UNL     1      -0.893   1.887   1.812  0.00  0.00    +0.024 A 
ATOM     12  N   UNL     1      -2.236   2.057   1.620  0.00  0.00    -0.287 N 
ATOM     13  C   UNL     1      -2.830   2.426   2.790  0.00  0.00    +0.033 A 
ATOM     14  C   UNL     1      -4.298   2.703   2.987  0.00  0.00    +0.064 C 
ATOM     15  C   UNL     1      -2.899   1.876   0.409  0.00  0.00    +0.231 A 
ATOM     16  N   UNL     1      -4.191   2.173   0.160  0.00  0.00    -0.244 N 
ATOM     17  H   UNL     1      -4.832   2.550   0.783  0.00  0.00    +0.192 HD
ATOM     18  N   UNL     1      -4.424   1.828  -1.181  0.00  0.00    -0.159 NA
ATOM     19  C   UNL     1      -3.300   1.358  -1.654  0.00  0.00    +0.246 A 
ATOM     20  N   UNL     1      -2.376   1.391  -0.695  0.00  0.00    -0.199 NA
ATOM     21  C   UNL     1       0.098   1.477   0.753  0.00  0.00    +0.064 C 
ENDBRANCH   5   9
BRANCH   1  28
ATOM     22  C   UNL     1      -3.770   3.993  11.750  0.00  0.00    +0.045 C 
ATOM     23  C   UNL     1      -4.829   4.087  10.682  0.00  0.00    -0.029 A 
ATOM     24  C   UNL     1      -6.165   4.004  11.023  0.00  0.00    +0.005 A 
ATOM     25  C   UNL     1      -7.136   4.090  10.043  0.00  0.00    +0.000 A 
ATOM     26  C   UNL     1      -6.775   4.261   8.719  0.00  0.00    +0.002 A 
ATOM     27  C   UNL     1      -5.441   4.351   8.372  0.00  0.00    +0.023 A 
ATOM     28  C   UNL     1      -4.462   4.259   9.353  0.00  0.00    +0.036 A 
ENDBRANCH   1  28
TORSDOF 2
