REMARK  Name = ZINC66121494
REMARK  6 active torsions:
REMARK  status: ('A' for Active; 'I' for Inactive)
REMARK    1  A    between atoms: C_6  and  C_7
REMARK    2  A    between atoms: C_7  and  C_13
REMARK    3  A    between atoms: C_13  and  N_14
REMARK    4  A    between atoms: C_21  and  C_24
REMARK    5  A    between atoms: C_24  and  C_25
REMARK    6  A    between atoms: C_25  and  C_26
REMARK                            x       y       z     vdW  Elec       q    Type
REMARK                         _______ _______ _______ _____ _____    ______ ____
ROOT
ATOM      1  N   UNL     1      -2.351   1.133  -1.094  0.00  0.00    -0.298 N 
ATOM      2  C   UNL     1      -3.169   1.749  -1.971  0.00  0.00    +0.302 C 
ATOM      3  O   UNL     1      -3.683   1.115  -2.872  0.00  0.00    -0.253 OA
ATOM      4  N   UNL     1      -3.417   3.068  -1.849  0.00  0.00    -0.285 N 
ATOM      5  C   UNL     1      -2.714   3.872  -0.840  0.00  0.00    +0.109 C 
ATOM      6  C   UNL     1      -3.750   4.612   0.011  0.00  0.00    +0.019 C 
ATOM      7  C   UNL     1      -4.673   5.420  -0.904  0.00  0.00    +0.006 C 
ATOM      8  C   UNL     1      -5.413   4.472  -1.850  0.00  0.00    +0.007 C 
ATOM      9  C   UNL     1      -4.391   3.731  -2.726  0.00  0.00    +0.112 C 
ATOM     10  H   UNL     1      -1.882   1.652  -0.422  0.00  0.00    +0.150 HD
ENDROOT
BRANCH   1  11
ATOM     11  C   UNL     1      -2.171  -0.319  -1.157  0.00  0.00    +0.117 C 
BRANCH  11  12
ATOM     12  C   UNL     1      -1.299  -0.776   0.015  0.00  0.00    +0.011 C 
ATOM     13  C   UNL     1      -2.033  -0.509   1.331  0.00  0.00    +0.013 C 
ATOM     14  C   UNL     1      -3.353  -1.284   1.344  0.00  0.00    +0.001 C 
ATOM     15  C   UNL     1      -3.067  -2.781   1.214  0.00  0.00    +0.000 C 
ATOM     16  C   UNL     1      -2.333  -3.047  -0.102  0.00  0.00    +0.001 C 
ATOM     17  C   UNL     1      -1.013  -2.273  -0.116  0.00  0.00    +0.013 C 
BRANCH  12  23
ATOM     18  C   UNL     1       0.305   0.850   1.038  0.00  0.00    +0.007 A 
ATOM     19  C   UNL     1       1.497   1.550   1.026  0.00  0.00    +0.038 A 
ATOM     20  C   UNL     1       2.385   1.387  -0.023  0.00  0.00    +0.123 A 
ATOM     21  C   UNL     1       2.079   0.522  -1.060  0.00  0.00    +0.038 A 
ATOM     22  C   UNL     1       0.887  -0.177  -1.047  0.00  0.00    +0.007 A 
ATOM     23  C   UNL     1       0.000  -0.013   0.002  0.00  0.00    -0.040 A 
ATOM     24  F   UNL     1       3.550   2.071  -0.035  0.00  0.00    -0.205 F 
ENDBRANCH  12  23
ENDBRANCH  11  12
ENDBRANCH   1  11
BRANCH   8  25
ATOM     25  C   UNL     1      -6.361   5.277  -2.742  0.00  0.00    +0.014 C 
BRANCH  25  26
ATOM     26  C   UNL     1      -7.190   4.319  -3.600  0.00  0.00    +0.096 C 
BRANCH  26  27
ATOM     27  C   UNL     1      -8.123   5.112  -4.478  0.00  0.00    +0.210 C 
ATOM     28  O   UNL     1      -8.125   6.324  -4.423  0.00  0.00    -0.276 OA
ATOM     29  N   UNL     1      -8.956   4.475  -5.325  0.00  0.00    -0.329 N 
ATOM     30  H   UNL     1      -8.955   3.506  -5.369  0.00  0.00    +0.145 HD
ATOM     31  H   UNL     1      -9.557   4.986  -5.890  0.00  0.00    +0.145 HD
ENDBRANCH  26  27
ENDBRANCH  25  26
ENDBRANCH   8  25
TORSDOF 6
