REMARK  Name = ZINC36064259
REMARK  10 active torsions:
REMARK  status: ('A' for Active; 'I' for Inactive)
REMARK    1  A    between atoms: C_1  and  C_2
REMARK    2  A    between atoms: C_2  and  C_4
REMARK    3  A    between atoms: C_2  and  N_10
REMARK    4  A    between atoms: C_11  and  C_13
REMARK    5  A    between atoms: C_16  and  C_18
REMARK    6  A    between atoms: C_18  and  N_19
REMARK    7  A    between atoms: N_19  and  C_20
REMARK    8  A    between atoms: N_19  and  C_28
REMARK    9  A    between atoms: C_20  and  C_21
REMARK   10  A    between atoms: C_28  and  C_29
REMARK                            x       y       z     vdW  Elec       q    Type
REMARK                         _______ _______ _______ _____ _____    ______ ____
ROOT
ATOM      1  C   UNL     1       3.170  -2.317   5.637  0.00  0.00    +0.020 C 
ENDROOT
BRANCH   1   5
ATOM      2  C   UNL     1       6.751  -2.343   6.184  0.00  0.00    +0.163 A 
ATOM      3  C   UNL     1       6.316  -2.002   7.427  0.00  0.00    +0.230 A 
ATOM      4  O   UNL     1       4.976  -1.953   7.373  0.00  0.00    -0.449 OA
ATOM      5  C   UNL     1       4.595  -2.257   6.124  0.00  0.00    +0.179 A 
ATOM      6  N   UNL     1       5.648  -2.488   5.400  0.00  0.00    -0.210 NA
BRANCH   2   8
ATOM      7  N   UNL     1       8.444  -2.757   4.469  0.00  0.00    -0.303 N 
ATOM      8  C   UNL     1       8.153  -2.517   5.763  0.00  0.00    +0.266 C 
ATOM      9  O   UNL     1       9.048  -2.443   6.584  0.00  0.00    -0.268 OA
ATOM     10  H   UNL     1       7.729  -2.890   3.828  0.00  0.00    +0.150 HD
BRANCH   7  12
ATOM     11  C   UNL     1      10.341  -1.403   3.729  0.00  0.00    +0.033 C 
ATOM     12  C   UNL     1       9.841  -2.817   4.031  0.00  0.00    +0.100 C 
BRANCH  12  13
ATOM     13  C   UNL     1       9.941  -3.662   2.788  0.00  0.00    -0.027 A 
ATOM     14  C   UNL     1       8.976  -3.562   1.804  0.00  0.00    +0.005 A 
ATOM     15  C   UNL     1       9.068  -4.337   0.663  0.00  0.00    +0.000 A 
ATOM     16  C   UNL     1      10.126  -5.212   0.506  0.00  0.00    +0.000 A 
ATOM     17  C   UNL     1      11.093  -5.312   1.489  0.00  0.00    +0.000 A 
ATOM     18  C   UNL     1      11.003  -4.533   2.628  0.00  0.00    +0.005 A 
ENDBRANCH  12  13
ENDBRANCH   7  12
ENDBRANCH   2   8
ENDBRANCH   1   5
BRANCH   1  19
ATOM     19  N   UNL     1       2.617  -3.651   5.903  0.00  0.00    +0.391 N 
ATOM     20  H   UNL     1       3.221  -4.352   5.501  0.00  0.00    -0.080 HD
BRANCH  19  21
ATOM     21  C   UNL     1       2.521  -3.861   7.354  0.00  0.00    -0.042 C 
BRANCH  21  22
ATOM     22  C   UNL     1       2.070  -5.272   7.629  0.00  0.00    -0.064 A 
ATOM     23  C   UNL     1       0.721  -5.559   7.727  0.00  0.00    +0.004 A 
ATOM     24  C   UNL     1       0.306  -6.853   7.979  0.00  0.00    +0.038 A 
ATOM     25  C   UNL     1       1.242  -7.862   8.133  0.00  0.00    +0.123 A 
ATOM     26  C   UNL     1       2.593  -7.573   8.036  0.00  0.00    +0.038 A 
ATOM     27  C   UNL     1       3.005  -6.279   7.779  0.00  0.00    +0.004 A 
ATOM     28  F   UNL     1       0.838  -9.127   8.380  0.00  0.00    -0.205 F 
ENDBRANCH  21  22
ENDBRANCH  19  21
BRANCH  19  29
ATOM     29  C   UNL     1       1.279  -3.756   5.305  0.00  0.00    -0.040 C 
BRANCH  29  30
ATOM     30  C   UNL     1       1.392  -3.665   3.805  0.00  0.00    -0.046 A 
ATOM     31  C   UNL     1       1.070  -2.487   3.157  0.00  0.00    +0.003 A 
ATOM     32  C   UNL     1       1.173  -2.404   1.781  0.00  0.00    +0.000 A 
ATOM     33  C   UNL     1       1.599  -3.499   1.052  0.00  0.00    +0.001 A 
ATOM     34  C   UNL     1       1.921  -4.677   1.698  0.00  0.00    +0.020 A 
ATOM     35  C   UNL     1       1.823  -4.759   3.076  0.00  0.00    +0.042 A 
ATOM     36 CL   UNL     1       2.234  -6.237   3.889  0.00  0.00    -0.083 Cl
ENDBRANCH  29  30
ENDBRANCH  19  29
ENDBRANCH   1  19
TORSDOF 9
