REMARK  Name = ZINC07041702
REMARK  7 active torsions:
REMARK  status: ('A' for Active; 'I' for Inactive)
REMARK    1  A    between atoms: C_1  and  C_2
REMARK    2  A    between atoms: C_2  and  C_4
REMARK    3  A    between atoms: C_2  and  O_33
REMARK    4  A    between atoms: C_6  and  O_32
REMARK    5  A    between atoms: C_11  and  C_31
REMARK    6  A    between atoms: C_23  and  C_30
REMARK    7  A    between atoms: C_26  and  O_29
REMARK                            x       y       z     vdW  Elec       q    Type
REMARK                         _______ _______ _______ _____ _____    ______ ____
ROOT
ATOM      1  C   UNL     1      -2.124   3.231  -5.057  0.00  0.00    +0.059 C 
ATOM      2  C   UNL     1      -0.868   4.088  -5.356  0.00  0.00    +0.121 C 
ATOM      3  C   UNL     1       0.086   3.913  -4.141  0.00  0.00    +0.036 C 
ATOM      4  C   UNL     1      -0.448   2.641  -3.478  0.00  0.00    +0.008 C 
ATOM      5  C   UNL     1      -1.976   2.837  -3.578  0.00  0.00    +0.037 C 
ATOM      6  C   UNL     1      -2.645   1.556  -3.187  0.00  0.00    +0.140 C 
ATOM      7  O   UNL     1      -3.675   1.178  -3.713  0.00  0.00    -0.297 OA
ATOM      8  C   UNL     1      -1.966   0.743  -2.089  0.00  0.00    +0.079 C 
ATOM      9  C   UNL     1      -1.085   1.671  -1.257  0.00  0.00    +0.006 C 
ATOM     10  C   UNL     1       0.021   2.285  -2.109  0.00  0.00    -0.003 C 
ATOM     11  C   UNL     1       0.715   3.419  -1.365  0.00  0.00    +0.004 C 
ATOM     12  C   UNL     1       1.002   2.976   0.080  0.00  0.00    +0.004 C 
ATOM     13  C   UNL     1       0.959   1.457   0.132  0.00  0.00    -0.002 C 
ATOM     14  C   UNL     1      -0.470   0.946  -0.062  0.00  0.00    -0.026 C 
ATOM     15  C   UNL     1      -0.423  -0.566  -0.252  0.00  0.00    +0.010 C 
ATOM     16  C   UNL     1       0.209  -1.217   0.983  0.00  0.00    +0.032 C 
ATOM     17  C   UNL     1       1.603  -0.655   1.252  0.00  0.00    +0.115 C 
ATOM     18  C   UNL     1       1.561   0.871   1.400  0.00  0.00    +0.035 C 
ATOM     19  C   UNL     1      -1.325   1.277   1.163  0.00  0.00    +0.012 C 
ATOM     20  C   UNL     1      -2.476   4.001  -2.722  0.00  0.00    +0.020 C 
ENDROOT
BRANCH   1  22
ATOM     21  C   UNL     1      -4.615   3.218  -4.884  0.00  0.00    +0.038 C 
ATOM     22  C   UNL     1      -3.393   4.061  -5.252  0.00  0.00    +0.118 C 
BRANCH  22  23
ATOM     23  O   UNL     1      -3.489   4.470  -6.618  0.00  0.00    -0.392 OA
ATOM     24  H   UNL     1      -3.605   3.738  -7.240  0.00  0.00    +0.210 HD
ENDBRANCH  22  23
ENDBRANCH   1  22
BRANCH  17  25
ATOM     25  O   UNL     1       2.118  -1.229   2.456  0.00  0.00    -0.392 OA
ATOM     26  H   UNL     1       2.197  -2.193   2.430  0.00  0.00    +0.210 HD
ENDBRANCH  17  25
BRANCH   2  27
ATOM     27  O   UNL     1      -1.231   5.462  -5.502  0.00  0.00    -0.391 OA
ATOM     28  H   UNL     1      -0.483   6.051  -5.670  0.00  0.00    +0.210 HD
ENDBRANCH   2  27
TORSDOF 4
