REMARK  Name = ZINC48303886
REMARK  7 active torsions:
REMARK  status: ('A' for Active; 'I' for Inactive)
REMARK    1  A    between atoms: C_1  and  C_2
REMARK    2  A    between atoms: N_4  and  C_5
REMARK    3  A    between atoms: C_5  and  C_6
REMARK    4  A    between atoms: C_6  and  C_7
REMARK    5  A    between atoms: C_10  and  C_13
REMARK    6  A    between atoms: N_15  and  C_16
REMARK    7  A    between atoms: N_22  and  C_25
REMARK                            x       y       z     vdW  Elec       q    Type
REMARK                         _______ _______ _______ _____ _____    ______ ____
ROOT
ATOM      1  C   UNL     1      -2.494  -8.442  -0.019  0.00  0.00    +0.245 C 
ATOM      2  O   UNL     1      -2.491  -9.044  -1.075  0.00  0.00    -0.270 OA
ATOM      3  N   UNL     1      -2.479  -9.122   1.144  0.00  0.00    -0.304 N 
ATOM      4  H   UNL     1      -2.481  -8.642   1.987  0.00  0.00    +0.150 HD
ENDROOT
BRANCH   3   5
ATOM      5  C   UNL     1      -2.460 -10.587   1.136  0.00  0.00    +0.111 C 
ATOM      6  C   UNL     1      -1.834 -11.096   2.437  0.00  0.00    +0.075 C 
ATOM      7  C   UNL     1      -2.092 -12.603   2.541  0.00  0.00    +0.109 C 
ATOM      8  C   UNL     1      -1.549 -13.302   1.293  0.00  0.00    +0.029 C 
ATOM      9  C   UNL     1      -1.734 -14.814   1.441  0.00  0.00    -0.075 C 
ATOM     10  N   UNL     1      -1.009 -15.286   2.627  0.00  0.00    +0.378 N 
ATOM     11  C   UNL     1      -1.578 -14.675   3.834  0.00  0.00    -0.075 C 
ATOM     12  C   UNL     1      -1.387 -13.157   3.780  0.00  0.00    +0.029 C 
ATOM     13  C   UNL     1      -1.122 -16.747   2.719  0.00  0.00    -0.096 C 
ATOM     14  O   UNL     1      -3.497 -12.821   2.646  0.00  0.00    -0.485 OA
ATOM     15  C   UNL     1      -4.309 -12.185   1.761  0.00  0.00    +0.126 A 
ATOM     16  C   UNL     1      -3.870 -11.107   1.014  0.00  0.00    +0.015 A 
ATOM     17  C   UNL     1      -4.735 -10.484   0.131  0.00  0.00    +0.009 A 
ATOM     18  C   UNL     1      -6.032 -10.937  -0.010  0.00  0.00    +0.001 A 
ATOM     19  C   UNL     1      -6.473 -12.016   0.733  0.00  0.00    +0.004 A 
ATOM     20  C   UNL     1      -5.615 -12.639   1.614  0.00  0.00    +0.046 A 
ATOM     21  H   UNL     1      -0.036 -15.030   2.549  0.00  0.00    -0.082 HD
ENDBRANCH   3   5
BRANCH   1  25
ATOM     22  C   UNL     1      -2.551  -4.195   0.004  0.00  0.00    -0.046 A 
ATOM     23  C   UNL     1      -2.547  -4.877  -1.200  0.00  0.00    +0.004 A 
ATOM     24  C   UNL     1      -2.529  -6.256  -1.214  0.00  0.00    +0.013 A 
ATOM     25  C   UNL     1      -2.513  -6.964  -0.011  0.00  0.00    +0.037 A 
ATOM     26  C   UNL     1      -2.517  -6.270   1.200  0.00  0.00    +0.013 A 
ATOM     27  C   UNL     1      -2.530  -4.890   1.200  0.00  0.00    +0.004 A 
BRANCH  22  28
ATOM     28  C   UNL     1      -2.571  -2.688   0.012  0.00  0.00    +0.054 C 
BRANCH  28  29
ATOM     29  C   UNL     1      -1.136  -2.159   0.001  0.00  0.00    +0.109 C 
BRANCH  29  33
ATOM     30  C   UNL     1      -0.018   1.503   0.010  0.00  0.00    +0.109 C 
ATOM     31  C   UNL     1       0.002  -0.004   0.002  0.00  0.00    +0.210 C 
ATOM     32  O   UNL     1       1.060  -0.596  -0.011  0.00  0.00    -0.276 OA
ATOM     33  N   UNL     1      -1.156  -0.694   0.009  0.00  0.00    -0.315 N 
ATOM     34  H   UNL     1      -2.002  -0.220   0.020  0.00  0.00    +0.149 HD
ENDBRANCH  29  33
ENDBRANCH  28  29
ENDBRANCH  22  28
ENDBRANCH   1  25
TORSDOF 5
