REMARK  Name = ZINC34754890
REMARK  11 active torsions:
REMARK  status: ('A' for Active; 'I' for Inactive)
REMARK    1  A    between atoms: C_1  and  O_2
REMARK    2  A    between atoms: O_2  and  C_3
REMARK    3  A    between atoms: C_3  and  C_4
REMARK    4  A    between atoms: N_6  and  C_7
REMARK    5  A    between atoms: N_6  and  C_30
REMARK    6  A    between atoms: C_7  and  C_8
REMARK    7  A    between atoms: N_11  and  C_23
REMARK    8  A    between atoms: C_13  and  C_15
REMARK    9  A    between atoms: C_19  and  O_21
REMARK   10  A    between atoms: O_21  and  C_22
REMARK   11  A    between atoms: C_23  and  C_24
REMARK                            x       y       z     vdW  Elec       q    Type
REMARK                         _______ _______ _______ _____ _____    ______ ____
ROOT
ATOM      1  C   UNL     1      -2.147  -4.751   1.476  0.00  0.00    -0.005 C 
ATOM      2  C   UNL     1      -3.539  -4.490   2.091  0.00  0.00    -0.073 C 
ATOM      3  N   UNL     1      -4.250  -5.790   1.973  0.00  0.00    +0.384 N 
ATOM      4  C   UNL     1      -3.210  -6.803   2.287  0.00  0.00    -0.070 C 
ATOM      5  C   UNL     1      -1.928  -6.272   1.605  0.00  0.00    +0.005 C 
ATOM      6  H   UNL     1      -4.597  -5.919   1.035  0.00  0.00    -0.081 HD
ENDROOT
BRANCH   5   7
ATOM      7  C   UNL     1      -0.721  -6.556   2.461  0.00  0.00    -0.042 A 
ATOM      8  C   UNL     1      -0.686  -6.118   3.773  0.00  0.00    +0.004 A 
ATOM      9  C   UNL     1       0.419  -6.377   4.561  0.00  0.00    +0.004 A 
ATOM     10  C   UNL     1       1.493  -7.074   4.040  0.00  0.00    +0.045 A 
ATOM     11  C   UNL     1       1.460  -7.514   2.725  0.00  0.00    +0.120 A 
ATOM     12  C   UNL     1       0.347  -7.258   1.938  0.00  0.00    +0.049 A 
BRANCH  11  13
ATOM     13  O   UNL     1       2.515  -8.200   2.211  0.00  0.00    -0.495 OA
ATOM     14  C   UNL     1       3.625  -8.432   3.080  0.00  0.00    +0.277 C 
ENDBRANCH  11  13
ENDBRANCH   5   7
BRANCH   1  15
ATOM     15  C   UNL     1      -2.131  -4.334   0.004  0.00  0.00    +0.110 C 
BRANCH  15  18
ATOM     16  C   UNL     1      -1.150  -2.106  -0.096  0.00  0.00    +0.242 C 
ATOM     17  O   UNL     1      -1.255  -0.898  -0.086  0.00  0.00    -0.273 OA
ATOM     18  N   UNL     1      -2.255  -2.878  -0.094  0.00  0.00    -0.296 N 
BRANCH  18  19
ATOM     19  C   UNL     1      -3.580  -2.260  -0.188  0.00  0.00    +0.076 C 
ATOM     20  C   UNL     1      -3.685  -1.476  -1.497  0.00  0.00    +0.022 C 
ATOM     21  C   UNL     1      -5.069  -0.831  -1.596  0.00  0.00    +0.002 C 
ATOM     22  C   UNL     1      -5.275   0.119  -0.414  0.00  0.00    +0.000 C 
ATOM     23  C   UNL     1      -5.170  -0.666   0.895  0.00  0.00    +0.002 C 
ATOM     24  C   UNL     1      -3.786  -1.311   0.994  0.00  0.00    +0.022 C 
ENDBRANCH  18  19
BRANCH  16  25
ATOM     25  C   UNL     1       0.215  -2.744  -0.112  0.00  0.00    +0.255 C 
BRANCH  25  27
ATOM     26  C   UNL     1       2.555  -2.229  -0.043  0.00  0.00    +0.194 C 
ATOM     27  O   UNL     1       1.217  -1.728  -0.035  0.00  0.00    -0.374 OA
ENDBRANCH  25  27
ENDBRANCH  16  25
ENDBRANCH  15  18
ENDBRANCH   1  15
BRANCH   3  28
ATOM     28  C   UNL     1      -5.349  -5.864   2.945  0.00  0.00    -0.025 C 
BRANCH  28  29
ATOM     29  C   UNL     1      -6.129  -7.135   2.725  0.00  0.00    -0.001 A 
ATOM     30  C   UNL     1      -7.245  -7.258   1.978  0.00  0.00    +0.020 A 
ATOM     31  C   UNL     1      -7.647  -8.607   2.041  0.00  0.00    +0.019 A 
ATOM     32  C   UNL     1      -6.762  -9.256   2.824  0.00  0.00    +0.082 A 
ATOM     33  N   UNL     1      -5.824  -8.359   3.242  0.00  0.00    -0.366 N 
ATOM     34  H   UNL     1      -5.067  -8.558   3.814  0.00  0.00    +0.165 HD
ENDBRANCH  28  29
ENDBRANCH   3  28
TORSDOF 9
