REMARK  Name = ZINC36370911
REMARK  4 active torsions:
REMARK  status: ('A' for Active; 'I' for Inactive)
REMARK    1  A    between atoms: C_1  and  C_2
REMARK    2  A    between atoms: C_17  and  C_35
REMARK    3  A    between atoms: C_22  and  C_23
REMARK    4  A    between atoms: N_30  and  N_31
REMARK                            x       y       z     vdW  Elec       q    Type
REMARK                         _______ _______ _______ _____ _____    ______ ____
ROOT
ATOM      1  C   UNL     1       2.028   1.419   1.161  0.00  0.00    +0.012 C 
ATOM      2  C   UNL     1       1.842  -0.092   1.050  0.00  0.00    -0.026 C 
ATOM      3  C   UNL     1       0.530  -0.473   1.760  0.00  0.00    +0.007 C 
ATOM      4  C   UNL     1       0.577  -0.069   3.231  0.00  0.00    +0.001 C 
ATOM      5  C   UNL     1       1.756  -0.735   3.938  0.00  0.00    +0.000 C 
ATOM      6  C   UNL     1       3.063  -0.371   3.227  0.00  0.00    +0.004 C 
ATOM      7  C   UNL     1       2.977  -0.820   1.772  0.00  0.00    -0.005 C 
ATOM      8  C   UNL     1       4.298  -0.578   1.048  0.00  0.00    +0.004 C 
ATOM      9  C   UNL     1       4.199  -1.230  -0.331  0.00  0.00    +0.004 C 
ATOM     10  C   UNL     1       3.075  -0.607  -1.152  0.00  0.00    -0.003 C 
ATOM     11  C   UNL     1       1.753  -0.540  -0.402  0.00  0.00    -0.001 C 
ATOM     12  C   UNL     1       0.665   0.215  -1.155  0.00  0.00    +0.005 C 
ATOM     13  C   UNL     1       1.113   1.501  -1.851  0.00  0.00    +0.013 C 
ATOM     14  C   UNL     1       2.356   1.232  -2.666  0.00  0.00    +0.015 C 
ATOM     15  C   UNL     1       3.459   0.739  -1.696  0.00  0.00    +0.009 C 
ATOM     16  C   UNL     1       4.671   0.802  -2.640  0.00  0.00    +0.041 C 
ATOM     17  C   UNL     1       4.428   2.132  -3.357  0.00  0.00    -0.023 C 
ATOM     18  C   UNL     1       5.374   2.906  -3.925  0.00  0.00    +0.013 C 
ATOM     19  C   UNL     1       3.021   2.412  -3.322  0.00  0.00    +0.069 C 
ATOM     20  N   UNL     1       2.425   3.478  -3.768  0.00  0.00    -0.183 NA
ATOM     21  C   UNL     1       2.049   0.206  -3.756  0.00  0.00    +0.018 C 
ENDROOT
BRANCH  20  22
ATOM     22  N   UNL     1       3.180   4.597  -4.143  0.00  0.00    -0.191 N 
ATOM     23  C   UNL     1       2.582   5.640  -4.751  0.00  0.00    +0.317 C 
ATOM     24  O   UNL     1       3.237   6.612  -5.076  0.00  0.00    -0.251 OA
ATOM     25  N   UNL     1       1.258   5.606  -5.000  0.00  0.00    -0.312 N 
ATOM     26  H   UNL     1       4.133   4.621  -3.963  0.00  0.00    +0.179 HD
ATOM     27  H   UNL     1       0.735   4.831  -4.741  0.00  0.00    +0.147 HD
ATOM     28  H   UNL     1       0.827   6.357  -5.438  0.00  0.00    +0.147 HD
ENDBRANCH  20  22
BRANCH  18  29
ATOM     29  C   UNL     1       6.783   2.760  -3.523  0.00  0.00    -0.025 A 
ATOM     30  C   UNL     1       7.292   1.500  -3.195  0.00  0.00    +0.008 A 
ATOM     31  C   UNL     1       8.613   1.370  -2.820  0.00  0.00    +0.001 A 
ATOM     32  C   UNL     1       9.434   2.483  -2.768  0.00  0.00    +0.000 A 
ATOM     33  C   UNL     1       8.937   3.734  -3.092  0.00  0.00    +0.001 A 
ATOM     34  C   UNL     1       7.620   3.879  -3.475  0.00  0.00    +0.008 A 
ENDBRANCH  18  29
TORSDOF 2
