REMARK  Name = ZINC36657327
REMARK  5 active torsions:
REMARK  status: ('A' for Active; 'I' for Inactive)
REMARK    1  A    between atoms: C_5  and  N_7
REMARK    2  A    between atoms: N_10  and  C_13
REMARK    3  A    between atoms: C_13  and  N_14
REMARK    4  A    between atoms: N_17  and  S_20
REMARK    5  A    between atoms: S_20  and  C_23
REMARK                            x       y       z     vdW  Elec       q    Type
REMARK                         _______ _______ _______ _____ _____    ______ ____
ROOT
ATOM      1  N   UNL     1       6.518   0.813  -1.441  0.00  0.00    -0.284 NA
ATOM      2  C   UNL     1       6.504  -0.537  -2.018  0.00  0.00    +0.103 C 
ATOM      3  C   UNL     1       6.832  -0.454  -3.513  0.00  0.00    +0.125 C 
ATOM      4  N   UNL     1       8.097   0.278  -3.673  0.00  0.00    -0.174 NA
ATOM      5  C   UNL     1       8.237   1.581  -3.007  0.00  0.00    +0.125 C 
ATOM      6  C   UNL     1       7.854   1.418  -1.532  0.00  0.00    +0.103 C 
ENDROOT
BRANCH   4   7
ATOM      7  S   UNL     1       9.332  -0.350  -4.581  0.00  0.00    +0.062 S 
ATOM      8  O   UNL     1      10.530   0.250  -4.106  0.00  0.00    -0.153 OA
ATOM      9  O   UNL     1       9.143  -1.758  -4.606  0.00  0.00    -0.153 OA
BRANCH   7  10
ATOM     10  C   UNL     1       9.105   0.218  -6.233  0.00  0.00    +0.125 A 
ATOM     11  C   UNL     1      10.038   1.060  -6.809  0.00  0.00    +0.030 A 
ATOM     12  C   UNL     1       9.861   1.506  -8.105  0.00  0.00    +0.003 A 
ATOM     13  C   UNL     1       8.750   1.111  -8.827  0.00  0.00    +0.021 A 
ATOM     14  C   UNL     1       7.815   0.269  -8.252  0.00  0.00    +0.061 A 
ATOM     15  C   UNL     1       7.996  -0.183  -6.956  0.00  0.00    +0.086 A 
ATOM     16 CL   UNL     1       6.828  -1.246  -6.236  0.00  0.00    -0.080 Cl
ATOM     17 CL   UNL     1       6.420  -0.227  -9.158  0.00  0.00    -0.082 Cl
ENDBRANCH   7  10
ENDBRANCH   4   7
BRANCH   1  18
ATOM     18  C   UNL     1       6.042   0.797  -0.051  0.00  0.00    +0.204 C 
BRANCH  18  27
ATOM     19  C   UNL     1      -0.017   1.373   0.010  0.00  0.00    +0.003 A 
ATOM     20  C   UNL     1       1.169   2.097   0.002  0.00  0.00    +0.014 A 
ATOM     21  C   UNL     1       2.383   1.433  -0.013  0.00  0.00    +0.051 A 
ATOM     22  C   UNL     1       2.412   0.022  -0.021  0.00  0.00    +0.070 A 
ATOM     23  C   UNL     1       1.217  -0.694  -0.013  0.00  0.00    +0.038 A 
ATOM     24  C   UNL     1       0.002  -0.004   0.002  0.00  0.00    +0.023 A 
ATOM     25  C   UNL     1       3.836  -0.353  -0.036  0.00  0.00    +0.257 C 
ATOM     26  O   UNL     1       4.270  -1.488  -0.047  0.00  0.00    -0.269 OA
ATOM     27  N   UNL     1       4.577   0.770  -0.037  0.00  0.00    -0.220 N 
ATOM     28  C   UNL     1       3.796   1.865  -0.024  0.00  0.00    +0.255 C 
ATOM     29  O   UNL     1       4.186   3.016  -0.021  0.00  0.00    -0.269 OA
BRANCH  23  30
ATOM     30  N   UNL     1       1.233  -2.081  -0.021  0.00  0.00    -0.357 N 
ATOM     31  H   UNL     1       2.078  -2.556  -0.032  0.00  0.00    +0.142 HD
ATOM     32  H   UNL     1       0.398  -2.575  -0.015  0.00  0.00    +0.142 HD
ENDBRANCH  23  30
ENDBRANCH  18  27
ENDBRANCH   1  18
TORSDOF 5
