REMARK  Name = ZINC54474800
REMARK  4 active torsions:
REMARK  status: ('A' for Active; 'I' for Inactive)
REMARK    1  A    between atoms: C_1  and  S_2
REMARK    2  A    between atoms: S_2  and  N_5
REMARK    3  A    between atoms: C_12  and  C_15
REMARK    4  A    between atoms: C_13  and  N_14
REMARK                            x       y       z     vdW  Elec       q    Type
REMARK                         _______ _______ _______ _____ _____    ______ ____
ROOT
ATOM      1  N   UNL     1       0.819  -1.619  -2.528  0.00  0.00    -0.177 NA
ATOM      2  C   UNL     1       0.509  -1.660  -3.967  0.00  0.00    +0.114 C 
ATOM      3  C   UNL     1       0.822  -0.284  -4.553  0.00  0.00    +0.054 C 
ATOM      4  C   UNL     1       2.176   0.197  -4.099  0.00  0.00    -0.020 A 
ATOM      5  C   UNL     1       2.813  -0.303  -2.989  0.00  0.00    -0.027 A 
ATOM      6  C   UNL     1       4.058   0.196  -2.612  0.00  0.00    +0.006 A 
ATOM      7  C   UNL     1       4.675   1.183  -3.341  0.00  0.00    +0.017 A 
ATOM      8  C   UNL     1       4.046   1.697  -4.480  0.00  0.00    +0.084 A 
ATOM      9  C   UNL     1       2.790   1.199  -4.855  0.00  0.00    +0.042 A 
ATOM     10  C   UNL     1       2.218  -1.400  -2.147  0.00  0.00    +0.144 C 
ENDROOT
BRANCH   1  12
ATOM     11  C   UNL     1      -0.971  -0.128  -1.062  0.00  0.00    +0.215 C 
ATOM     12  S   UNL     1      -0.365  -1.807  -1.386  0.00  0.00    +0.029 S 
ATOM     13  O   UNL     1       0.310  -2.313  -0.243  0.00  0.00    -0.158 OA
ATOM     14  O   UNL     1      -1.372  -2.575  -2.031  0.00  0.00    -0.158 OA
ENDBRANCH   1  12
BRANCH   9  15
ATOM     15  N   UNL     1       2.154   1.702  -5.981  0.00  0.00    -0.357 N 
ATOM     16  H   UNL     1       1.186   1.716  -6.026  0.00  0.00    +0.142 HD
ATOM     17  H   UNL     1       2.679   2.040  -6.723  0.00  0.00    +0.142 HD
ENDBRANCH   9  15
BRANCH   8  18
ATOM     18  C   UNL     1       4.694   2.750  -5.276  0.00  0.00    +0.388 C 
ATOM     19  O   UNL     1       5.759   3.228  -4.906  0.00  0.00    -0.241 OA
ATOM     20  O   UNL     1       4.170   3.148  -6.307  0.00  0.00    -0.241 OA
ENDBRANCH   8  18
TORSDOF 3
