REMARK  Name = ZINC37317922
REMARK  6 active torsions:
REMARK  status: ('A' for Active; 'I' for Inactive)
REMARK    1  A    between atoms: C_1  and  C_2
REMARK    2  A    between atoms: C_2  and  C_4
REMARK    3  A    between atoms: C_2  and  N_11
REMARK    4  A    between atoms: N_11  and  C_12
REMARK    5  A    between atoms: C_14  and  S_19
REMARK    6  A    between atoms: S_19  and  N_22
REMARK                            x       y       z     vdW  Elec       q    Type
REMARK                         _______ _______ _______ _____ _____    ______ ____
ROOT
ATOM      1  C   UNL     1       0.027  -0.639   2.398  0.00  0.00    +0.048 A 
ATOM      2  C   UNL     1      -1.326  -0.333   2.476  0.00  0.00    +0.053 A 
ATOM      3  C   UNL     1      -1.999  -0.482   3.673  0.00  0.00    +0.107 A 
ATOM      4  C   UNL     1      -1.328  -0.935   4.794  0.00  0.00    +0.030 A 
ATOM      5  C   UNL     1       0.019  -1.240   4.721  0.00  0.00    +0.024 A 
ATOM      6  C   UNL     1       0.698  -1.099   3.526  0.00  0.00    +0.062 A 
ATOM      7 CL   UNL     1       2.387  -1.489   3.433  0.00  0.00    -0.082 Cl
ENDROOT
BRANCH   3   8
ATOM      8  S   UNL     1      -3.715  -0.095   3.771  0.00  0.00    +0.056 S 
ATOM      9  O   UNL     1      -3.987   0.201   5.134  0.00  0.00    -0.153 OA
ATOM     10  O   UNL     1      -3.984   0.827   2.724  0.00  0.00    -0.153 OA
BRANCH   8  11
ATOM     11  N   UNL     1      -4.551  -1.478   3.411  0.00  0.00    -0.204 NA
ATOM     12  H   UNL     1      -4.070  -2.294   3.200  0.00  0.00    +0.144 HD
ATOM     13  H   UNL     1      -5.521  -1.472   3.411  0.00  0.00    +0.144 HD
ENDBRANCH   8  11
ENDBRANCH   3   8
BRANCH   1  14
ATOM     14  N   UNL     1       0.711  -0.489   1.189  0.00  0.00    -0.336 N 
ATOM     15  H   UNL     1       1.654  -0.707   1.135  0.00  0.00    +0.147 HD
BRANCH  14  17
ATOM     16  C   UNL     1      -0.019   1.526   0.010  0.00  0.00    +0.033 C 
ATOM     17  C   UNL     1       0.002  -0.004   0.002  0.00  0.00    +0.098 C 
BRANCH  17  18
ATOM     18  C   UNL     1       0.707  -0.490  -1.238  0.00  0.00    -0.028 A 
ATOM     19  C   UNL     1       2.089  -0.511  -1.284  0.00  0.00    +0.006 A 
ATOM     20  C   UNL     1       2.736  -0.956  -2.421  0.00  0.00    +0.015 A 
ATOM     21  C   UNL     1       2.002  -1.382  -3.513  0.00  0.00    +0.013 A 
ATOM     22  C   UNL     1       0.620  -1.361  -3.466  0.00  0.00    +0.015 A 
ATOM     23  C   UNL     1      -0.027  -0.920  -2.327  0.00  0.00    +0.006 A 
ATOM     24  I   UNL     1       2.982  -2.057  -5.237  0.00  0.00    -0.044 I 
ENDBRANCH  17  18
ENDBRANCH  14  17
ENDBRANCH   1  14
TORSDOF 5
