REMARK  Name = ZINC39380674
REMARK  4 active torsions:
REMARK  status: ('A' for Active; 'I' for Inactive)
REMARK    1  A    between atoms: C_1  and  C_2
REMARK    2  A    between atoms: C_4  and  C_22
REMARK    3  A    between atoms: C_6  and  O_21
REMARK    4  A    between atoms: C_7  and  O_20
REMARK                            x       y       z     vdW  Elec       q    Type
REMARK                         _______ _______ _______ _____ _____    ______ ____
ROOT
ATOM      1  C   UNL     1      -0.019   1.526   0.010  0.00  0.00    +0.017 C 
ATOM      2  C   UNL     1       0.002  -0.004   0.002  0.00  0.00    +0.071 C 
ATOM      3  C   UNL     1       0.816  -0.538  -1.179  0.00  0.00    +0.020 C 
ATOM      4  N   UNL     1       1.473  -1.598  -0.827  0.00  0.00    -0.251 NA
ATOM      5  C   UNL     1       1.179  -1.925   0.543  0.00  0.00    +0.218 C 
ATOM      6  C   UNL     1       0.812  -0.554   1.186  0.00  0.00    +0.152 C 
ATOM      7  C   UNL     1       0.071  -0.858   2.441  0.00  0.00    -0.003 A 
ATOM      8  C   UNL     1      -1.066  -0.194   2.829  0.00  0.00    +0.007 A 
ATOM      9  C   UNL     1      -1.700  -0.536   4.011  0.00  0.00    +0.000 A 
ATOM     10  C   UNL     1      -1.192  -1.548   4.807  0.00  0.00    +0.001 A 
ATOM     11  C   UNL     1      -0.049  -2.224   4.429  0.00  0.00    +0.009 A 
ATOM     12  C   UNL     1       0.594  -1.887   3.246  0.00  0.00    -0.011 A 
ATOM     13  C   UNL     1       1.829  -2.588   2.809  0.00  0.00    -0.010 A 
ATOM     14  C   UNL     1       2.135  -2.618   1.430  0.00  0.00    +0.017 A 
ATOM     15  C   UNL     1       3.265  -3.264   0.995  0.00  0.00    +0.009 A 
ATOM     16  C   UNL     1       4.106  -3.882   1.905  0.00  0.00    +0.000 A 
ATOM     17  C   UNL     1       3.816  -3.853   3.257  0.00  0.00    +0.001 A 
ATOM     18  C   UNL     1       2.678  -3.208   3.713  0.00  0.00    +0.009 A 
ATOM     19  C   UNL     1       0.847   0.078  -2.554  0.00  0.00    +0.061 C 
ENDROOT
BRANCH   6  20
ATOM     20  O   UNL     1       1.974   0.240   1.434  0.00  0.00    -0.378 OA
ATOM     21  H   UNL     1       1.781   1.158   1.668  0.00  0.00    +0.211 HD
ENDBRANCH   6  20
BRANCH   5  22
ATOM     22  O   UNL     1      -0.028  -2.689   0.544  0.00  0.00    -0.362 OA
ATOM     23  H   UNL     1       0.033  -3.522   0.056  0.00  0.00    +0.213 HD
ENDBRANCH   5  22
TORSDOF 2
