REMARK  Name = ZINC64361625
REMARK  16 active torsions:
REMARK  status: ('A' for Active; 'I' for Inactive)
REMARK    1  A    between atoms: C_1  and  C_2
REMARK    2  A    between atoms: C_4  and  C_15
REMARK    3  A    between atoms: C_6  and  S_9
REMARK    4  A    between atoms: C_7  and  C_8
REMARK    5  A    between atoms: S_9  and  N_12
REMARK    6  A    between atoms: N_12  and  C_13
REMARK    7  A    between atoms: N_12  and  C_14
REMARK    8  A    between atoms: N_17  and  C_18
REMARK    9  A    between atoms: N_17  and  C_24
REMARK   10  A    between atoms: C_18  and  C_19
REMARK   11  A    between atoms: C_19  and  C_20
REMARK   12  A    between atoms: C_20  and  N_21
REMARK   13  A    between atoms: N_21  and  C_22
REMARK   14  A    between atoms: N_21  and  C_23
REMARK   15  A    between atoms: C_24  and  C_25
REMARK   16  A    between atoms: C_25  and  C_26
REMARK                            x       y       z     vdW  Elec       q    Type
REMARK                         _______ _______ _______ _____ _____    ______ ____
ROOT
ATOM      1  C   UNL     1       0.449   0.832   0.455  0.00  0.00    +0.044 C 
ATOM      2  C   UNL     1      -0.185  -0.507   0.177  0.00  0.00    -0.045 A 
ATOM      3  C   UNL     1      -0.085  -1.068  -1.079  0.00  0.00    +0.016 A 
ATOM      4  C   UNL     1      -0.672  -2.308  -1.335  0.00  0.00    +0.039 A 
ATOM      5  C   UNL     1      -1.357  -2.972  -0.316  0.00  0.00    +0.042 A 
ATOM      6  C   UNL     1      -1.449  -2.400   0.936  0.00  0.00    +0.109 A 
ATOM      7  C   UNL     1      -0.860  -1.173   1.184  0.00  0.00    -0.021 A 
ATOM      8  C   UNL     1      -0.960  -0.556   2.555  0.00  0.00    +0.046 C 
ENDROOT
BRANCH   6   9
ATOM      9  S   UNL     1      -2.313  -3.237   2.224  0.00  0.00    +0.061 S 
ATOM     10  O   UNL     1      -2.817  -4.440   1.660  0.00  0.00    -0.153 OA
ATOM     11  O   UNL     1      -1.460  -3.226   3.360  0.00  0.00    -0.153 OA
BRANCH   9  12
ATOM     12  N   UNL     1      -3.630  -2.310   2.612  0.00  0.00    -0.183 NA
ATOM     13  C   UNL     1      -4.850  -2.396   1.807  0.00  0.00    +0.131 C 
ATOM     14  C   UNL     1      -3.573  -1.403   3.762  0.00  0.00    +0.131 C 
ENDBRANCH   9  12
ENDBRANCH   6   9
BRANCH   4  15
ATOM     15  C   UNL     1      -0.570  -2.915  -2.679  0.00  0.00    +0.247 C 
ATOM     16  O   UNL     1      -0.290  -4.093  -2.794  0.00  0.00    -0.270 OA
ATOM     17  N   UNL     1      -0.788  -2.164  -3.776  0.00  0.00    -0.297 N 
BRANCH  17  18
ATOM     18  C   UNL     1      -0.824  -2.792  -5.099  0.00  0.00    +0.106 C 
BRANCH  18  19
ATOM     19  C   UNL     1      -2.257  -3.220  -5.421  0.00  0.00    +0.000 C 
BRANCH  19  20
ATOM     20  C   UNL     1      -2.296  -3.876  -6.803  0.00  0.00    -0.078 C 
BRANCH  20  21
ATOM     21  N   UNL     1      -3.672  -4.287  -7.112  0.00  0.00    +0.376 N 
ATOM     22  C   UNL     1      -4.524  -3.096  -7.224  0.00  0.00    -0.097 C 
ATOM     23  C   UNL     1      -3.689  -5.023  -8.383  0.00  0.00    -0.097 C 
ATOM     24  H   UNL     1      -4.019  -4.881  -6.374  0.00  0.00    -0.083 HD
ENDBRANCH  20  21
ENDBRANCH  19  20
ENDBRANCH  18  19
ENDBRANCH  17  18
BRANCH  17  25
ATOM     25  C   UNL     1      -0.988  -0.718  -3.646  0.00  0.00    +0.123 C 
BRANCH  25  26
ATOM     26  C   UNL     1       0.325   0.007  -3.949  0.00  0.00    +0.137 C 
BRANCH  26  27
ATOM     27  C   UNL     1       0.164   1.446  -3.680  0.00  0.00    +0.064 C 
ATOM     28  N   UNL     1       0.040   2.555  -3.473  0.00  0.00    -0.197 NA
ENDBRANCH  26  27
ENDBRANCH  25  26
ENDBRANCH  17  25
ENDBRANCH   4  15
TORSDOF 10
