REMARK  Name = ZINC35965039
REMARK  9 active torsions:
REMARK  status: ('A' for Active; 'I' for Inactive)
REMARK    1  A    between atoms: C_1  and  C_2
REMARK    2  A    between atoms: C_2  and  C_3
REMARK    3  A    between atoms: C_2  and  C_4
REMARK    4  A    between atoms: C_4  and  C_5
REMARK    5  A    between atoms: C_5  and  C_7
REMARK    6  A    between atoms: C_5  and  N_17
REMARK    7  A    between atoms: N_9  and  C_10
REMARK    8  A    between atoms: C_23  and  C_30
REMARK    9  A    between atoms: N_28  and  C_29
REMARK                            x       y       z     vdW  Elec       q    Type
REMARK                         _______ _______ _______ _____ _____    ______ ____
ROOT
ATOM      1  N   UNL     1      -1.423  -1.084  -2.205  0.00  0.00    -0.281 N 
ATOM      2  C   UNL     1      -0.739  -0.592  -3.410  0.00  0.00    +0.160 C 
ATOM      3  C   UNL     1      -0.212  -1.835  -4.092  0.00  0.00    +0.042 C 
ATOM      4  C   UNL     1      -0.582  -2.877  -3.321  0.00  0.00    +0.058 C 
ATOM      5  C   UNL     1      -1.299  -2.424  -2.195  0.00  0.00    +0.247 C 
ATOM      6  O   UNL     1      -1.750  -3.150  -1.328  0.00  0.00    -0.270 OA
ATOM      7  C   UNL     1      -0.180  -4.266  -3.774  0.00  0.00    +0.142 C 
ATOM      8  N   UNL     1       0.587  -4.363  -5.028  0.00  0.00    -0.288 N 
ATOM      9  C   UNL     1       0.882  -3.227  -5.689  0.00  0.00    +0.307 C 
ATOM     10  O   UNL     1       1.514  -3.296  -6.725  0.00  0.00    -0.252 OA
ATOM     11  N   UNL     1       0.500  -2.023  -5.242  0.00  0.00    -0.260 N 
ATOM     12  C   UNL     1       0.867  -0.844  -6.030  0.00  0.00    +0.139 C 
ATOM     13  H   UNL     1       0.873  -5.225  -5.369  0.00  0.00    +0.151 HD
ENDROOT
BRANCH   7  14
ATOM     14  C   UNL     1       0.642  -4.893  -2.678  0.00  0.00    -0.023 A 
ATOM     15  C   UNL     1       1.978  -4.562  -2.540  0.00  0.00    +0.006 A 
ATOM     16  C   UNL     1       2.732  -5.137  -1.535  0.00  0.00    +0.000 A 
ATOM     17  C   UNL     1       2.151  -6.041  -0.666  0.00  0.00    +0.000 A 
ATOM     18  C   UNL     1       0.816  -6.371  -0.802  0.00  0.00    +0.000 A 
ATOM     19  C   UNL     1       0.060  -5.793  -1.806  0.00  0.00    +0.006 A 
ENDBRANCH   7  14
BRANCH   1  20
ATOM     20  C   UNL     1      -2.106  -0.267  -1.199  0.00  0.00    +0.163 C 
BRANCH  20  21
ATOM     21  C   UNL     1      -3.554  -0.675  -1.119  0.00  0.00    +0.238 C 
ATOM     22  O   UNL     1      -3.975  -1.561  -1.833  0.00  0.00    -0.273 OA
ATOM     23  N   UNL     1      -4.383  -0.056  -0.256  0.00  0.00    -0.284 N 
ATOM     24  H   UNL     1      -4.032   0.599   0.368  0.00  0.00    +0.155 HD
BRANCH  23  25
ATOM     25  C   UNL     1      -5.750  -0.357  -0.259  0.00  0.00    +0.034 A 
ATOM     26  C   UNL     1      -6.473  -0.321   0.927  0.00  0.00    +0.026 A 
ATOM     27  C   UNL     1      -7.822  -0.618   0.922  0.00  0.00    +0.040 A 
ATOM     28  C   UNL     1      -8.453  -0.953  -0.264  0.00  0.00    +0.124 A 
ATOM     29  C   UNL     1      -7.735  -0.989  -1.447  0.00  0.00    +0.040 A 
ATOM     30  C   UNL     1      -6.387  -0.687  -1.448  0.00  0.00    +0.026 A 
ATOM     31  F   UNL     1      -9.772  -1.244  -0.267  0.00  0.00    -0.205 F 
ENDBRANCH  23  25
ENDBRANCH  20  21
BRANCH  20  32
ATOM     32  C   UNL     1      -1.442  -0.475   0.164  0.00  0.00    +0.035 C 
BRANCH  32  34
ATOM     33  C   UNL     1      -0.030   1.569  -0.094  0.00  0.00    +0.007 C 
ATOM     34  C   UNL     1      -0.007   0.054   0.118  0.00  0.00    -0.015 C 
ATOM     35  C   UNL     1       0.696  -0.266   1.439  0.00  0.00    +0.007 C 
ENDBRANCH  32  34
ENDBRANCH  20  32
ENDBRANCH   1  20
TORSDOF 6
