REMARK  Name = ZINC62812002
REMARK  2 active torsions:
REMARK  status: ('A' for Active; 'I' for Inactive)
REMARK    1  A    between atoms: C_2  and  N_19
REMARK    2  A    between atoms: C_3  and  C_7
REMARK                            x       y       z     vdW  Elec       q    Type
REMARK                         _______ _______ _______ _____ _____    ______ ____
ROOT
ATOM      1  C   UNL     1       3.528   0.502  -0.029  0.00  0.00    +0.272 C 
ATOM      2  O   UNL     1       4.194   1.520  -0.031  0.00  0.00    -0.268 OA
ATOM      3  N   UNL     1       4.135  -0.701  -0.042  0.00  0.00    -0.259 N 
ATOM      4  C   UNL     1       5.522  -0.778  -0.056  0.00  0.00    +0.165 A 
ATOM      5  N   UNL     1       6.396   0.205  -0.053  0.00  0.00    -0.229 NA
ATOM      6  C   UNL     1       7.707  -0.020  -0.068  0.00  0.00    +0.054 A 
ATOM      7  C   UNL     1       8.061  -1.330  -0.086  0.00  0.00    +0.014 A 
ATOM      8  S   UNL     1       6.494  -2.155  -0.072  0.00  0.00    -0.057 S 
ATOM      9  C   UNL     1       9.438  -1.901  -0.107  0.00  0.00    +0.044 C 
ATOM     10  C   UNL     1      10.419  -0.776  -0.476  0.00  0.00    +0.006 C 
ATOM     11  C   UNL     1      10.100   0.456   0.376  0.00  0.00    +0.006 C 
ATOM     12  C   UNL     1       8.769   1.070  -0.064  0.00  0.00    +0.056 C 
ATOM     13  H   UNL     1       3.604  -1.512  -0.041  0.00  0.00    +0.157 HD
ENDROOT
BRANCH   1  16
ATOM     14  C   UNL     1      -0.016   1.355   0.009  0.00  0.00    +0.128 A 
ATOM     15  C   UNL     1       1.278   1.771  -0.001  0.00  0.00    +0.075 A 
ATOM     16  C   UNL     1       2.056   0.585  -0.014  0.00  0.00    +0.168 A 
ATOM     17  N   UNL     1       1.213  -0.431  -0.012  0.00  0.00    -0.167 NA
ATOM     18  N   UNL     1       0.002  -0.004   0.002  0.00  0.00    -0.282 N 
ATOM     19  H   UNL     1      -0.786  -0.570   0.007  0.00  0.00    +0.188 HD
BRANCH  15  20
ATOM     20  N   UNL     1       1.745   3.094   0.002  0.00  0.00    -0.355 N 
ATOM     21  H   UNL     1       1.114   3.831   0.012  0.00  0.00    +0.142 HD
ATOM     22  H   UNL     1       2.698   3.271  -0.006  0.00  0.00    +0.142 HD
ENDBRANCH  15  20
ENDBRANCH   1  16
TORSDOF 2
