REMARK  Name = ZINC36601096
REMARK  9 active torsions:
REMARK  status: ('A' for Active; 'I' for Inactive)
REMARK    1  A    between atoms: C_1  and  C_2
REMARK    2  A    between atoms: C_5  and  C_7
REMARK    3  A    between atoms: C_7  and  N_8
REMARK    4  A    between atoms: N_8  and  C_9
REMARK    5  A    between atoms: C_9  and  C_11
REMARK    6  A    between atoms: C_9  and  C_21
REMARK    7  A    between atoms: C_14  and  C_17
REMARK    8  A    between atoms: N_23  and  C_24
REMARK    9  A    between atoms: C_30  and  C_32
REMARK                            x       y       z     vdW  Elec       q    Type
REMARK                         _______ _______ _______ _____ _____    ______ ____
ROOT
ATOM      1  C   UNL     1       3.165  -2.982  -2.020  0.00  0.00    +0.193 C 
ENDROOT
BRANCH   1   2
ATOM      2  C   UNL     1       4.230  -4.015  -2.285  0.00  0.00    -0.018 A 
ATOM      3  C   UNL     1       4.682  -4.821  -1.257  0.00  0.00    +0.006 A 
ATOM      4  C   UNL     1       5.659  -5.768  -1.500  0.00  0.00    +0.013 A 
ATOM      5  C   UNL     1       6.184  -5.909  -2.771  0.00  0.00    +0.055 A 
ATOM      6  C   UNL     1       5.731  -5.103  -3.799  0.00  0.00    +0.013 A 
ATOM      7  C   UNL     1       4.751  -4.159  -3.557  0.00  0.00    +0.006 A 
BRANCH   5   8
ATOM      8  C   UNL     1       7.250  -6.941  -3.036  0.00  0.00    +0.417 C 
ATOM      9  F   UNL     1       6.648  -8.149  -3.404  0.00  0.00    -0.166 F 
ATOM     10  F   UNL     1       8.080  -6.499  -4.072  0.00  0.00    -0.166 F 
ATOM     11  F   UNL     1       8.011  -7.133  -1.878  0.00  0.00    -0.166 F 
ENDBRANCH   5   8
ENDBRANCH   1   2
BRANCH   1  12
ATOM     12  C   UNL     1       2.914  -2.185  -3.274  0.00  0.00    +0.238 C 
ATOM     13  O   UNL     1       1.811  -2.177  -3.777  0.00  0.00    -0.273 OA
ATOM     14  N   UNL     1       3.917  -1.482  -3.837  0.00  0.00    -0.311 N 
ATOM     15  H   UNL     1       4.799  -1.489  -3.435  0.00  0.00    +0.149 HD
BRANCH  14  16
ATOM     16  C   UNL     1       3.673  -0.707  -5.056  0.00  0.00    +0.073 C 
ATOM     17  C   UNL     1       3.823  -1.618  -6.277  0.00  0.00    +0.022 C 
ATOM     18  C   UNL     1       3.569  -0.809  -7.551  0.00  0.00    +0.002 C 
ATOM     19  C   UNL     1       4.582   0.335  -7.639  0.00  0.00    +0.000 C 
ATOM     20  C   UNL     1       4.432   1.245  -6.419  0.00  0.00    +0.002 C 
ATOM     21  C   UNL     1       4.686   0.436  -5.145  0.00  0.00    +0.022 C 
ENDBRANCH  14  16
ENDBRANCH   1  12
BRANCH   1  22
ATOM     22  N   UNL     1       1.927  -3.651  -1.611  0.00  0.00    -0.277 N 
ATOM     23  C   UNL     1       1.364  -4.576  -2.414  0.00  0.00    +0.237 C 
ATOM     24  O   UNL     1       1.922  -4.911  -3.437  0.00  0.00    -0.274 OA
BRANCH  23  25
ATOM     25  C   UNL     1       0.041  -5.193  -2.039  0.00  0.00    +0.159 C 
ATOM     26  C   UNL     1       0.252  -6.326  -1.010  0.00  0.00    +0.041 C 
ATOM     27  C   UNL     1       0.348  -7.569  -1.925  0.00  0.00    +0.098 C 
ATOM     28  C   UNL     1      -0.406  -7.170  -3.174  0.00  0.00    +0.214 C 
ATOM     29  O   UNL     1      -0.806  -7.942  -4.020  0.00  0.00    -0.276 OA
ATOM     30  N   UNL     1      -0.569  -5.834  -3.210  0.00  0.00    -0.304 N 
ATOM     31  H   UNL     1      -1.030  -5.357  -3.917  0.00  0.00    +0.149 HD
ENDBRANCH  23  25
BRANCH  22  32
ATOM     32  C   UNL     1       1.302  -3.315  -0.330  0.00  0.00    +0.183 C 
BRANCH  32  37
ATOM     33  C   UNL     1      -0.591   1.349  -0.657  0.00  0.00    +0.086 C 
ATOM     34  C   UNL     1      -0.496  -0.155  -0.670  0.00  0.00    +0.102 A 
ATOM     35  C   UNL     1      -1.508  -1.005  -0.923  0.00  0.00    +0.045 A 
ATOM     36  C   UNL     1      -0.977  -2.312  -0.831  0.00  0.00    +0.046 A 
ATOM     37  C   UNL     1       0.327  -2.183  -0.528  0.00  0.00    +0.122 A 
ATOM     38  O   UNL     1       0.614  -0.874  -0.437  0.00  0.00    -0.463 OA
ENDBRANCH  32  37
ENDBRANCH  22  32
ENDBRANCH   1  22
TORSDOF 8
