REMARK  Name = ZINC37042343
REMARK  4 active torsions:
REMARK  status: ('A' for Active; 'I' for Inactive)
REMARK    1  A    between atoms: C_1  and  C_2
REMARK    2  A    between atoms: C_2  and  C_4
REMARK    3  A    between atoms: C_2  and  N_14
REMARK    4  A    between atoms: C_15  and  C_17
REMARK                            x       y       z     vdW  Elec       q    Type
REMARK                         _______ _______ _______ _____ _____    ______ ____
ROOT
ATOM      1  C   UNL     1      -0.019   1.526   0.010  0.00  0.00    +0.036 C 
ATOM      2  C   UNL     1       0.002  -0.004   0.002  0.00  0.00    +0.138 C 
ENDROOT
BRANCH   2   3
ATOM      3  C   UNL     1       0.731  -0.503   1.223  0.00  0.00    +0.154 A 
ATOM      4  N   UNL     1       0.272  -0.524   2.446  0.00  0.00    -0.132 NA
ATOM      5  N   UNL     1       1.160  -1.023   3.234  0.00  0.00    -0.134 NA
ATOM      6  C   UNL     1       2.219  -1.346   2.549  0.00  0.00    +0.134 A 
ATOM      7  N   UNL     1       1.979  -1.019   1.257  0.00  0.00    -0.313 N 
ATOM      8  C   UNL     1       2.902  -1.180   0.133  0.00  0.00    +0.125 C 
ATOM      9  C   UNL     1       3.849  -2.350   0.415  0.00  0.00    +0.022 C 
ATOM     10  C   UNL     1       5.084  -1.844   1.158  0.00  0.00    +0.002 C 
ATOM     11  C   UNL     1       4.689  -1.233   2.499  0.00  0.00    +0.008 C 
ATOM     12  C   UNL     1       3.484  -1.977   3.070  0.00  0.00    +0.076 C 
ENDBRANCH   2   3
BRANCH   2  13
ATOM     13  N   UNL     1      -1.372  -0.511   0.012  0.00  0.00    -0.306 N 
ATOM     14  C   UNL     1      -2.051  -0.643  -1.145  0.00  0.00    +0.215 C 
ATOM     15  O   UNL     1      -1.524  -0.341  -2.194  0.00  0.00    -0.276 OA
ATOM     16  H   UNL     1      -1.794  -0.752   0.852  0.00  0.00    +0.149 HD
BRANCH  14  17
ATOM     17  C   UNL     1      -3.465  -1.164  -1.134  0.00  0.00    +0.058 C 
ATOM     18  C   UNL     1      -4.346  -0.235  -0.294  0.00  0.00    +0.009 C 
ATOM     19  C   UNL     1      -5.794  -0.730  -0.354  0.00  0.00    -0.018 C 
ATOM     20  C   UNL     1      -6.246  -0.794  -1.815  0.00  0.00    -0.083 C 
ATOM     21  N   UNL     1      -5.380  -1.718  -2.558  0.00  0.00    +0.380 N 
ATOM     22  C   UNL     1      -4.002  -1.214  -2.566  0.00  0.00    -0.070 C 
ATOM     23  H   UNL     1      -5.402  -2.626  -2.118  0.00  0.00    -0.086 HD
ATOM     24  H   UNL     1      -5.713  -1.799  -3.507  0.00  0.00    -0.086 HD
ENDBRANCH  14  17
ENDBRANCH   2  13
TORSDOF 3
