REMARK  Name = ZINC12558480
REMARK  5 active torsions:
REMARK  status: ('A' for Active; 'I' for Inactive)
REMARK    1  A    between atoms: C_4  and  C_7
REMARK    2  A    between atoms: C_7  and  C_9
REMARK    3  A    between atoms: C_11  and  C_23
REMARK    4  A    between atoms: C_17  and  C_18
REMARK    5  A    between atoms: C_17  and  O_22
REMARK                            x       y       z     vdW  Elec       q    Type
REMARK                         _______ _______ _______ _____ _____    ______ ____
ROOT
ATOM      1  C   UNL     1      -0.714   1.985  -1.202  0.00  0.00    +0.144 C 
ATOM      2  C   UNL     1      -0.956   3.491  -1.056  0.00  0.00    +0.121 C 
ATOM      3  N   UNL     1      -1.619   3.750   0.223  0.00  0.00    -0.292 N 
ATOM      4  C   UNL     1      -1.430   2.949   1.282  0.00  0.00    +0.302 C 
ATOM      5  O   UNL     1      -1.996   3.215   2.324  0.00  0.00    -0.253 OA
ATOM      6  N   UNL     1      -0.641   1.865   1.237  0.00  0.00    -0.264 N 
ATOM      7  C   UNL     1       0.078   1.497   0.016  0.00  0.00    +0.243 C 
ATOM      8  H   UNL     1      -2.207   4.517   0.307  0.00  0.00    +0.151 HD
ATOM      9  H   UNL     1      -0.545   1.314   2.029  0.00  0.00    +0.153 HD
ENDROOT
BRANCH   2  10
ATOM     10  C   UNL     1       0.363   4.218  -1.096  0.00  0.00    -0.008 A 
ATOM     11  C   UNL     1       1.010   4.542   0.083  0.00  0.00    +0.008 A 
ATOM     12  C   UNL     1       2.223   5.203   0.047  0.00  0.00    +0.020 A 
ATOM     13  C   UNL     1       2.785   5.552  -1.169  0.00  0.00    +0.042 A 
ATOM     14  C   UNL     1       2.136   5.234  -2.348  0.00  0.00    +0.040 A 
ATOM     15  C   UNL     1       0.925   4.566  -2.311  0.00  0.00    +0.047 A 
ATOM     16 CL   UNL     1       0.109   4.166  -3.790  0.00  0.00    -0.083 Cl
ATOM     17 CL   UNL     1       4.306   6.389  -1.213  0.00  0.00    -0.083 Cl
ENDBRANCH   2  10
BRANCH   7  18
ATOM     18  C   UNL     1       0.231  -0.024  -0.049  0.00  0.00    +0.436 C 
ATOM     19  F   UNL     1       1.062  -0.454   0.991  0.00  0.00    -0.166 F 
ATOM     20  F   UNL     1      -1.026  -0.625   0.079  0.00  0.00    -0.166 F 
ATOM     21  F   UNL     1       0.796  -0.384  -1.277  0.00  0.00    -0.166 F 
ENDBRANCH   7  18
BRANCH   1  22
ATOM     22  C   UNL     1      -2.037   1.266  -1.266  0.00  0.00    +0.173 C 
ATOM     23  O   UNL     1      -2.636   1.005  -0.244  0.00  0.00    -0.292 OA
BRANCH  22  27
ATOM     24  C   UNL     1      -3.667   0.153  -5.021  0.00  0.00    +0.000 A 
ATOM     25  C   UNL     1      -4.401  -0.049  -3.865  0.00  0.00    +0.001 A 
ATOM     26  C   UNL     1      -3.878   0.310  -2.641  0.00  0.00    +0.011 A 
ATOM     27  C   UNL     1      -2.603   0.880  -2.569  0.00  0.00    +0.018 A 
ATOM     28  C   UNL     1      -1.870   1.086  -3.742  0.00  0.00    +0.011 A 
ATOM     29  C   UNL     1      -2.404   0.717  -4.958  0.00  0.00    +0.001 A 
ENDBRANCH  22  27
ENDBRANCH   1  22
BRANCH   7  30
ATOM     30  O   UNL     1       1.370   2.107   0.020  0.00  0.00    -0.364 OA
ATOM     31  H   UNL     1       1.926   1.845   0.766  0.00  0.00    +0.212 HD
ENDBRANCH   7  30
TORSDOF 5
