REMARK  Name = ZINC08844397
REMARK  5 active torsions:
REMARK  status: ('A' for Active; 'I' for Inactive)
REMARK    1  A    between atoms: C_1  and  C_2
REMARK    2  A    between atoms: C_2  and  C_3
REMARK    3  A    between atoms: C_8  and  O_9
REMARK    4  A    between atoms: C_12  and  C_16
REMARK    5  A    between atoms: C_13  and  O_15
REMARK                            x       y       z     vdW  Elec       q    Type
REMARK                         _______ _______ _______ _____ _____    ______ ____
ROOT
ATOM      1  C   UNL     1       0.002  -0.004   0.002  0.00  0.00    -0.006 A 
ATOM      2  C   UNL     1      -0.912  -0.703  -0.762  0.00  0.00    +0.017 A 
ATOM      3  C   UNL     1      -0.897  -2.086  -0.774  0.00  0.00    +0.028 A 
ATOM      4  C   UNL     1       0.038  -2.776  -0.017  0.00  0.00    +0.137 A 
ATOM      5  C   UNL     1       0.957  -2.075   0.752  0.00  0.00    +0.092 A 
ATOM      6  C   UNL     1       0.943  -0.689   0.757  0.00  0.00    +0.124 A 
ATOM      7  O   UNL     1       0.064  -4.131  -0.019  0.00  0.00    -0.463 OA
ATOM      8  C   UNL     1      -1.014  -4.821  -0.432  0.00  0.00    +0.204 C 
ATOM      9  C   UNL     1      -1.967  -4.271  -1.180  0.00  0.00    +0.046 C 
ATOM     10  C   UNL     1      -1.898  -2.834  -1.613  0.00  0.00    +0.183 C 
ENDROOT
BRANCH   9  11
ATOM     11  C   UNL     1      -3.118  -5.091  -1.592  0.00  0.00    +0.073 A 
ATOM     12  C   UNL     1      -3.183  -6.439  -1.191  0.00  0.00    +0.029 A 
ATOM     13  C   UNL     1      -4.245  -7.205  -1.562  0.00  0.00    +0.012 A 
ATOM     14  C   UNL     1      -5.252  -6.616  -2.355  0.00  0.00    +0.000 A 
ATOM     15  C   UNL     1      -6.369  -7.353  -2.776  0.00  0.00    +0.010 A 
ATOM     16  C   UNL     1      -7.323  -6.752  -3.541  0.00  0.00    +0.001 A 
ATOM     17  C   UNL     1      -7.205  -5.415  -3.912  0.00  0.00    +0.002 A 
ATOM     18  C   UNL     1      -6.134  -4.671  -3.522  0.00  0.00    +0.028 A 
ATOM     19  C   UNL     1      -5.128  -5.256  -2.731  0.00  0.00    +0.072 A 
ATOM     20  N   UNL     1      -4.067  -4.547  -2.335  0.00  0.00    -0.247 NA
ENDBRANCH   9  11
BRANCH   1  22
ATOM     21  C   UNL     1      -0.735   1.996   1.269  0.00  0.00    +0.009 C 
ATOM     22  C   UNL     1      -0.018   1.503   0.010  0.00  0.00    +0.035 C 
ENDBRANCH   1  22
BRANCH   6  23
ATOM     23  O   UNL     1       1.846  -0.002   1.505  0.00  0.00    -0.506 OA
ATOM     24  H   UNL     1       1.550   0.185   2.406  0.00  0.00    +0.292 HD
ENDBRANCH   6  23
BRANCH  10  25
ATOM     25  O   UNL     1      -3.186  -2.232  -1.464  0.00  0.00    -0.382 OA
ATOM     26  H   UNL     1      -3.883  -2.662  -1.977  0.00  0.00    +0.211 HD
ENDBRANCH  10  25
TORSDOF 4
