REMARK  Name = ZINC67306177
REMARK  4 active torsions:
REMARK  status: ('A' for Active; 'I' for Inactive)
REMARK    1  A    between atoms: C_1  and  C_2
REMARK    2  A    between atoms: N_5  and  C_9
REMARK    3  A    between atoms: C_15  and  C_17
REMARK    4  A    between atoms: C_17  and  C_22
REMARK                            x       y       z     vdW  Elec       q    Type
REMARK                         _______ _______ _______ _____ _____    ______ ____
ROOT
ATOM      1  C   UNL     1       1.310  -2.504  -2.401  0.00  0.00    +0.060 C 
ATOM      2  C   UNL     1       0.497  -2.097  -3.631  0.00  0.00    +0.038 C 
ATOM      3  C   UNL     1       1.215  -2.578  -4.896  0.00  0.00    +0.109 C 
ATOM      4  N   UNL     1       1.455  -4.023  -4.782  0.00  0.00    -0.301 N 
ATOM      5  C   UNL     1       2.150  -4.533  -3.592  0.00  0.00    +0.109 C 
ATOM      6  C   UNL     1       1.421  -4.029  -2.342  0.00  0.00    +0.038 C 
ATOM      7  C   UNL     1       1.045  -4.865  -5.751  0.00  0.00    +0.221 C 
ATOM      8  O   UNL     1       1.329  -6.043  -5.692  0.00  0.00    -0.275 OA
ENDROOT
BRANCH   1  12
ATOM      9  C   UNL     1      -0.300   1.439   0.066  0.00  0.00    +0.039 C 
ATOM     10  C   UNL     1      -0.237  -0.090   0.042  0.00  0.00    +0.129 C 
ATOM     11  C   UNL     1       0.517  -0.550  -1.209  0.00  0.00    +0.116 C 
ATOM     12  N   UNL     1       0.641  -2.015  -1.188  0.00  0.00    -0.295 NA
ATOM     13  C   UNL     1       1.350  -2.461   0.021  0.00  0.00    +0.113 C 
ATOM     14  C   UNL     1       0.588  -1.981   1.259  0.00  0.00    +0.175 C 
ATOM     15  O   UNL     1       0.448  -0.558   1.206  0.00  0.00    -0.374 OA
ENDBRANCH   1  12
BRANCH   7  16
ATOM     16  C   UNL     1       0.233  -4.344  -6.908  0.00  0.00    +0.044 C 
ATOM     17  C   UNL     1      -1.031  -3.629  -6.388  0.00  0.00    +0.016 C 
ATOM     18  C   UNL     1      -2.128  -3.997  -7.418  0.00  0.00    +0.001 C 
ATOM     19  C   UNL     1      -1.795  -5.470  -7.760  0.00  0.00    +0.001 C 
ATOM     20  C   UNL     1      -0.253  -5.515  -7.781  0.00  0.00    +0.016 C 
ATOM     21  C   UNL     1       1.074  -3.379  -7.746  0.00  0.00    +0.021 C 
ENDBRANCH   7  16
TORSDOF 2
