REMARK  Name = ZINC16571104
REMARK  8 active torsions:
REMARK  status: ('A' for Active; 'I' for Inactive)
REMARK    1  A    between atoms: C_1  and  C_2
REMARK    2  A    between atoms: N_5  and  C_8
REMARK    3  A    between atoms: C_9  and  C_22
REMARK    4  A    between atoms: N_12  and  C_15
REMARK    5  A    between atoms: C_15  and  C_16
REMARK    6  A    between atoms: C_23  and  C_35
REMARK    7  A    between atoms: N_25  and  C_28
REMARK    8  A    between atoms: C_26  and  O_27
REMARK                            x       y       z     vdW  Elec       q    Type
REMARK                         _______ _______ _______ _____ _____    ______ ____
ROOT
ATOM      1  C   UNL     1       1.173   2.085   0.002  0.00  0.00    +0.122 C 
ATOM      2  C   UNL     1       0.695   3.387   0.013  0.00  0.00    +0.080 C 
ATOM      3  C   UNL     1      -0.785   3.280   0.026  0.00  0.00    +0.256 C 
ATOM      4  O   UNL     1      -1.564   4.212   0.039  0.00  0.00    -0.269 OA
ATOM      5  N   UNL     1      -1.117   1.978   0.018  0.00  0.00    -0.230 N 
ATOM      6  C   UNL     1      -0.014   1.211   0.009  0.00  0.00    +0.271 C 
ATOM      7  O   UNL     1       0.002  -0.004   0.002  0.00  0.00    -0.268 OA
ENDROOT
BRANCH   1  12
ATOM      8  C   UNL     1       6.550   0.469  -0.056  0.00  0.00    +0.044 C 
ATOM      9  C   UNL     1       5.107   0.903  -0.040  0.00  0.00    -0.048 A 
ATOM     10  C   UNL     1       4.293   0.618   1.047  0.00  0.00    +0.021 A 
ATOM     11  C   UNL     1       2.977   1.029   1.030  0.00  0.00    +0.091 A 
ATOM     12  N   UNL     1       2.487   1.690  -0.012  0.00  0.00    -0.318 N 
ATOM     13  C   UNL     1       3.238   1.973  -1.070  0.00  0.00    +0.091 A 
ATOM     14  C   UNL     1       4.563   1.595  -1.114  0.00  0.00    +0.021 A 
ENDBRANCH   1  12
BRANCH   2  15
ATOM     15  C   UNL     1       1.493   4.622   0.012  0.00  0.00    +0.073 A 
ATOM     16  C   UNL     1       1.955   5.326   1.148  0.00  0.00    +0.072 A 
ATOM     17  N   UNL     1       2.628   6.365   0.739  0.00  0.00    -0.168 NA
ATOM     18  N   UNL     1       2.627   6.392  -0.660  0.00  0.00    -0.200 N 
ATOM     19  C   UNL     1       1.932   5.324  -1.109  0.00  0.00    +0.224 A 
ATOM     20  C   UNL     1       1.715   4.940   2.585  0.00  0.00    +0.068 C 
BRANCH  18  21
ATOM     21  C   UNL     1       3.244   7.363  -1.461  0.00  0.00    +0.070 A 
ATOM     22  C   UNL     1       3.284   8.687  -1.043  0.00  0.00    +0.028 A 
ATOM     23  C   UNL     1       3.893   9.642  -1.834  0.00  0.00    +0.003 A 
ATOM     24  C   UNL     1       4.463   9.281  -3.041  0.00  0.00    +0.020 A 
ATOM     25  C   UNL     1       4.426   7.963  -3.460  0.00  0.00    +0.043 A 
ATOM     26  C   UNL     1       3.822   7.002  -2.670  0.00  0.00    +0.048 A 
ATOM     27 CL   UNL     1       5.143   7.514  -4.976  0.00  0.00    -0.083 Cl
ENDBRANCH  18  21
BRANCH  19  28
ATOM     28  O   UNL     1       1.704   4.998  -2.403  0.00  0.00    -0.492 OA
ATOM     29  H   UNL     1       0.896   5.382  -2.769  0.00  0.00    +0.294 HD
ENDBRANCH  19  28
ENDBRANCH   2  15
BRANCH   5  30
ATOM     30  C   UNL     1      -2.490   1.467   0.021  0.00  0.00    +0.148 C 
BRANCH  30  31
ATOM     31  C   UNL     1      -2.962   1.282   1.464  0.00  0.00    +0.136 C 
ATOM     32  C   UNL     1      -4.387   0.674   1.491  0.00  0.00    +0.035 C 
ATOM     33  C   UNL     1      -4.393  -0.004   2.888  0.00  0.00    +0.031 C 
ATOM     34  C   UNL     1      -2.927  -0.467   3.034  0.00  0.00    +0.160 C 
ATOM     35  O   UNL     1      -2.133   0.323   2.141  0.00  0.00    -0.375 OA
ENDBRANCH  30  31
ENDBRANCH   5  30
TORSDOF 6
