REMARK  Name = ZINC40721206
REMARK  14 active torsions:
REMARK  status: ('A' for Active; 'I' for Inactive)
REMARK    1  A    between atoms: C_1  and  N_2
REMARK    2  A    between atoms: C_6  and  C_13
REMARK    3  A    between atoms: N_9  and  C_12
REMARK    4  A    between atoms: C_13  and  C_15
REMARK    5  A    between atoms: C_13  and  O_34
REMARK    6  A    between atoms: C_15  and  O_16
REMARK    7  A    between atoms: O_16  and  C_17
REMARK    8  A    between atoms: C_20  and  C_23
REMARK    9  A    between atoms: C_23  and  N_24
REMARK   10  A    between atoms: N_24  and  C_25
REMARK   11  A    between atoms: C_25  and  C_26
REMARK   12  A    between atoms: C_26  and  S_27
REMARK   13  A    between atoms: S_27  and  C_28
REMARK   14  A    between atoms: N_32  and  C_33
REMARK                            x       y       z     vdW  Elec       q    Type
REMARK                         _______ _______ _______ _____ _____    ______ ____
ROOT
ATOM      1  C   UNL     1      -5.614  -5.969  -2.660  0.00  0.00    +0.121 A 
ATOM      2  C   UNL     1      -5.278  -5.267  -3.808  0.00  0.00    +0.046 A 
ATOM      3  C   UNL     1      -5.761  -5.681  -5.035  0.00  0.00    +0.005 A 
ATOM      4  C   UNL     1      -6.577  -6.794  -5.118  0.00  0.00    -0.064 A 
ATOM      5  C   UNL     1      -6.913  -7.495  -3.975  0.00  0.00    +0.005 A 
ATOM      6  C   UNL     1      -6.428  -7.088  -2.746  0.00  0.00    +0.046 A 
ENDROOT
BRANCH   1   7
ATOM      7  O   UNL     1      -5.140  -5.563  -1.452  0.00  0.00    -0.489 OA
BRANCH   7   8
ATOM      8  C   UNL     1      -4.307  -4.402  -1.438  0.00  0.00    +0.265 C 
BRANCH   8   9
ATOM      9  C   UNL     1      -3.874  -4.102  -0.001  0.00  0.00    +0.182 C 
BRANCH   9  15
ATOM     10  C   UNL     1      -0.018   1.461   0.010  0.00  0.00    +0.154 C 
ATOM     11  N   UNL     1       0.002  -0.004   0.002  0.00  0.00    -0.295 N 
ATOM     12  C   UNL     1      -1.116  -0.835   0.003  0.00  0.00    +0.070 A 
ATOM     13  C   UNL     1      -2.481  -0.592   0.010  0.00  0.00    +0.028 A 
ATOM     14  C   UNL     1      -3.368  -1.651   0.009  0.00  0.00    +0.008 A 
ATOM     15  C   UNL     1      -2.899  -2.954  -0.000  0.00  0.00    -0.014 A 
ATOM     16  C   UNL     1      -1.541  -3.205  -0.007  0.00  0.00    +0.034 A 
ATOM     17  C   UNL     1      -0.643  -2.148  -0.007  0.00  0.00    +0.070 A 
ATOM     18  N   UNL     1       0.748  -2.075  -0.013  0.00  0.00    -0.295 N 
ATOM     19  C   UNL     1       1.104  -0.777  -0.013  0.00  0.00    +0.330 A 
ATOM     20  O   UNL     1       2.249  -0.365  -0.022  0.00  0.00    -0.246 OA
ATOM     21  C   UNL     1       1.666  -3.217  -0.023  0.00  0.00    +0.154 C 
ENDBRANCH   9  15
BRANCH   9  22
ATOM     22  O   UNL     1      -5.020  -3.755   0.778  0.00  0.00    -0.384 OA
ATOM     23  H   UNL     1      -5.495  -2.977   0.455  0.00  0.00    +0.210 HD
ENDBRANCH   9  22
ENDBRANCH   8   9
ENDBRANCH   7   8
ENDBRANCH   1   7
BRANCH   4  24
ATOM     24  C   UNL     1      -7.102  -7.243  -6.457  0.00  0.00    -0.047 C 
BRANCH  24  25
ATOM     25  N   UNL     1      -6.157  -8.194  -7.059  0.00  0.00    +0.382 N 
ATOM     26  H   UNL     1      -5.262  -7.747  -7.182  0.00  0.00    -0.085 HD
ATOM     27  H   UNL     1      -6.054  -8.994  -6.453  0.00  0.00    -0.085 HD
BRANCH  25  28
ATOM     28  C   UNL     1      -6.669  -8.633  -8.365  0.00  0.00    -0.071 C 
BRANCH  28  29
ATOM     29  C   UNL     1      -5.686  -9.623  -8.991  0.00  0.00    +0.058 C 
BRANCH  29  30
ATOM     30  S   UNL     1      -6.318 -10.164 -10.603  0.00  0.00    -0.086 S 
BRANCH  30  31
ATOM     31  C   UNL     1      -5.090 -11.285 -11.188  0.00  0.00    +0.209 A 
ATOM     32  N   UNL     1      -3.985 -11.629 -10.563  0.00  0.00    -0.102 NA
ATOM     33  N   UNL     1      -3.312 -12.466 -11.268  0.00  0.00    -0.022 NA
ATOM     34  N   UNL     1      -3.925 -12.714 -12.374  0.00  0.00    -0.043 NA
ATOM     35  N   UNL     1      -5.110 -11.959 -12.362  0.00  0.00    -0.223 N 
ATOM     36  C   UNL     1      -6.144 -11.909 -13.399  0.00  0.00    +0.177 C 
ENDBRANCH  30  31
ENDBRANCH  29  30
ENDBRANCH  28  29
ENDBRANCH  25  28
ENDBRANCH  24  25
ENDBRANCH   4  24
TORSDOF 11
