REMARK  Name = ZINC06232548
REMARK  8 active torsions:
REMARK  status: ('A' for Active; 'I' for Inactive)
REMARK    1  A    between atoms: C_1  and  C_2
REMARK    2  A    between atoms: C_2  and  C_12
REMARK    3  A    between atoms: C_4  and  O_11
REMARK    4  A    between atoms: C_7  and  C_9
REMARK    5  A    between atoms: C_7  and  C_10
REMARK    6  A    between atoms: C_12  and  N_13
REMARK    7  A    between atoms: N_13  and  C_14
REMARK    8  A    between atoms: N_21  and  C_24
REMARK                            x       y       z     vdW  Elec       q    Type
REMARK                         _______ _______ _______ _____ _____    ______ ____
ROOT
ATOM      1  C   UNL     1      -3.517  -0.221  -1.211  0.00  0.00    +0.085 C 
ATOM      2  C   UNL     1      -4.231   0.321  -2.263  0.00  0.00    +0.113 C 
ATOM      3  C   UNL     1      -5.679   0.089  -2.411  0.00  0.00    +0.258 C 
ATOM      4  O   UNL     1      -6.288  -0.590  -1.605  0.00  0.00    -0.270 OA
ATOM      5  N   UNL     1      -6.311   0.650  -3.462  0.00  0.00    -0.235 N 
ATOM      6  C   UNL     1      -5.652   1.400  -4.357  0.00  0.00    +0.320 C 
ATOM      7  O   UNL     1      -6.280   1.877  -5.282  0.00  0.00    -0.251 OA
ATOM      8  N   UNL     1      -4.338   1.653  -4.285  0.00  0.00    -0.190 N 
ATOM      9  C   UNL     1      -3.579   1.162  -3.283  0.00  0.00    +0.265 C 
ATOM     10  O   UNL     1      -2.388   1.403  -3.226  0.00  0.00    -0.269 OA
ATOM     11  H   UNL     1      -7.263   0.507  -3.574  0.00  0.00    +0.159 HD
ENDROOT
BRANCH   8  12
ATOM     12  C   UNL     1      -3.739   2.451  -5.269  0.00  0.00    +0.046 A 
ATOM     13  C   UNL     1      -2.814   1.898  -6.145  0.00  0.00    +0.025 A 
ATOM     14  C   UNL     1      -2.225   2.686  -7.114  0.00  0.00    +0.017 A 
ATOM     15  C   UNL     1      -2.556   4.026  -7.213  0.00  0.00    +0.018 A 
ATOM     16  C   UNL     1      -3.477   4.580  -6.341  0.00  0.00    +0.017 A 
ATOM     17  C   UNL     1      -4.073   3.794  -5.374  0.00  0.00    +0.025 A 
ATOM     18 BR   UNL     1      -1.748   5.102  -8.541  0.00  0.00    -0.050 Br
ENDBRANCH   8  12
BRANCH   1  19
ATOM     19  N   UNL     1      -2.226   0.120  -1.026  0.00  0.00    -0.348 N 
ATOM     20  H   UNL     1      -1.777   0.688  -1.672  0.00  0.00    +0.146 HD
BRANCH  19  21
ATOM     21  C   UNL     1      -1.502  -0.365   0.152  0.00  0.00    +0.107 C 
BRANCH  21  23
ATOM     22  C   UNL     1      -0.130   1.698   0.131  0.00  0.00    +0.013 C 
ATOM     23  C   UNL     1      -0.052   0.169   0.121  0.00  0.00    -0.014 C 
ATOM     24  C   UNL     1       0.589  -0.312  -1.176  0.00  0.00    +0.039 C 
ATOM     25  C   UNL     1       2.088  -0.017  -1.181  0.00  0.00    +0.116 C 
ATOM     26  C   UNL     1       2.743  -0.771  -0.026  0.00  0.00    +0.037 C 
ATOM     27  C   UNL     1       2.180  -0.306   1.312  0.00  0.00    -0.032 C 
ATOM     28  C   UNL     1       0.663  -0.350   1.354  0.00  0.00    +0.014 C 
ATOM     29  C   UNL     1       2.700   1.096   1.641  0.00  0.00    +0.011 C 
ATOM     30  C   UNL     1       2.714  -1.262   2.402  0.00  0.00    +0.011 C 
BRANCH  25  31
ATOM     31  O   UNL     1       2.651  -0.473  -2.418  0.00  0.00    -0.392 OA
ATOM     32  H   UNL     1       3.602  -0.321  -2.497  0.00  0.00    +0.210 HD
ENDBRANCH  25  31
ENDBRANCH  21  23
ENDBRANCH  19  21
ENDBRANCH   1  19
TORSDOF 5
