REMARK  Name = ZINC21260501
REMARK  9 active torsions:
REMARK  status: ('A' for Active; 'I' for Inactive)
REMARK    1  A    between atoms: C_1  and  C_2
REMARK    2  A    between atoms: C_2  and  C_4
REMARK    3  A    between atoms: C_2  and  N_12
REMARK    4  A    between atoms: C_9  and  O_10
REMARK    5  A    between atoms: O_10  and  C_11
REMARK    6  A    between atoms: C_13  and  C_15
REMARK    7  A    between atoms: C_15  and  N_16
REMARK    8  A    between atoms: C_19  and  C_23
REMARK    9  A    between atoms: C_19  and  C_24
REMARK                            x       y       z     vdW  Elec       q    Type
REMARK                         _______ _______ _______ _____ _____    ______ ____
ROOT
ATOM      1  C   UNL     1       1.280   1.980   0.001  0.00  0.00    +0.213 C 
ENDROOT
BRANCH   1   2
ATOM      2  N   UNL     1       2.407   1.043  -0.015  0.00  0.00    -0.215 N 
ATOM      3  C   UNL     1       2.978   0.565  -1.138  0.00  0.00    +0.251 C 
ATOM      4  O   UNL     1       2.668   0.818  -2.283  0.00  0.00    -0.272 OA
ATOM      5  C   UNL     1       4.088  -0.356  -0.673  0.00  0.00    +0.135 C 
ATOM      6  N   UNL     1       4.006  -0.283   0.796  0.00  0.00    -0.281 N 
ATOM      7  C   UNL     1       2.999   0.561   1.083  0.00  0.00    +0.310 C 
ATOM      8  O   UNL     1       2.662   0.851   2.215  0.00  0.00    -0.252 OA
ATOM      9  C   UNL     1       3.841  -1.786  -1.159  0.00  0.00    +0.047 C 
ATOM     10  H   UNL     1       4.704  -0.866   1.415  0.00  0.00    +0.152 HD
BRANCH   5  11
ATOM     11  C   UNL     1       5.427   0.142  -1.154  0.00  0.00    -0.016 A 
ATOM     12  C   UNL     1       5.517   0.843  -2.342  0.00  0.00    +0.006 A 
ATOM     13  C   UNL     1       6.744   1.304  -2.781  0.00  0.00    +0.000 A 
ATOM     14  C   UNL     1       7.882   1.055  -2.038  0.00  0.00    +0.000 A 
ATOM     15  C   UNL     1       7.793   0.349  -0.853  0.00  0.00    +0.000 A 
ATOM     16  C   UNL     1       6.565  -0.108  -0.411  0.00  0.00    +0.006 A 
ENDBRANCH   5  11
ENDBRANCH   1   2
BRANCH   1  18
ATOM     17  N   UNL     1      -1.191   1.867   0.018  0.00  0.00    -0.307 N 
ATOM     18  C   UNL     1      -0.014   1.209   0.009  0.00  0.00    +0.231 C 
ATOM     19  O   UNL     1       0.002  -0.004   0.002  0.00  0.00    -0.274 OA
ATOM     20  H   UNL     1      -1.206   2.966   0.024  0.00  0.00    +0.149 HD
BRANCH  17  22
ATOM     21  C   UNL     1      -2.830   0.756  -1.417  0.00  0.00    +0.033 C 
ATOM     22  C   UNL     1      -2.449   1.117   0.020  0.00  0.00    +0.104 C 
BRANCH  22  23
ATOM     23  C   UNL     1      -3.537   1.963   0.630  0.00  0.00    +0.014 A 
ATOM     24  C   UNL     1      -3.433   3.341   0.612  0.00  0.00    +0.009 A 
ATOM     25  C   UNL     1      -4.433   4.117   1.167  0.00  0.00    +0.001 A 
ATOM     26  C   UNL     1      -5.534   3.518   1.752  0.00  0.00    +0.004 A 
ATOM     27  C   UNL     1      -5.639   2.141   1.777  0.00  0.00    +0.046 A 
ATOM     28  C   UNL     1      -4.640   1.359   1.215  0.00  0.00    +0.125 A 
BRANCH  28  29
ATOM     29  O   UNL     1      -4.742   0.004   1.239  0.00  0.00    -0.495 OA
ATOM     30  C   UNL     1      -5.905  -0.549   1.858  0.00  0.00    +0.277 C 
ENDBRANCH  28  29
ENDBRANCH  22  23
ENDBRANCH  17  22
ENDBRANCH   1  18
TORSDOF 6
