REMARK  Name = ZINC13206399
REMARK  9 active torsions:
REMARK  status: ('A' for Active; 'I' for Inactive)
REMARK    1  A    between atoms: C_1  and  C_2
REMARK    2  A    between atoms: C_6  and  C_8
REMARK    3  A    between atoms: C_11  and  S_16
REMARK    4  A    between atoms: N_12  and  C_13
REMARK    5  A    between atoms: C_13  and  C_14
REMARK    6  A    between atoms: S_16  and  C_17
REMARK    7  A    between atoms: C_17  and  C_19
REMARK    8  A    between atoms: C_17  and  C_20
REMARK    9  A    between atoms: N_25  and  C_26
REMARK                            x       y       z     vdW  Elec       q    Type
REMARK                         _______ _______ _______ _____ _____    ______ ____
ROOT
ATOM      1  C   UNL     1       0.856   8.364  -0.093  0.00  0.00    +0.137 C 
ATOM      2  C   UNL     1       1.415   8.214  -1.509  0.00  0.00    +0.029 C 
ENDROOT
BRANCH   1   3
ATOM      3  C   UNL     1       0.269   9.742   0.073  0.00  0.00    +0.233 C 
ATOM      4  O   UNL     1      -0.929   9.905  -0.013  0.00  0.00    -0.274 OA
ATOM      5  N   UNL     1       1.077  10.794   0.317  0.00  0.00    -0.239 N 
ATOM      6  C   UNL     1       0.552  12.026   0.465  0.00  0.00    +0.306 C 
ATOM      7  O   UNL     1      -0.650  12.189   0.379  0.00  0.00    -0.252 OA
ATOM      8  N   UNL     1       1.359  13.078   0.708  0.00  0.00    -0.294 N 
ATOM      9  H   UNL     1       2.035  10.663   0.385  0.00  0.00    +0.159 HD
ATOM     10  H   UNL     1       2.318  12.947   0.777  0.00  0.00    +0.151 HD
BRANCH   8  11
ATOM     11  C   UNL     1       0.788  14.417   0.869  0.00  0.00    +0.037 C 
ATOM     12  C   UNL     1       0.043  14.811  -0.408  0.00  0.00    +0.029 C 
ATOM     13  C   UNL     1      -0.552  16.210  -0.240  0.00  0.00    -0.008 C 
ATOM     14  C   UNL     1       0.571  17.215   0.026  0.00  0.00    +0.007 C 
ATOM     15  C   UNL     1       1.316  16.821   1.303  0.00  0.00    -0.008 C 
ATOM     16  C   UNL     1       1.912  15.421   1.135  0.00  0.00    +0.029 C 
ATOM     17  C   UNL     1       0.342  16.822   2.482  0.00  0.00    +0.007 C 
ATOM     18  C   UNL     1      -0.782  15.817   2.217  0.00  0.00    -0.008 C 
ATOM     19  C   UNL     1      -1.527  16.211   0.940  0.00  0.00    +0.007 C 
ATOM     20  C   UNL     1      -0.186  14.418   2.049  0.00  0.00    +0.029 C 
ENDBRANCH   8  11
ENDBRANCH   1   3
BRANCH   1  21
ATOM     21  S   UNL     1      -0.432   7.123   0.182  0.00  0.00    -0.073 S 
BRANCH  21  25
ATOM     22  C   UNL     1       1.181   3.566   0.062  0.00  0.00    +0.165 A 
ATOM     23  N   UNL     1       2.209   4.356  -0.143  0.00  0.00    -0.128 NA
ATOM     24  N   UNL     1       1.828   5.583  -0.137  0.00  0.00    -0.122 NA
ATOM     25  C   UNL     1       0.534   5.652   0.082  0.00  0.00    +0.193 A 
ATOM     26  N   UNL     1       0.077   4.372   0.216  0.00  0.00    -0.291 N 
BRANCH  22  32
ATOM     27  C   UNL     1       3.420  -0.762  -1.012  0.00  0.00    +0.044 C 
ATOM     28  C   UNL     1       2.280   0.004  -0.392  0.00  0.00    -0.050 A 
ATOM     29  C   UNL     1       1.251  -0.677   0.234  0.00  0.00    +0.003 A 
ATOM     30  C   UNL     1       0.200   0.018   0.805  0.00  0.00    +0.001 A 
ATOM     31  C   UNL     1       0.171   1.396   0.753  0.00  0.00    +0.011 A 
ATOM     32  C   UNL     1       1.206   2.089   0.122  0.00  0.00    +0.020 A 
ATOM     33  C   UNL     1       2.263   1.381  -0.452  0.00  0.00    +0.015 A 
ENDBRANCH  22  32
BRANCH  26  34
ATOM     34  C   UNL     1      -1.302   3.947   0.470  0.00  0.00    +0.250 C 
BRANCH  34  35
ATOM     35  C   UNL     1      -1.551   3.914   1.956  0.00  0.00    +0.375 C 
ATOM     36  O   UNL     1      -0.668   4.215   2.724  0.00  0.00    -0.244 OA
ATOM     37  O   UNL     1      -2.754   3.550   2.427  0.00  0.00    -0.244 OA
ENDBRANCH  34  35
ENDBRANCH  26  34
ENDBRANCH  21  25
ENDBRANCH   1  21
TORSDOF 7
