REMARK  Name = ZINC39266119
REMARK  9 active torsions:
REMARK  status: ('A' for Active; 'I' for Inactive)
REMARK    1  A    between atoms: C_4  and  C_7
REMARK    2  A    between atoms: C_7  and  O_8
REMARK    3  A    between atoms: O_8  and  C_9
REMARK    4  A    between atoms: C_16  and  C_34
REMARK    5  A    between atoms: N_18  and  C_21
REMARK    6  A    between atoms: C_21  and  C_22
REMARK    7  A    between atoms: N_24  and  C_25
REMARK    8  A    between atoms: C_25  and  C_26
REMARK    9  A    between atoms: C_26  and  N_27
REMARK                            x       y       z     vdW  Elec       q    Type
REMARK                         _______ _______ _______ _____ _____    ______ ____
ROOT
ATOM      1  C   UNL     1       5.512  -1.166   1.451  0.00  0.00    +0.404 C 
ATOM      2  O   UNL     1       6.116  -1.582   0.482  0.00  0.00    -0.226 OA
ATOM      3  N   UNL     1       5.965  -1.431   2.692  0.00  0.00    -0.251 N 
ATOM      4  C   UNL     1       5.332  -0.997   3.952  0.00  0.00    +0.112 C 
ATOM      5  C   UNL     1       5.820  -2.015   5.013  0.00  0.00    +0.022 C 
ATOM      6  C   UNL     1       7.279  -2.274   4.552  0.00  0.00    +0.039 C 
ATOM      7  C   UNL     1       7.167  -2.206   3.018  0.00  0.00    +0.139 C 
ATOM      8  C   UNL     1       7.277  -3.557   2.312  0.00  0.00    +0.139 C 
ATOM      9  N   UNL     1       8.483  -2.966   1.717  0.00  0.00    -0.281 N 
ATOM     10  C   UNL     1       8.424  -1.758   2.321  0.00  0.00    +0.243 C 
ATOM     11  O   UNL     1       9.095  -0.748   2.307  0.00  0.00    -0.273 OA
ENDROOT
BRANCH   8  12
ATOM     12  C   UNL     1       7.545  -4.716   3.236  0.00  0.00    -0.024 A 
ATOM     13  C   UNL     1       8.827  -4.952   3.696  0.00  0.00    +0.005 A 
ATOM     14  C   UNL     1       9.073  -6.015   4.545  0.00  0.00    +0.000 A 
ATOM     15  C   UNL     1       8.036  -6.843   4.934  0.00  0.00    +0.000 A 
ATOM     16  C   UNL     1       6.754  -6.607   4.475  0.00  0.00    +0.000 A 
ATOM     17  C   UNL     1       6.507  -5.541   3.630  0.00  0.00    +0.005 A 
ENDBRANCH   8  12
BRANCH   1  18
ATOM     18  O   UNL     1       4.391  -0.439   1.285  0.00  0.00    -0.445 OA
BRANCH  18  19
ATOM     19  C   UNL     1       3.969  -0.196  -0.059  0.00  0.00    +0.269 C 
BRANCH  19  23
ATOM     20  C   UNL     1       0.390   2.135  -0.029  0.00  0.00    +0.000 A 
ATOM     21  C   UNL     1       1.622   2.761  -0.056  0.00  0.00    +0.000 A 
ATOM     22  C   UNL     1       2.780   2.006  -0.066  0.00  0.00    +0.007 A 
ATOM     23  C   UNL     1       2.706   0.626  -0.047  0.00  0.00    -0.010 A 
ATOM     24  C   UNL     1       1.474   0.001  -0.018  0.00  0.00    +0.007 A 
ATOM     25  C   UNL     1       0.316   0.755  -0.010  0.00  0.00    +0.000 A 
ENDBRANCH  19  23
ENDBRANCH  18  19
ENDBRANCH   1  18
BRANCH   9  26
ATOM     26  C   UNL     1       9.451  -3.516   0.765  0.00  0.00    +0.204 C 
BRANCH  26  27
ATOM     27  C   UNL     1       9.006  -3.204  -0.640  0.00  0.00    +0.230 C 
ATOM     28  O   UNL     1       7.981  -2.583  -0.828  0.00  0.00    -0.274 OA
ATOM     29  N   UNL     1       9.746  -3.615  -1.689  0.00  0.00    -0.316 N 
ATOM     30  H   UNL     1      10.566  -4.112  -1.538  0.00  0.00    +0.149 HD
BRANCH  29  31
ATOM     31  C   UNL     1       9.314  -3.312  -3.055  0.00  0.00    +0.086 C 
BRANCH  31  32
ATOM     32  C   UNL     1      10.325  -3.886  -4.050  0.00  0.00    -0.060 C 
BRANCH  32  33
ATOM     33  N   UNL     1       9.828  -3.695  -5.419  0.00  0.00    +0.381 N 
ATOM     34  C   UNL     1      10.686  -4.459  -6.345  0.00  0.00    -0.079 C 
ATOM     35  C   UNL     1       9.885  -4.770  -7.585  0.00  0.00    -0.019 C 
ATOM     36  C   UNL     1      10.148  -3.739  -8.698  0.00  0.00    -0.002 C 
ATOM     37  C   UNL     1      10.235  -2.304  -8.141  0.00  0.00    -0.002 C 
ATOM     38  C   UNL     1       9.192  -2.034  -7.086  0.00  0.00    -0.019 C 
ATOM     39  C   UNL     1       9.794  -2.327  -5.696  0.00  0.00    -0.079 C 
ATOM     40  H   UNL     1       8.889  -4.060  -5.475  0.00  0.00    -0.082 HD
ENDBRANCH  32  33
ENDBRANCH  31  32
ENDBRANCH  29  31
ENDBRANCH  26  27
ENDBRANCH   9  26
TORSDOF 9
