REMARK  Name = ZINC39631662
REMARK  12 active torsions:
REMARK  status: ('A' for Active; 'I' for Inactive)
REMARK    1  A    between atoms: C_1  and  C_2
REMARK    2  A    between atoms: C_4  and  C_9
REMARK    3  A    between atoms: C_13  and  C_22
REMARK    4  A    between atoms: N_24  and  C_25
REMARK    5  A    between atoms: C_25  and  C_27
REMARK    6  A    between atoms: C_25  and  C_28
REMARK    7  A    between atoms: C_28  and  C_29
REMARK    8  A    between atoms: C_29  and  C_30
REMARK    9  A    between atoms: C_30  and  C_31
REMARK   10  A    between atoms: C_31  and  C_32
REMARK   11  A    between atoms: C_31  and  C_33
REMARK   12  A    between atoms: C_31  and  O_34
REMARK                            x       y       z     vdW  Elec       q    Type
REMARK                         _______ _______ _______ _____ _____    ______ ____
ROOT
ATOM      1  C   UNL     1       0.028  -2.817  -2.481  0.00  0.00    +0.247 C 
ATOM      2  O   UNL     1      -0.094  -2.212  -3.529  0.00  0.00    -0.270 OA
ATOM      3  N   UNL     1       0.149  -4.159  -2.488  0.00  0.00    -0.296 N 
ATOM      4  C   UNL     1       0.178  -5.074  -1.322  0.00  0.00    +0.121 C 
ATOM      5  C   UNL     1      -0.643  -6.303  -1.771  0.00  0.00    +0.100 C 
ATOM      6  C   UNL     1      -0.569  -6.286  -3.307  0.00  0.00    -0.004 C 
ATOM      7  C   UNL     1       0.276  -5.054  -3.663  0.00  0.00    +0.115 C 
ATOM      8  C   UNL     1       0.104  -7.556  -3.818  0.00  0.00    -0.010 C 
ATOM      9  C   UNL     1       0.114  -7.542  -5.349  0.00  0.00    -0.082 C 
ATOM     10  N   UNL     1      -1.264  -7.460  -5.848  0.00  0.00    +0.379 N 
ATOM     11  C   UNL     1      -1.874  -6.192  -5.429  0.00  0.00    -0.082 C 
ATOM     12  C   UNL     1      -1.968  -6.149  -3.901  0.00  0.00    -0.010 C 
ATOM     13  H   UNL     1      -1.259  -7.512  -6.856  0.00  0.00    -0.086 HD
ATOM     14  H   UNL     1      -1.802  -8.229  -5.477  0.00  0.00    -0.086 HD
ENDROOT
BRANCH   1  18
ATOM     15  C   UNL     1      -1.212   1.205   0.197  0.00  0.00    +0.047 C 
ATOM     16  C   UNL     1      -0.552  -0.146   0.092  0.00  0.00    -0.015 A 
ATOM     17  C   UNL     1      -0.569  -0.829  -1.105  0.00  0.00    +0.019 A 
ATOM     18  C   UNL     1       0.043  -2.080  -1.201  0.00  0.00    +0.037 A 
ATOM     19  C   UNL     1       0.671  -2.632  -0.082  0.00  0.00    +0.016 A 
ATOM     20  C   UNL     1       0.682  -1.941   1.110  0.00  0.00    +0.039 A 
ATOM     21  C   UNL     1       0.077  -0.696   1.198  0.00  0.00    +0.126 A 
ATOM     22  F   UNL     1       0.095  -0.020   2.368  0.00  0.00    -0.205 F 
ENDBRANCH   1  18
BRANCH   5  23
ATOM     23  C   UNL     1      -0.031  -7.569  -1.228  0.00  0.00    +0.218 C 
ATOM     24  O   UNL     1       1.149  -7.603  -0.953  0.00  0.00    -0.275 OA
ATOM     25  N   UNL     1      -0.796  -8.664  -1.048  0.00  0.00    -0.312 N 
ATOM     26  H   UNL     1      -1.741  -8.637  -1.268  0.00  0.00    +0.149 HD
BRANCH  25  27
ATOM     27  C   UNL     1      -0.202  -9.895  -0.521  0.00  0.00    +0.070 C 
ATOM     28  C   UNL     1       0.417 -10.695  -1.669  0.00  0.00    +0.028 C 
BRANCH  27  29
ATOM     29  C   UNL     1      -1.285 -10.733   0.161  0.00  0.00    +0.022 C 
BRANCH  29  30
ATOM     30  C   UNL     1      -1.816  -9.984   1.384  0.00  0.00    +0.005 C 
BRANCH  30  31
ATOM     31  C   UNL     1      -2.899 -10.823   2.065  0.00  0.00    +0.034 C 
BRANCH  31  32
ATOM     32  C   UNL     1      -3.430 -10.073   3.289  0.00  0.00    +0.061 C 
ATOM     33  C   UNL     1      -4.423 -10.963   4.040  0.00  0.00    +0.041 C 
ATOM     34  C   UNL     1      -2.265  -9.715   4.213  0.00  0.00    +0.041 C 
BRANCH  32  35
ATOM     35  O   UNL     1      -4.088  -8.877   2.866  0.00  0.00    -0.389 OA
ATOM     36  H   UNL     1      -4.451  -8.350   3.591  0.00  0.00    +0.210 HD
ENDBRANCH  32  35
ENDBRANCH  31  32
ENDBRANCH  30  31
ENDBRANCH  29  30
ENDBRANCH  27  29
ENDBRANCH  25  27
ENDBRANCH   5  23
TORSDOF 8
