REMARK  Name = ZINC08682594
REMARK  8 active torsions:
REMARK  status: ('A' for Active; 'I' for Inactive)
REMARK    1  A    between atoms: C_4  and  C_7
REMARK    2  A    between atoms: C_7  and  C_8
REMARK    3  A    between atoms: C_8  and  N_9
REMARK    4  A    between atoms: C_10  and  C_12
REMARK    5  A    between atoms: C_12  and  N_13
REMARK    6  A    between atoms: N_21  and  C_24
REMARK    7  A    between atoms: C_24  and  C_25
REMARK    8  A    between atoms: C_28  and  N_31
REMARK                            x       y       z     vdW  Elec       q    Type
REMARK                         _______ _______ _______ _____ _____    ______ ____
ROOT
ATOM      1  N   UNL     1       7.806  -2.994   3.899  0.00  0.00    -0.251 N 
ATOM      2  C   UNL     1       8.576  -2.081   4.533  0.00  0.00    +0.271 A 
ATOM      3  O   UNL     1       8.908  -1.054   3.970  0.00  0.00    -0.266 OA
ATOM      4  C   UNL     1       8.986  -2.336   5.846  0.00  0.00    +0.100 A 
ATOM      5  C   UNL     1       8.616  -3.508   6.510  0.00  0.00    +0.066 A 
ATOM      6  C   UNL     1       9.111  -3.597   7.808  0.00  0.00    +0.034 A 
ATOM      7  C   UNL     1       9.872  -2.597   8.303  0.00  0.00    +0.048 A 
ATOM      8  S   UNL     1       9.964  -1.480   7.050  0.00  0.00    -0.090 S 
ATOM      9  N   UNL     1       7.816  -4.405   5.786  0.00  0.00    -0.288 N 
ATOM     10  C   UNL     1       7.439  -4.123   4.529  0.00  0.00    +0.333 A 
ATOM     11  O   UNL     1       6.741  -4.923   3.936  0.00  0.00    -0.246 OA
ENDROOT
BRANCH   1  12
ATOM     12  C   UNL     1       7.365  -2.749   2.524  0.00  0.00    +0.225 C 
BRANCH  12  14
ATOM     13  N   UNL     1       5.450  -1.678   1.382  0.00  0.00    -0.314 N 
ATOM     14  C   UNL     1       6.050  -2.013   2.541  0.00  0.00    +0.233 C 
ATOM     15  O   UNL     1       5.532  -1.722   3.599  0.00  0.00    -0.274 OA
ATOM     16  H   UNL     1       5.864  -1.911   0.536  0.00  0.00    +0.149 HD
BRANCH  13  17
ATOM     17  C   UNL     1       4.171  -0.963   1.399  0.00  0.00    +0.109 C 
BRANCH  17  18
ATOM     18  C   UNL     1       3.711  -0.707  -0.038  0.00  0.00    +0.054 C 
BRANCH  18  22
ATOM     19  C   UNL     1      -0.017   1.378   0.010  0.00  0.00    +0.000 A 
ATOM     20  C   UNL     1       1.171   2.086   0.002  0.00  0.00    +0.000 A 
ATOM     21  C   UNL     1       2.377   1.411  -0.013  0.00  0.00    +0.004 A 
ATOM     22  C   UNL     1       2.396   0.029  -0.020  0.00  0.00    -0.046 A 
ATOM     23  C   UNL     1       1.208  -0.679  -0.012  0.00  0.00    +0.004 A 
ATOM     24  C   UNL     1       0.002  -0.004   0.002  0.00  0.00    +0.000 A 
ENDBRANCH  18  22
ENDBRANCH  17  18
ENDBRANCH  13  17
ENDBRANCH  12  14
ENDBRANCH   1  12
BRANCH   9  25
ATOM     25  C   UNL     1       7.385  -5.658   6.409  0.00  0.00    +0.162 C 
BRANCH  25  26
ATOM     26  C   UNL     1       6.069  -5.442   7.112  0.00  0.00    -0.027 A 
ATOM     27  C   UNL     1       6.049  -5.041   8.434  0.00  0.00    +0.007 A 
ATOM     28  C   UNL     1       4.843  -4.843   9.079  0.00  0.00    +0.033 A 
ATOM     29  C   UNL     1       3.655  -5.046   8.401  0.00  0.00    +0.126 A 
ATOM     30  C   UNL     1       3.675  -5.447   7.078  0.00  0.00    +0.033 A 
ATOM     31  C   UNL     1       4.882  -5.641   6.432  0.00  0.00    +0.007 A 
BRANCH  29  32
ATOM     32  N   UNL     1       2.363  -4.835   9.091  0.00  0.00    +0.056 N 
ATOM     33  O   UNL     1       2.346  -4.485  10.248  0.00  0.00    -0.126 OA
ATOM     34  O   UNL     1       1.325  -5.013   8.498  0.00  0.00    -0.126 OA
ENDBRANCH  29  32
ENDBRANCH  25  26
ENDBRANCH   9  25
TORSDOF 8
