REMARK  Name = ZINC12497129
REMARK  6 active torsions:
REMARK  status: ('A' for Active; 'I' for Inactive)
REMARK    1  A    between atoms: C_1  and  O_2
REMARK    2  A    between atoms: O_2  and  C_3
REMARK    3  A    between atoms: C_3  and  C_5
REMARK    4  A    between atoms: C_5  and  C_30
REMARK    5  A    between atoms: C_10  and  C_12
REMARK    6  A    between atoms: N_21  and  C_24
REMARK                            x       y       z     vdW  Elec       q    Type
REMARK                         _______ _______ _______ _____ _____    ______ ____
ROOT
ATOM      1  C   UNL     1      -1.727   4.315  -0.355  0.00  0.00    +0.070 C 
ATOM      2  C   UNL     1      -0.675   3.313  -0.797  0.00  0.00    +0.090 C 
ATOM      3  C   UNL     1      -1.169   2.065   0.018  0.00  0.00    +0.078 C 
ATOM      4  C   UNL     1      -2.616   2.065  -0.228  0.00  0.00    -0.023 C 
ATOM      5  C   UNL     1      -0.014   1.208   0.009  0.00  0.00    +0.229 C 
ATOM      6  O   UNL     1       0.002  -0.004   0.002  0.00  0.00    -0.275 OA
ATOM      7  N   UNL     1       1.065   2.056   0.003  0.00  0.00    -0.210 N 
ATOM      8  C   UNL     1       0.718   3.353  -0.253  0.00  0.00    +0.229 C 
ATOM      9  O   UNL     1       1.402   4.338  -0.076  0.00  0.00    -0.275 OA
ATOM     10  N   UNL     1      -2.959   3.518  -0.115  0.00  0.00    +0.398 N 
ATOM     11  H   UNL     1      -3.670   3.760  -0.815  0.00  0.00    -0.083 HD
ATOM     12  H   UNL     1      -3.321   3.716   0.825  0.00  0.00    -0.083 HD
ENDROOT
BRANCH   4  13
ATOM     13  C   UNL     1      -3.344   1.255   0.813  0.00  0.00    -0.025 A 
ATOM     14  C   UNL     1      -3.882   1.878   1.923  0.00  0.00    +0.005 A 
ATOM     15  C   UNL     1      -4.551   1.135   2.878  0.00  0.00    +0.000 A 
ATOM     16  C   UNL     1      -4.683  -0.233   2.723  0.00  0.00    +0.003 A 
ATOM     17  C   UNL     1      -4.146  -0.858   1.614  0.00  0.00    +0.038 A 
ATOM     18  C   UNL     1      -3.480  -0.114   0.655  0.00  0.00    +0.125 A 
ATOM     19  F   UNL     1      -2.959  -0.724  -0.432  0.00  0.00    -0.205 F 
ENDBRANCH   4  13
BRANCH   7  20
ATOM     20  C   UNL     1       2.383   1.637   0.235  0.00  0.00    +0.044 A 
ATOM     21  C   UNL     1       3.421   2.558   0.207  0.00  0.00    +0.024 A 
ATOM     22  C   UNL     1       4.717   2.143   0.442  0.00  0.00    +0.002 A 
ATOM     23  C   UNL     1       4.983   0.810   0.695  0.00  0.00    +0.000 A 
ATOM     24  C   UNL     1       3.951  -0.111   0.718  0.00  0.00    +0.002 A 
ATOM     25  C   UNL     1       2.652   0.299   0.489  0.00  0.00    +0.024 A 
ENDBRANCH   7  20
BRANCH   1  26
ATOM     26  C   UNL     1      -1.962   5.333  -1.441  0.00  0.00    -0.047 A 
ATOM     27  C   UNL     1      -0.934   5.681  -2.297  0.00  0.00    +0.003 A 
ATOM     28  C   UNL     1      -1.151   6.612  -3.296  0.00  0.00    +0.000 A 
ATOM     29  C   UNL     1      -2.393   7.203  -3.431  0.00  0.00    +0.000 A 
ATOM     30  C   UNL     1      -3.420   6.860  -2.571  0.00  0.00    +0.000 A 
ATOM     31  C   UNL     1      -3.204   5.925  -1.576  0.00  0.00    +0.003 A 
ENDBRANCH   1  26
BRANCH   1  32
ATOM     32  C   UNL     1      -1.292   5.000   0.914  0.00  0.00    +0.301 C 
ATOM     33  O   UNL     1      -0.117   5.081   1.185  0.00  0.00    -0.252 OA
BRANCH  32  35
ATOM     34  C   UNL     1      -1.718   6.166   2.949  0.00  0.00    +0.280 C 
ATOM     35  O   UNL     1      -2.209   5.521   1.745  0.00  0.00    -0.469 OA
ENDBRANCH  32  35
ENDBRANCH   1  32
TORSDOF 5
