REMARK  Name = ZINC44019265
REMARK  14 active torsions:
REMARK  status: ('A' for Active; 'I' for Inactive)
REMARK    1  A    between atoms: C_1  and  C_2
REMARK    2  A    between atoms: C_2  and  C_3
REMARK    3  A    between atoms: C_3  and  O_5
REMARK    4  A    between atoms: O_5  and  C_6
REMARK    5  A    between atoms: C_6  and  C_7
REMARK    6  A    between atoms: C_7  and  C_9
REMARK    7  A    between atoms: C_9  and  O_36
REMARK    8  A    between atoms: C_10  and  C_35
REMARK    9  A    between atoms: C_15  and  C_34
REMARK   10  A    between atoms: C_17  and  O_33
REMARK   11  A    between atoms: C_30  and  C_31
REMARK   12  A    between atoms: O_36  and  C_37
REMARK   13  A    between atoms: C_37  and  C_39
REMARK   14  A    between atoms: C_39  and  C_40
REMARK                            x       y       z     vdW  Elec       q    Type
REMARK                         _______ _______ _______ _____ _____    ______ ____
ROOT
ATOM      1  C   UNL     1       2.345  -4.351  -4.195  0.00  0.00    +0.182 C 
ATOM      2  C   UNL     1       1.296  -4.475  -5.328  0.00  0.00    +0.038 C 
ATOM      3  C   UNL     1       1.015  -5.992  -5.501  0.00  0.00    +0.012 C 
ATOM      4  C   UNL     1       2.290  -6.642  -4.952  0.00  0.00    +0.005 C 
ATOM      5  C   UNL     1       2.568  -5.775  -3.695  0.00  0.00    +0.021 C 
ATOM      6  C   UNL     1       3.969  -6.113  -3.220  0.00  0.00    +0.044 C 
ATOM      7  C   UNL     1       3.955  -7.584  -2.776  0.00  0.00    +0.137 C 
ATOM      8  C   UNL     1       3.506  -8.509  -3.903  0.00  0.00    +0.086 C 
ATOM      9  C   UNL     1       2.154  -8.085  -4.501  0.00  0.00    +0.018 C 
ATOM     10  C   UNL     1       1.805  -8.973  -5.697  0.00  0.00    +0.010 C 
ATOM     11  C   UNL     1       1.630 -10.422  -5.231  0.00  0.00    +0.032 C 
ATOM     12  C   UNL     1       2.893 -10.838  -4.500  0.00  0.00    -0.055 C 
ATOM     13  C   UNL     1       3.499 -11.962  -4.856  0.00  0.00    +0.051 C 
ATOM     14  C   UNL     1       4.737 -12.389  -4.185  0.00  0.00    +0.179 C 
ATOM     15  O   UNL     1       5.276 -13.439  -4.482  0.00  0.00    -0.288 OA
ATOM     16  C   UNL     1       5.310 -11.516  -3.147  0.00  0.00    +0.047 C 
ATOM     17  C   UNL     1       4.684 -10.402  -2.803  0.00  0.00    -0.011 C 
ATOM     18  C   UNL     1       3.387  -9.939  -3.368  0.00  0.00    +0.029 C 
ATOM     19  C   UNL     1       2.351  -9.931  -2.242  0.00  0.00    +0.022 C 
ATOM     20 CL   UNL     1       4.731  -8.470  -5.226  0.00  0.00    -0.114 Cl
ATOM     21  C   UNL     1       1.552  -6.106  -2.601  0.00  0.00    +0.016 C 
ATOM     22  C   UNL     1       1.856  -3.891  -6.627  0.00  0.00    +0.012 C 
ENDROOT
BRANCH   1  23
ATOM     23  C   UNL     1       1.812  -3.485  -3.082  0.00  0.00    +0.214 C 
ATOM     24  O   UNL     1       0.623  -3.300  -2.978  0.00  0.00    -0.289 OA
BRANCH  23  25
ATOM     25  C   UNL     1       2.763  -2.850  -2.100  0.00  0.00    +0.310 C 
BRANCH  25  26
ATOM     26  O   UNL     1       2.034  -1.995  -1.217  0.00  0.00    -0.457 OA
BRANCH  26  27
ATOM     27  C   UNL     1       2.739  -1.349  -0.275  0.00  0.00    +0.307 C 
ATOM     28  O   UNL     1       3.935  -1.504  -0.203  0.00  0.00    -0.251 OA
BRANCH  27  30
ATOM     29  C   UNL     1       3.064   0.175   1.653  0.00  0.00    +0.015 C 
ATOM     30  C   UNL     1       2.039  -0.430   0.692  0.00  0.00    +0.117 C 
ENDBRANCH  27  30
ENDBRANCH  26  27
ENDBRANCH  25  26
ENDBRANCH  23  25
ENDBRANCH   1  23
BRANCH   7  31
ATOM     31  O   UNL     1       5.271  -7.959  -2.363  0.00  0.00    -0.390 OA
ATOM     32  H   UNL     1       5.615  -7.437  -1.626  0.00  0.00    +0.210 HD
ENDBRANCH   7  31
BRANCH   1  33
ATOM     33  O   UNL     1       3.564  -3.808  -4.703  0.00  0.00    -0.449 OA
BRANCH  33  34
ATOM     34  C   UNL     1       3.542  -2.526  -5.100  0.00  0.00    +0.308 C 
ATOM     35  O   UNL     1       2.547  -1.859  -4.933  0.00  0.00    -0.251 OA
BRANCH  34  36
ATOM     36  C   UNL     1       4.756  -1.917  -5.753  0.00  0.00    +0.117 C 
ATOM     37  C   UNL     1       4.467  -0.456  -6.105  0.00  0.00    +0.015 C 
ENDBRANCH  34  36
ENDBRANCH  33  34
ENDBRANCH   1  33
TORSDOF 9
