REMARK  Name = ZINC58457263
REMARK  4 active torsions:
REMARK  status: ('A' for Active; 'I' for Inactive)
REMARK    1  A    between atoms: C_3  and  C_23
REMARK    2  A    between atoms: C_5  and  O_7
REMARK    3  A    between atoms: O_7  and  C_8
REMARK    4  A    between atoms: C_8  and  C_9
REMARK                            x       y       z     vdW  Elec       q    Type
REMARK                         _______ _______ _______ _____ _____    ______ ____
ROOT
ATOM      1  C   UNL     1       0.167  -4.199  -0.023  0.00  0.00    +0.257 C 
ATOM      2  O   UNL     1       1.290  -4.651  -0.103  0.00  0.00    -0.272 OA
ATOM      3  N   UNL     1      -0.889  -5.029   0.084  0.00  0.00    -0.268 N 
ATOM      4  C   UNL     1      -2.259  -4.498   0.096  0.00  0.00    +0.114 C 
ATOM      5  C   UNL     1      -3.029  -5.215   1.213  0.00  0.00    +0.024 C 
ATOM      6  C   UNL     1      -3.107  -6.705   0.881  0.00  0.00    +0.038 C 
ATOM      7  C   UNL     1      -1.738  -7.248   0.568  0.00  0.00    -0.023 A 
ATOM      8  C   UNL     1      -0.698  -6.416   0.181  0.00  0.00    +0.042 A 
ATOM      9  C   UNL     1       0.551  -6.948  -0.111  0.00  0.00    +0.065 A 
ATOM     10  C   UNL     1       0.762  -8.312  -0.019  0.00  0.00    +0.160 A 
ATOM     11  C   UNL     1      -0.277  -9.146   0.365  0.00  0.00    +0.159 A 
ATOM     12  C   UNL     1      -1.521  -8.613   0.665  0.00  0.00    +0.046 A 
ATOM     13  F   UNL     1      -0.074 -10.478   0.457  0.00  0.00    -0.202 F 
ATOM     14  F   UNL     1       1.976  -8.830  -0.303  0.00  0.00    -0.202 F 
ENDROOT
BRANCH   1  15
ATOM     15  C   UNL     1      -0.046  -2.707  -0.043  0.00  0.00    +0.325 C 
BRANCH  15  16
ATOM     16  O   UNL     1       1.220  -2.044  -0.046  0.00  0.00    -0.483 OA
BRANCH  16  21
ATOM     17  C   UNL     1      -0.027   1.377  -0.097  0.00  0.00    +0.004 A 
ATOM     18  C   UNL     1       1.155   2.090  -0.101  0.00  0.00    +0.013 A 
ATOM     19  C   UNL     1       2.376   1.415  -0.086  0.00  0.00    +0.040 A 
ATOM     20  C   UNL     1       2.396   0.020  -0.068  0.00  0.00    +0.058 A 
ATOM     21  C   UNL     1       1.205  -0.685  -0.064  0.00  0.00    +0.122 A 
ATOM     22  C   UNL     1      -0.006  -0.005  -0.078  0.00  0.00    +0.046 A 
BRANCH  19  23
ATOM     23  C   UNL     1       3.644   2.175  -0.091  0.00  0.00    +0.242 C 
ATOM     24  O   UNL     1       4.707   1.585  -0.078  0.00  0.00    -0.270 OA
ATOM     25  N   UNL     1       3.622   3.522  -0.110  0.00  0.00    -0.325 N 
ATOM     26  H   UNL     1       2.775   3.994  -0.120  0.00  0.00    +0.145 HD
ATOM     27  H   UNL     1       4.454   4.021  -0.113  0.00  0.00    +0.145 HD
ENDBRANCH  19  23
ENDBRANCH  16  21
ENDBRANCH  15  16
ENDBRANCH   1  15
TORSDOF 4
