REMARK  Name = ZINC63111090
REMARK  8 active torsions:
REMARK  status: ('A' for Active; 'I' for Inactive)
REMARK    1  A    between atoms: C_1  and  C_2
REMARK    2  A    between atoms: C_2  and  C_3
REMARK    3  A    between atoms: C_2  and  C_4
REMARK    4  A    between atoms: C_2  and  O_5
REMARK    5  A    between atoms: O_5  and  C_6
REMARK    6  A    between atoms: C_6  and  C_8
REMARK    7  A    between atoms: C_9  and  N_29
REMARK    8  A    between atoms: C_21  and  C_23
REMARK                            x       y       z     vdW  Elec       q    Type
REMARK                         _______ _______ _______ _____ _____    ______ ____
ROOT
ATOM      1  C   UNL     1       2.671  -0.496  -2.471  0.00  0.00    +0.105 C 
ATOM      2  C   UNL     1       3.932  -0.033  -2.672  0.00  0.00    +0.195 C 
ATOM      3  O   UNL     1       4.655  -0.409  -3.739  0.00  0.00    -0.441 OA
ATOM      4  C   UNL     1       4.037  -0.923  -4.830  0.00  0.00    +0.142 A 
ATOM      5  C   UNL     1       4.715  -0.924  -6.069  0.00  0.00    +0.025 A 
ATOM      6  C   UNL     1       6.014  -0.405  -6.186  0.00  0.00    +0.012 A 
ATOM      7  C   UNL     1       6.640  -0.422  -7.395  0.00  0.00    +0.001 A 
ATOM      8  C   UNL     1       6.010  -0.947  -8.522  0.00  0.00    +0.001 A 
ATOM      9  C   UNL     1       4.751  -1.458  -8.446  0.00  0.00    +0.008 A 
ATOM     10  C   UNL     1       4.074  -1.458  -7.214  0.00  0.00    -0.014 A 
ATOM     11  C   UNL     1       2.774  -1.977  -7.094  0.00  0.00    +0.009 A 
ATOM     12  C   UNL     1       2.151  -1.962  -5.885  0.00  0.00    +0.009 A 
ATOM     13  C   UNL     1       2.776  -1.438  -4.752  0.00  0.00    +0.008 A 
ATOM     14  C   UNL     1       2.036  -1.456  -3.437  0.00  0.00    +0.096 C 
ENDROOT
BRANCH  14  15
ATOM     15  C   UNL     1       2.075  -2.846  -2.856  0.00  0.00    -0.017 A 
ATOM     16  C   UNL     1       0.899  -3.547  -2.634  0.00  0.00    +0.007 A 
ATOM     17  C   UNL     1       0.983  -4.823  -2.098  0.00  0.00    +0.020 A 
ATOM     18  C   UNL     1       2.227  -5.350  -1.805  0.00  0.00    +0.111 A 
ATOM     19  N   UNL     1       3.324  -4.655  -2.030  0.00  0.00    -0.263 NA
ATOM     20  C   UNL     1       3.283  -3.441  -2.544  0.00  0.00    +0.115 A 
ENDBRANCH  14  15
BRANCH   2  21
ATOM     21  N   UNL     1       4.478   0.837  -1.767  0.00  0.00    -0.329 N 
ATOM     22  H   UNL     1       3.997   1.057  -0.954  0.00  0.00    +0.145 HD
ATOM     23  H   UNL     1       5.347   1.233  -1.938  0.00  0.00    +0.145 HD
ENDBRANCH   2  21
BRANCH   1  24
ATOM     24  C   UNL     1       1.953  -0.076  -1.343  0.00  0.00    +0.341 C 
ATOM     25  O   UNL     1       1.101   0.789  -1.450  0.00  0.00    -0.245 OA
BRANCH  24  26
ATOM     26  O   UNL     1       2.204  -0.630  -0.137  0.00  0.00    -0.456 OA
BRANCH  26  28
ATOM     27  C   UNL     1      -0.050  -0.405   0.704  0.00  0.00    +0.055 C 
ATOM     28  C   UNL     1       1.435  -0.154   0.969  0.00  0.00    +0.106 C 
ATOM     29  C   UNL     1       1.674   1.347   1.149  0.00  0.00    +0.055 C 
ATOM     30  C   UNL     1       1.858  -0.893   2.240  0.00  0.00    +0.055 C 
ENDBRANCH  26  28
ENDBRANCH  24  26
ENDBRANCH   1  24
TORSDOF 5
