REMARK  Name = ZINC20256026
REMARK  14 active torsions:
REMARK  status: ('A' for Active; 'I' for Inactive)
REMARK    1  A    between atoms: C_1  and  C_2
REMARK    2  A    between atoms: C_3  and  C_8
REMARK    3  A    between atoms: N_5  and  C_7
REMARK    4  A    between atoms: C_8  and  N_9
REMARK    5  A    between atoms: N_9  and  C_10
REMARK    6  A    between atoms: N_9  and  C_11
REMARK    7  A    between atoms: C_11  and  C_13
REMARK    8  A    between atoms: C_11  and  C_21
REMARK    9  A    between atoms: C_13  and  C_14
REMARK   10  A    between atoms: N_24  and  C_27
REMARK   11  A    between atoms: C_27  and  C_28
REMARK   12  A    between atoms: C_31  and  O_35
REMARK   13  A    between atoms: C_33  and  O_34
REMARK   14  A    between atoms: O_35  and  C_36
REMARK                            x       y       z     vdW  Elec       q    Type
REMARK                         _______ _______ _______ _____ _____    ______ ____
ROOT
ATOM      1  C   UNL     1       0.067   1.084   1.760  0.00  0.00    +0.064 C 
ENDROOT
BRANCH   1   2
ATOM      2  C   UNL     1      -0.968   1.809   0.897  0.00  0.00    +0.003 C 
ATOM      3  C   UNL     1      -0.612   1.638  -0.582  0.00  0.00    -0.014 C 
ATOM      4  C   UNL     1      -1.615   2.415  -1.437  0.00  0.00    -0.078 C 
ATOM      5  N   UNL     1      -1.577   3.836  -1.068  0.00  0.00    +0.382 N 
ATOM      6  C   UNL     1      -1.962   4.030   0.336  0.00  0.00    -0.078 C 
ATOM      7  C   UNL     1      -0.970   3.300   1.244  0.00  0.00    -0.014 C 
ATOM      8  H   UNL     1      -0.540   4.185  -1.182  0.00  0.00    -0.081 HD
BRANCH   5   9
ATOM      9  C   UNL     1      -2.426   4.635  -1.962  0.00  0.00    -0.039 C 
BRANCH   9  10
ATOM     10  C   UNL     1      -2.175   6.101  -1.715  0.00  0.00    -0.022 A 
ATOM     11  C   UNL     1      -3.051   6.829  -0.932  0.00  0.00    +0.009 A 
ATOM     12  C   UNL     1      -2.825   8.172  -0.704  0.00  0.00    +0.046 A 
ATOM     13  C   UNL     1      -1.715   8.794  -1.260  0.00  0.00    +0.124 A 
ATOM     14  C   UNL     1      -0.835   8.066  -2.045  0.00  0.00    +0.091 A 
ATOM     15  C   UNL     1      -1.062   6.716  -2.268  0.00  0.00    +0.122 A 
BRANCH  15  16
ATOM     16  O   UNL     1      -0.198   5.999  -3.033  0.00  0.00    -0.506 OA
ATOM     17  H   UNL     1       0.685   6.488  -3.472  0.00  0.00    +0.292 HD
ENDBRANCH  15  16
BRANCH  13  18
ATOM     18  O   UNL     1      -1.492  10.115  -1.035  0.00  0.00    -0.495 OA
ATOM     19  C   UNL     1      -2.440  10.803  -0.216  0.00  0.00    +0.277 C 
ENDBRANCH  13  18
ENDBRANCH   9  10
ENDBRANCH   5   9
ENDBRANCH   1   2
BRANCH   1  20
ATOM     20  N   UNL     1      -0.331   1.161   3.171  0.00  0.00    -0.298 NA
ATOM     21  C   UNL     1       0.347   0.129   3.967  0.00  0.00    +0.105 C 
BRANCH  20  22
ATOM     22  C   UNL     1      -1.790   1.060   3.313  0.00  0.00    +0.123 C 
BRANCH  22  25
ATOM     23  C   UNL     1      -1.784   3.769   4.957  0.00  0.00    +0.068 C 
ATOM     24  C   UNL     1      -2.164   2.412   5.490  0.00  0.00    +0.064 A 
ATOM     25  C   UNL     1      -2.166   1.217   4.764  0.00  0.00    +0.007 A 
ATOM     26  C   UNL     1      -2.560   0.225   5.596  0.00  0.00    +0.113 A 
ATOM     27  N   UNL     1      -2.804   0.774   6.804  0.00  0.00    -0.274 N 
ATOM     28  N   UNL     1      -2.552   2.148   6.712  0.00  0.00    -0.176 NA
ATOM     29  C   UNL     1      -3.254   0.058   8.001  0.00  0.00    +0.172 C 
ENDBRANCH  22  25
ENDBRANCH  20  22
ENDBRANCH   1  20
BRANCH   1  30
ATOM     30  C   UNL     1       1.435   1.746   1.579  0.00  0.00    +0.057 C 
BRANCH  30  31
ATOM     31  C   UNL     1       2.484   0.933   2.293  0.00  0.00    -0.011 A 
ATOM     32  C   UNL     1       3.038   1.400   3.470  0.00  0.00    +0.006 A 
ATOM     33  C   UNL     1       3.997   0.652   4.128  0.00  0.00    +0.000 A 
ATOM     34  C   UNL     1       4.411  -0.558   3.603  0.00  0.00    +0.003 A 
ATOM     35  C   UNL     1       3.862  -1.024   2.424  0.00  0.00    +0.038 A 
ATOM     36  C   UNL     1       2.898  -0.279   1.767  0.00  0.00    +0.127 A 
ATOM     37  F   UNL     1       2.362  -0.733   0.613  0.00  0.00    -0.205 F 
ENDBRANCH  30  31
ENDBRANCH   1  30
TORSDOF 10
