REMARK  Name = ZINC65549506
REMARK  5 active torsions:
REMARK  status: ('A' for Active; 'I' for Inactive)
REMARK    1  A    between atoms: C_6  and  C_10
REMARK    2  A    between atoms: C_13  and  N_16
REMARK    3  A    between atoms: C_22  and  C_27
REMARK    4  A    between atoms: C_27  and  C_29
REMARK    5  A    between atoms: C_33  and  N_35
REMARK                            x       y       z     vdW  Elec       q    Type
REMARK                         _______ _______ _______ _____ _____    ______ ____
ROOT
ATOM      1  N   UNL     1       5.300  -5.165   4.279  0.00  0.00    -0.202 N 
ATOM      2  C   UNL     1       6.199  -4.639   5.131  0.00  0.00    +0.258 C 
ATOM      3  O   UNL     1       6.863  -3.642   4.935  0.00  0.00    -0.269 OA
ATOM      4  C   UNL     1       6.242  -5.481   6.348  0.00  0.00    +0.050 A 
ATOM      5  C   UNL     1       6.962  -5.430   7.531  0.00  0.00    +0.014 A 
ATOM      6  C   UNL     1       6.766  -6.398   8.501  0.00  0.00    +0.012 A 
ATOM      7  C   UNL     1       5.847  -7.427   8.293  0.00  0.00    +0.023 A 
ATOM      8  C   UNL     1       5.116  -7.486   7.101  0.00  0.00    +0.025 A 
ATOM      9  C   UNL     1       5.311  -6.518   6.131  0.00  0.00    +0.050 A 
ATOM     10  C   UNL     1       4.730  -6.268   4.795  0.00  0.00    +0.258 C 
ATOM     11  O   UNL     1       3.882  -6.947   4.253  0.00  0.00    -0.269 OA
ENDROOT
BRANCH   1  15
ATOM     12  C   UNL     1       4.390  -3.572   0.536  0.00  0.00    -0.005 A 
ATOM     13  C   UNL     1       5.336  -2.958   1.336  0.00  0.00    +0.009 A 
ATOM     14  C   UNL     1       5.639  -3.483   2.577  0.00  0.00    +0.024 A 
ATOM     15  C   UNL     1       4.994  -4.629   3.021  0.00  0.00    +0.045 A 
ATOM     16  C   UNL     1       4.045  -5.244   2.215  0.00  0.00    +0.024 A 
ATOM     17  C   UNL     1       3.741  -4.711   0.978  0.00  0.00    +0.009 A 
BRANCH  12  23
ATOM     18  C   UNL     1       0.426  -0.325  -1.697  0.00  0.00    +0.002 A 
ATOM     19  C   UNL     1       1.390   0.681  -1.503  0.00  0.00    +0.002 A 
ATOM     20  C   UNL     1       2.676   0.407  -1.208  0.00  0.00    +0.027 A 
ATOM     21  C   UNL     1       3.108  -0.992  -1.078  0.00  0.00    +0.060 A 
ATOM     22  N   UNL     1       4.257  -1.542  -0.807  0.00  0.00    -0.360 N 
ATOM     23  C   UNL     1       4.061  -2.997  -0.818  0.00  0.00    +0.206 C 
ATOM     24  N   UNL     1       2.645  -3.223  -1.131  0.00  0.00    -0.360 N 
ATOM     25  C   UNL     1       2.088  -2.056  -1.283  0.00  0.00    +0.060 A 
ATOM     26  C   UNL     1       0.716  -1.638  -1.601  0.00  0.00    +0.027 A 
ATOM     27  H   UNL     1       5.089  -1.076  -0.632  0.00  0.00    +0.162 HD
ATOM     28  H   UNL     1       2.204  -4.083  -1.210  0.00  0.00    +0.162 HD
ENDBRANCH  12  23
ENDBRANCH   1  15
BRANCH   7  29
ATOM     29  C   UNL     1       5.644  -8.457   9.335  0.00  0.00    +0.193 C 
ATOM     30  O   UNL     1       6.172  -8.334  10.422  0.00  0.00    -0.287 OA
BRANCH  29  31
ATOM     31  C   UNL     1       4.799  -9.636   9.053  0.00  0.00    +0.024 A 
ATOM     32  C   UNL     1       4.771 -10.189   7.770  0.00  0.00    +0.012 A 
ATOM     33  C   UNL     1       3.981 -11.290   7.515  0.00  0.00    +0.003 A 
ATOM     34  C   UNL     1       3.217 -11.847   8.525  0.00  0.00    +0.033 A 
ATOM     35  C   UNL     1       3.239 -11.304   9.798  0.00  0.00    +0.127 A 
ATOM     36  C   UNL     1       4.030 -10.207  10.070  0.00  0.00    +0.044 A 
BRANCH  35  37
ATOM     37  N   UNL     1       2.418 -11.906  10.873  0.00  0.00    +0.056 N 
ATOM     38  O   UNL     1       1.729 -12.871  10.637  0.00  0.00    -0.126 OA
ATOM     39  O   UNL     1       2.437 -11.433  11.985  0.00  0.00    -0.126 OA
ENDBRANCH  35  37
ENDBRANCH  29  31
ENDBRANCH   7  29
TORSDOF 5
