REMARK  Name = ZINC54617628
REMARK  13 active torsions:
REMARK  status: ('A' for Active; 'I' for Inactive)
REMARK    1  A    between atoms: C_1  and  C_2
REMARK    2  A    between atoms: C_2  and  S_3
REMARK    3  A    between atoms: S_3  and  C_4
REMARK    4  A    between atoms: C_9  and  C_26
REMARK    5  A    between atoms: C_11  and  C_15
REMARK    6  A    between atoms: C_12  and  C_14
REMARK    7  A    between atoms: N_17  and  C_18
REMARK    8  A    between atoms: C_22  and  C_25
REMARK    9  A    between atoms: C_23  and  C_24
REMARK   10  A    between atoms: C_28  and  N_35
REMARK   11  A    between atoms: C_29  and  O_34
REMARK   12  A    between atoms: C_30  and  O_32
REMARK   13  A    between atoms: O_32  and  C_33
REMARK                            x       y       z     vdW  Elec       q    Type
REMARK                         _______ _______ _______ _____ _____    ______ ____
ROOT
ATOM      1  C   UNL     1      -0.228  -2.299   0.901  0.00  0.00    +0.210 A 
ATOM      2  N   UNL     1       0.799  -2.983   0.377  0.00  0.00    -0.187 NA
ATOM      3  C   UNL     1       0.471  -4.241   0.262  0.00  0.00    +0.219 A 
ATOM      4  N   UNL     1      -0.798  -4.389   0.715  0.00  0.00    -0.220 N 
ATOM      5  N   UNL     1      -1.224  -3.127   1.128  0.00  0.00    -0.141 NA
ATOM      6  C   UNL     1      -1.507  -5.665   0.730  0.00  0.00    +0.177 C 
ATOM      7  C   UNL     1      -0.534  -6.783   0.464  0.00  0.00    +0.060 C 
ATOM      8  C   UNL     1       0.714  -6.576   0.019  0.00  0.00    +0.018 C 
ATOM      9  N   UNL     1       1.207  -5.316  -0.218  0.00  0.00    -0.287 N 
ATOM     10  C   UNL     1       1.606  -7.766  -0.227  0.00  0.00    +0.061 C 
ATOM     11  H   UNL     1       2.037  -5.183  -0.702  0.00  0.00    +0.155 HD
ENDROOT
BRANCH   6  12
ATOM     12  C   UNL     1      -2.572  -5.662  -0.336  0.00  0.00    -0.013 A 
ATOM     13  C   UNL     1      -2.234  -5.385  -1.648  0.00  0.00    +0.042 A 
ATOM     14  C   UNL     1      -3.207  -5.380  -2.630  0.00  0.00    +0.171 A 
ATOM     15  C   UNL     1      -4.525  -5.653  -2.300  0.00  0.00    +0.189 A 
ATOM     16  C   UNL     1      -4.865  -5.932  -0.980  0.00  0.00    +0.164 A 
ATOM     17  C   UNL     1      -3.884  -5.940  -0.002  0.00  0.00    +0.055 A 
BRANCH  14  18
ATOM     18  N   UNL     1      -2.841  -5.082  -4.033  0.00  0.00    +0.060 N 
ATOM     19  O   UNL     1      -1.691  -4.844  -4.320  0.00  0.00    -0.126 OA
ATOM     20  O   UNL     1      -3.692  -5.078  -4.892  0.00  0.00    -0.126 OA
ENDBRANCH  14  18
BRANCH  16  21
ATOM     21  O   UNL     1      -6.157  -6.201  -0.652  0.00  0.00    -0.491 OA
ATOM     22  C   UNL     1      -6.448  -6.394   0.734  0.00  0.00    +0.277 C 
ENDBRANCH  16  21
BRANCH  15  23
ATOM     23  O   UNL     1      -5.483  -5.649  -3.265  0.00  0.00    -0.502 OA
ATOM     24  H   UNL     1      -5.619  -6.507  -3.689  0.00  0.00    +0.292 HD
ENDBRANCH  15  23
ENDBRANCH   6  12
BRANCH   7  25
ATOM     25  C   UNL     1      -0.956  -8.114   0.693  0.00  0.00    +0.248 C 
ATOM     26  O   UNL     1      -0.957  -8.566   1.824  0.00  0.00    -0.270 OA
ATOM     27  N   UNL     1      -1.357  -8.881  -0.340  0.00  0.00    -0.281 N 
ATOM     28  H   UNL     1      -1.428  -8.499  -1.229  0.00  0.00    +0.155 HD
BRANCH  27  29
ATOM     29  C   UNL     1      -1.672 -10.227  -0.130  0.00  0.00    +0.037 A 
ATOM     30  C   UNL     1      -2.407 -10.604   0.987  0.00  0.00    +0.023 A 
ATOM     31  C   UNL     1      -2.716 -11.934   1.192  0.00  0.00    +0.002 A 
ATOM     32  C   UNL     1      -2.294 -12.891   0.286  0.00  0.00    +0.004 A 
ATOM     33  C   UNL     1      -1.562 -12.519  -0.826  0.00  0.00    -0.046 A 
ATOM     34  C   UNL     1      -1.254 -11.190  -1.040  0.00  0.00    -0.026 A 
ATOM     35  C   UNL     1      -0.462 -10.784  -2.256  0.00  0.00    +0.046 C 
ATOM     36  C   UNL     1      -1.104 -13.565  -1.810  0.00  0.00    +0.044 C 
ENDBRANCH  27  29
ENDBRANCH   7  25
BRANCH   1  37
ATOM     37  S   UNL     1      -0.239  -0.569   1.239  0.00  0.00    -0.085 S 
BRANCH  37  39
ATOM     38  C   UNL     1       1.530   1.497   0.951  0.00  0.00    +0.016 C 
ATOM     39  C   UNL     1       1.403  -0.008   0.710  0.00  0.00    +0.074 C 
ENDBRANCH  37  39
ENDBRANCH   1  37
TORSDOF 8
