REMARK  Name = ZINC60155931
REMARK  14 active torsions:
REMARK  status: ('A' for Active; 'I' for Inactive)
REMARK    1  A    between atoms: C_1  and  C_2
REMARK    2  A    between atoms: C_2  and  N_3
REMARK    3  A    between atoms: C_4  and  C_26
REMARK    4  A    between atoms: C_7  and  S_8
REMARK    5  A    between atoms: S_8  and  C_9
REMARK    6  A    between atoms: C_9  and  C_10
REMARK    7  A    between atoms: N_12  and  C_13
REMARK    8  A    between atoms: C_13  and  C_14
REMARK    9  A    between atoms: C_14  and  C_16
REMARK   10  A    between atoms: C_14  and  N_23
REMARK   11  A    between atoms: C_19  and  C_22
REMARK   12  A    between atoms: N_23  and  C_24
REMARK   13  A    between atoms: N_23  and  C_25
REMARK   14  A    between atoms: C_30  and  C_32
REMARK                            x       y       z     vdW  Elec       q    Type
REMARK                         _______ _______ _______ _____ _____    ______ ____
ROOT
ATOM      1  C   UNL     1       6.039  -0.624  -0.449  0.00  0.00    +0.223 C 
ATOM      2  O   UNL     1       5.768  -0.182   0.648  0.00  0.00    -0.275 OA
ATOM      3  N   UNL     1       7.325  -0.839  -0.789  0.00  0.00    -0.316 N 
ATOM      4  H   UNL     1       7.542  -1.192  -1.666  0.00  0.00    +0.149 HD
ENDROOT
BRANCH   1   5
ATOM      5  C   UNL     1       4.938  -0.933  -1.430  0.00  0.00    +0.173 C 
BRANCH   5   6
ATOM      6  S   UNL     1       3.333  -0.540  -0.681  0.00  0.00    -0.077 S 
BRANCH   6  11
ATOM      7  N   UNL     1       0.808  -0.829  -1.849  0.00  0.00    -0.302 N 
ATOM      8  C   UNL     1       0.319  -1.261  -3.061  0.00  0.00    +0.165 A 
ATOM      9  N   UNL     1       1.352  -1.612  -3.790  0.00  0.00    -0.128 NA
ATOM     10  N   UNL     1       2.439  -1.432  -3.127  0.00  0.00    -0.122 NA
ATOM     11  C   UNL     1       2.165  -0.950  -1.935  0.00  0.00    +0.192 A 
BRANCH   8  12
ATOM     12  C   UNL     1      -1.102  -1.318  -3.465  0.00  0.00    +0.020 A 
ATOM     13  C   UNL     1      -2.054  -0.550  -2.792  0.00  0.00    +0.011 A 
ATOM     14  C   UNL     1      -3.378  -0.609  -3.174  0.00  0.00    +0.001 A 
ATOM     15  C   UNL     1      -3.764  -1.426  -4.221  0.00  0.00    +0.003 A 
ATOM     16  C   UNL     1      -2.825  -2.190  -4.893  0.00  0.00    -0.050 A 
ATOM     17  C   UNL     1      -1.497  -2.136  -4.524  0.00  0.00    +0.015 A 
ATOM     18  C   UNL     1      -3.254  -3.077  -6.032  0.00  0.00    +0.044 C 
ENDBRANCH   8  12
BRANCH   7  20
ATOM     19  C   UNL     1      -0.071   1.188  -0.781  0.00  0.00    +0.027 C 
ATOM     20  C   UNL     1       0.034  -0.337  -0.707  0.00  0.00    +0.122 C 
ENDBRANCH   7  20
ENDBRANCH   6  11
ENDBRANCH   5   6
ENDBRANCH   1   5
BRANCH   3  21
ATOM     21  C   UNL     1       8.396  -0.539   0.165  0.00  0.00    +0.093 C 
BRANCH  21  22
ATOM     22  C   UNL     1       9.753  -0.745  -0.511  0.00  0.00    -0.021 C 
BRANCH  22  23
ATOM     23  C   UNL     1       9.914   0.250  -1.631  0.00  0.00    -0.059 A 
ATOM     24  C   UNL     1      10.294   1.549  -1.352  0.00  0.00    +0.002 A 
ATOM     25  C   UNL     1      10.442   2.462  -2.380  0.00  0.00    +0.003 A 
ATOM     26  C   UNL     1      10.208   2.075  -3.686  0.00  0.00    -0.050 A 
ATOM     27  C   UNL     1       9.828   0.776  -3.965  0.00  0.00    +0.003 A 
ATOM     28  C   UNL     1       9.685  -0.138  -2.938  0.00  0.00    +0.002 A 
ATOM     29  C   UNL     1      10.367   3.071  -4.807  0.00  0.00    +0.044 C 
ENDBRANCH  22  23
BRANCH  22  30
ATOM     30  N   UNL     1      10.825  -0.550   0.475  0.00  0.00    +0.382 N 
ATOM     31  C   UNL     1      10.712  -1.567   1.529  0.00  0.00    -0.096 C 
ATOM     32  C   UNL     1      12.129  -0.676  -0.189  0.00  0.00    -0.096 C 
ATOM     33  H   UNL     1      10.743   0.369   0.883  0.00  0.00    -0.082 HD
ENDBRANCH  22  30
ENDBRANCH  21  22
ENDBRANCH   3  21
TORSDOF 9
