REMARK  Name = ZINC43093117
REMARK  6 active torsions:
REMARK  status: ('A' for Active; 'I' for Inactive)
REMARK    1  A    between atoms: C_1  and  C_2
REMARK    2  A    between atoms: C_2  and  C_4
REMARK    3  A    between atoms: C_2  and  N_23
REMARK    4  A    between atoms: C_4  and  C_6
REMARK    5  A    between atoms: C_4  and  N_13
REMARK    6  A    between atoms: C_18  and  C_20
REMARK                            x       y       z     vdW  Elec       q    Type
REMARK                         _______ _______ _______ _____ _____    ______ ____
ROOT
ATOM      1  C   UNL     1       0.318  -0.035   0.517  0.00  0.00    +0.074 C 
ENDROOT
BRANCH   1   2
ATOM      2  C   UNL     1       1.533   0.724   0.050  0.00  0.00    -0.018 A 
ATOM      3  C   UNL     1       1.553   2.105   0.114  0.00  0.00    +0.006 A 
ATOM      4  C   UNL     1       2.667   2.801  -0.314  0.00  0.00    +0.000 A 
ATOM      5  C   UNL     1       3.763   2.117  -0.806  0.00  0.00    +0.001 A 
ATOM      6  C   UNL     1       3.745   0.737  -0.871  0.00  0.00    +0.015 A 
ATOM      7  C   UNL     1       2.631   0.039  -0.438  0.00  0.00    +0.022 A 
ATOM      8 BR   UNL     1       2.608  -1.850  -0.520  0.00  0.00    -0.050 Br
ENDBRANCH   1   2
BRANCH   1   9
ATOM      9  N   UNL     1       0.083   0.244   1.940  0.00  0.00    -0.286 NA
ATOM     10  C   UNL     1       0.568   1.583   2.300  0.00  0.00    +0.086 C 
ATOM     11  C   UNL     1       0.441   1.783   3.812  0.00  0.00    +0.015 C 
ATOM     12  C   UNL     1      -1.026   1.624   4.221  0.00  0.00    +0.003 C 
ATOM     13  C   UNL     1      -1.521   0.240   3.791  0.00  0.00    +0.028 C 
ATOM     14  C   UNL     1      -1.337   0.085   2.280  0.00  0.00    +0.143 C 
BRANCH  14  15
ATOM     15  C   UNL     1      -1.804  -1.284   1.855  0.00  0.00    +0.228 C 
ATOM     16  O   UNL     1      -1.015  -2.203   1.796  0.00  0.00    -0.274 OA
ATOM     17  N   UNL     1      -3.099  -1.486   1.541  0.00  0.00    -0.328 N 
ATOM     18  H   UNL     1      -3.730  -0.751   1.589  0.00  0.00    +0.145 HD
ATOM     19  H   UNL     1      -3.400  -2.367   1.268  0.00  0.00    +0.145 HD
ENDBRANCH  14  15
ENDBRANCH   1   9
BRANCH   1  21
ATOM     20  C   UNL     1      -1.155   1.895  -0.072  0.00  0.00    -0.012 C 
ATOM     21  C   UNL     1      -0.901   0.403  -0.297  0.00  0.00    -0.056 C 
BRANCH  21  22
ATOM     22  N   UNL     1      -0.651   0.158  -1.724  0.00  0.00    +0.381 N 
ATOM     23  H   UNL     1       0.190   0.639  -2.005  0.00  0.00    -0.090 HD
ATOM     24  H   UNL     1      -0.540  -0.832  -1.881  0.00  0.00    -0.090 HD
ATOM     25  H   UNL     1      -1.431   0.500  -2.265  0.00  0.00    -0.090 HD
ENDBRANCH  21  22
ENDBRANCH   1  21
TORSDOF 5
