REMARK  Name = ZINC65067063
REMARK  8 active torsions:
REMARK  status: ('A' for Active; 'I' for Inactive)
REMARK    1  A    between atoms: C_1  and  C_2
REMARK    2  A    between atoms: C_3  and  C_9
REMARK    3  A    between atoms: C_4  and  C_8
REMARK    4  A    between atoms: N_5  and  C_7
REMARK    5  A    between atoms: C_9  and  C_10
REMARK    6  A    between atoms: N_12  and  C_13
REMARK    7  A    between atoms: C_14  and  C_21
REMARK    8  A    between atoms: N_23  and  C_24
REMARK                            x       y       z     vdW  Elec       q    Type
REMARK                         _______ _______ _______ _____ _____    ______ ____
ROOT
ATOM      1  C   UNL     1       2.946   0.420  -4.754  0.00  0.00    +0.084 A 
ATOM      2  C   UNL     1       3.372   0.845  -5.999  0.00  0.00    +0.069 A 
ATOM      3  C   UNL     1       4.815   0.935  -6.219  0.00  0.00    -0.023 A 
ATOM      4  C   UNL     1       5.555   0.582  -5.153  0.00  0.00    -0.004 A 
ATOM      5  S   UNL     1       4.368   0.156  -3.904  0.00  0.00    -0.077 S 
ATOM      6  C   UNL     1       7.030   0.689  -5.434  0.00  0.00    +0.043 C 
ATOM      7  C   UNL     1       7.130   0.751  -6.974  0.00  0.00    +0.010 C 
ATOM      8  C   UNL     1       5.753   1.333  -7.356  0.00  0.00    +0.037 C 
ENDROOT
BRANCH   1  11
ATOM      9  C   UNL     1       1.410  -0.165  -3.050  0.00  0.00    +0.222 C 
ATOM     10  O   UNL     1       2.339  -0.400  -2.307  0.00  0.00    -0.275 OA
ATOM     11  N   UNL     1       1.644   0.256  -4.309  0.00  0.00    -0.279 N 
ATOM     12  H   UNL     1       0.901   0.445  -4.903  0.00  0.00    +0.155 HD
BRANCH   9  13
ATOM     13  C   UNL     1      -0.006  -0.343  -2.566  0.00  0.00    +0.134 C 
BRANCH  13  16
ATOM     14  C   UNL     1      -0.018   1.503   0.010  0.00  0.00    +0.068 C 
ATOM     15  C   UNL     1       0.002  -0.004   0.002  0.00  0.00    +0.064 A 
ATOM     16  C   UNL     1       0.008  -0.818  -1.135  0.00  0.00    +0.005 A 
ATOM     17  C   UNL     1       0.028  -2.107  -0.725  0.00  0.00    +0.040 A 
ATOM     18  N   UNL     1       0.034  -2.109   0.625  0.00  0.00    -0.271 N 
ATOM     19  N   UNL     1       0.023  -0.777   1.058  0.00  0.00    -0.176 NA
ATOM     20  C   UNL     1       0.055  -3.295   1.485  0.00  0.00    +0.172 C 
ATOM     21  C   UNL     1       0.040  -3.323  -1.615  0.00  0.00    +0.065 C 
ENDBRANCH  13  16
ENDBRANCH   9  13
ENDBRANCH   1  11
BRANCH   2  22
ATOM     22  C   UNL     1       2.416   1.190  -7.055  0.00  0.00    +0.247 C 
ATOM     23  O   UNL     1       2.008   2.333  -7.157  0.00  0.00    -0.270 OA
ATOM     24  N   UNL     1       1.989   0.243  -7.914  0.00  0.00    -0.308 N 
ATOM     25  H   UNL     1       2.314  -0.667  -7.832  0.00  0.00    +0.149 HD
BRANCH  24  26
ATOM     26  C   UNL     1       1.034   0.589  -8.969  0.00  0.00    +0.073 C 
ATOM     27  C   UNL     1      -0.126  -0.378  -9.216  0.00  0.00    +0.024 C 
ATOM     28  C   UNL     1       1.021  -0.287 -10.224  0.00  0.00    +0.024 C 
ENDBRANCH  24  26
ENDBRANCH   2  22
TORSDOF 5
