REMARK  Name = ZINC21233421
REMARK  10 active torsions:
REMARK  status: ('A' for Active; 'I' for Inactive)
REMARK    1  A    between atoms: C_1  and  C_2
REMARK    2  A    between atoms: C_2  and  O_3
REMARK    3  A    between atoms: O_3  and  C_4
REMARK    4  A    between atoms: C_6  and  C_14
REMARK    5  A    between atoms: C_8  and  N_11
REMARK    6  A    between atoms: C_9  and  O_10
REMARK    7  A    between atoms: C_19  and  C_24
REMARK    8  A    between atoms: C_27  and  N_30
REMARK    9  A    between atoms: N_30  and  C_31
REMARK   10  A    between atoms: N_30  and  C_32
REMARK                            x       y       z     vdW  Elec       q    Type
REMARK                         _______ _______ _______ _____ _____    ______ ____
ROOT
ATOM      1  C   UNL     1       0.200   6.532  -0.462  0.00  0.00    +0.136 C 
ATOM      2  C   UNL     1      -0.885   6.860  -1.460  0.00  0.00    +0.036 C 
ATOM      3  C   UNL     1      -1.509   8.039  -1.591  0.00  0.00    +0.017 C 
ATOM      4  C   UNL     1      -2.577   8.234  -2.654  0.00  0.00    +0.059 C 
ATOM      5  C   UNL     1      -3.321   6.922  -2.894  0.00  0.00    +0.032 C 
ATOM      6  C   UNL     1      -2.293   5.880  -3.352  0.00  0.00    +0.088 C 
ATOM      7  C   UNL     1      -1.224   5.774  -2.306  0.00  0.00    +0.163 C 
ATOM      8  O   UNL     1      -0.630   4.721  -2.180  0.00  0.00    -0.292 OA
ATOM      9  N   UNL     1      -1.251   9.135  -0.833  0.00  0.00    -0.316 N 
ATOM     10  C   UNL     1      -1.123   9.135   0.551  0.00  0.00    +0.052 A 
ATOM     11  C   UNL     1      -1.977   9.848   1.373  0.00  0.00    +0.025 A 
ATOM     12  C   UNL     1      -1.722   9.901   2.733  0.00  0.00    +0.002 A 
ATOM     13  C   UNL     1      -0.626   9.246   3.264  0.00  0.00    +0.002 A 
ATOM     14  C   UNL     1       0.216   8.513   2.445  0.00  0.00    +0.025 A 
ATOM     15  C   UNL     1      -0.046   8.444   1.087  0.00  0.00    +0.049 A 
ATOM     16  N   UNL     1       0.745   7.681   0.229  0.00  0.00    -0.331 N 
ATOM     17  H   UNL     1      -1.128  10.118  -1.312  0.00  0.00    +0.152 HD
ATOM     18  H   UNL     1       1.798   7.963   0.082  0.00  0.00    +0.147 HD
ENDROOT
BRANCH   1  21
ATOM     19  C   UNL     1      -0.399   3.415   1.586  0.00  0.00    +0.164 A 
ATOM     20  C   UNL     1       0.119   4.290   0.644  0.00  0.00    +0.055 A 
ATOM     21  C   UNL     1      -0.364   5.582   0.562  0.00  0.00    -0.017 A 
ATOM     22  C   UNL     1      -1.364   6.006   1.419  0.00  0.00    +0.042 A 
ATOM     23  C   UNL     1      -1.885   5.138   2.360  0.00  0.00    +0.171 A 
ATOM     24  C   UNL     1      -1.409   3.839   2.443  0.00  0.00    +0.189 A 
BRANCH  23  25
ATOM     25  N   UNL     1      -2.955   5.594   3.275  0.00  0.00    +0.060 N 
ATOM     26  O   UNL     1      -3.377   6.735   3.199  0.00  0.00    -0.126 OA
ATOM     27  O   UNL     1      -3.414   4.830   4.105  0.00  0.00    -0.126 OA
ENDBRANCH  23  25
BRANCH  24  28
ATOM     28  O   UNL     1      -1.925   2.982   3.365  0.00  0.00    -0.502 OA
ATOM     29  H   UNL     1      -2.724   3.319   4.043  0.00  0.00    +0.292 HD
ENDBRANCH  24  28
BRANCH  19  30
ATOM     30  O   UNL     1       0.075   2.143   1.668  0.00  0.00    -0.488 OA
BRANCH  30  32
ATOM     31  C   UNL     1       1.510   0.319   0.993  0.00  0.00    +0.048 C 
ATOM     32  C   UNL     1       1.109   1.776   0.752  0.00  0.00    +0.226 C 
ENDBRANCH  30  32
ENDBRANCH  19  30
ENDBRANCH   1  21
BRANCH   5  33
ATOM     33  C   UNL     1      -4.365   7.116  -3.964  0.00  0.00    -0.043 A 
ATOM     34  C   UNL     1      -3.988   7.524  -5.230  0.00  0.00    +0.006 A 
ATOM     35  C   UNL     1      -4.942   7.697  -6.214  0.00  0.00    +0.023 A 
ATOM     36  C   UNL     1      -6.282   7.471  -5.927  0.00  0.00    +0.029 A 
ATOM     37  C   UNL     1      -6.658   7.067  -4.652  0.00  0.00    +0.023 A 
ATOM     38  C   UNL     1      -5.698   6.890  -3.675  0.00  0.00    +0.006 A 
BRANCH  36  39
ATOM     39  N   UNL     1      -7.250   7.650  -6.918  0.00  0.00    -0.336 N 
ATOM     40  C   UNL     1      -8.671   7.538  -6.583  0.00  0.00    +0.129 C 
ATOM     41  C   UNL     1      -6.843   7.950  -8.293  0.00  0.00    +0.129 C 
ENDBRANCH  36  39
ENDBRANCH   5  33
TORSDOF 7
