REMARK  Name = ZINC05119062
REMARK  5 active torsions:
REMARK  status: ('A' for Active; 'I' for Inactive)
REMARK    1  A    between atoms: C_6  and  N_7
REMARK    2  A    between atoms: C_9  and  N_23
REMARK    3  A    between atoms: C_10  and  N_22
REMARK    4  A    between atoms: N_14  and  C_15
REMARK    5  A    between atoms: C_15  and  C_16
REMARK                            x       y       z     vdW  Elec       q    Type
REMARK                         _______ _______ _______ _____ _____    ______ ____
ROOT
ATOM      1  N   UNL     1      -1.199  -0.721   0.010  0.00  0.00    -0.297 N 
ATOM      2  C   UNL     1      -1.183  -2.103  -0.102  0.00  0.00    +0.160 A 
ATOM      3  C   UNL     1      -2.373  -2.817  -0.205  0.00  0.00    +0.205 A 
ATOM      4  C   UNL     1      -2.308  -4.203  -0.316  0.00  0.00    +0.154 A 
ATOM      5  N   UNL     1      -1.116  -4.797  -0.320  0.00  0.00    -0.197 NA
ATOM      6  C   UNL     1      -0.004  -4.085  -0.220  0.00  0.00    +0.219 A 
ATOM      7  N   UNL     1      -0.028  -2.765  -0.118  0.00  0.00    -0.197 NA
ATOM      8  N   UNL     1       1.216  -4.739  -0.227  0.00  0.00    -0.311 N 
ATOM      9  H   UNL     1      -2.044  -0.252   0.099  0.00  0.00    +0.154 HD
ATOM     10  H   UNL     1       2.039  -4.230  -0.154  0.00  0.00    +0.149 HD
ENDROOT
BRANCH   1  16
ATOM     11  C   UNL     1       1.074  -0.458  -0.761  0.00  0.00    +0.026 A 
ATOM     12  C   UNL     1       2.259   0.252  -0.774  0.00  0.00    +0.040 A 
ATOM     13  C   UNL     1       2.377   1.416  -0.034  0.00  0.00    +0.124 A 
ATOM     14  C   UNL     1       1.310   1.871   0.722  0.00  0.00    +0.040 A 
ATOM     15  C   UNL     1       0.123   1.163   0.739  0.00  0.00    +0.026 A 
ATOM     16  C   UNL     1       0.002  -0.004  -0.004  0.00  0.00    +0.033 A 
ATOM     17  F   UNL     1       3.537   2.109  -0.048  0.00  0.00    -0.205 F 
ENDBRANCH   1  16
BRANCH   4  18
ATOM     18  N   UNL     1      -3.468  -4.955  -0.420  0.00  0.00    -0.341 N 
ATOM     19  H   UNL     1      -4.332  -4.515  -0.417  0.00  0.00    +0.144 HD
ATOM     20  H   UNL     1      -3.415  -5.920  -0.497  0.00  0.00    +0.144 HD
ENDBRANCH   4  18
BRANCH   3  21
ATOM     21  N   UNL     1      -3.679  -2.119  -0.197  0.00  0.00    +0.063 N 
ATOM     22  O   UNL     1      -4.173  -1.748  -1.236  0.00  0.00    -0.126 OA
ATOM     23  O   UNL     1      -4.251  -1.919   0.849  0.00  0.00    -0.126 OA
ENDBRANCH   3  21
BRANCH   8  24
ATOM     24  C   UNL     1       1.265  -6.198  -0.344  0.00  0.00    +0.136 C 
BRANCH  24  25
ATOM     25  C   UNL     1       2.723  -6.662  -0.327  0.00  0.00    +0.135 C 
ATOM     26  C   UNL     1       2.790  -8.185  -0.572  0.00  0.00    +0.035 C 
ATOM     27  C   UNL     1       3.918  -8.626   0.401  0.00  0.00    +0.031 C 
ATOM     28  C   UNL     1       3.696  -7.639   1.575  0.00  0.00    +0.160 C 
ATOM     29  O   UNL     1       3.301  -6.402   0.957  0.00  0.00    -0.375 OA
ENDBRANCH  24  25
ENDBRANCH   8  24
TORSDOF 5
