REMARK  Name = ZINC38905819
REMARK  7 active torsions:
REMARK  status: ('A' for Active; 'I' for Inactive)
REMARK    1  A    between atoms: C_1  and  C_2
REMARK    2  A    between atoms: C_7  and  C_8
REMARK    3  A    between atoms: N_14  and  N_15
REMARK    4  A    between atoms: C_16  and  C_17
REMARK    5  A    between atoms: C_19  and  O_25
REMARK    6  A    between atoms: C_20  and  O_24
REMARK    7  A    between atoms: O_25  and  C_26
REMARK                            x       y       z     vdW  Elec       q    Type
REMARK                         _______ _______ _______ _____ _____    ______ ____
ROOT
ATOM      1  C   UNL     1      -0.086   0.146   2.674  0.00  0.00    +0.264 C 
ATOM      2  N   UNL     1       0.804   1.304   2.502  0.00  0.00    -0.189 NA
ATOM      3  N   UNL     1       1.833   1.096   3.149  0.00  0.00    -0.219 N 
ATOM      4  C   UNL     1       1.829  -0.098   3.800  0.00  0.00    +0.174 C 
ATOM      5  S   UNL     1       3.104  -0.683   4.782  0.00  0.00    -0.015 S 
ATOM      6  N   UNL     1       0.670  -0.756   3.562  0.00  0.00    -0.172 N 
ATOM      7  H   UNL     1       2.573   1.723   3.190  0.00  0.00    +0.176 HD
ENDROOT
BRANCH   1  14
ATOM      8  C   UNL     1      -0.440   1.753   0.299  0.00  0.00    +0.044 C 
ATOM      9  C   UNL     1      -0.522   0.251   0.211  0.00  0.00    -0.044 A 
ATOM     10  C   UNL     1      -0.760  -0.359  -1.007  0.00  0.00    +0.004 A 
ATOM     11  C   UNL     1      -0.835  -1.737  -1.087  0.00  0.00    +0.000 A 
ATOM     12  C   UNL     1      -0.671  -2.506   0.051  0.00  0.00    +0.000 A 
ATOM     13  C   UNL     1      -0.432  -1.896   1.268  0.00  0.00    +0.008 A 
ATOM     14  C   UNL     1      -0.352  -0.518   1.347  0.00  0.00    +0.001 A 
ENDBRANCH   1  14
BRANCH   6  15
ATOM     15  N   UNL     1       0.277  -2.010   4.047  0.00  0.00    -0.183 NA
ATOM     16  C   UNL     1       1.017  -2.632   4.915  0.00  0.00    +0.138 C 
BRANCH  16  17
ATOM     17  C   UNL     1       0.659  -3.995   5.347  0.00  0.00    -0.001 A 
ATOM     18  C   UNL     1       1.450  -4.663   6.285  0.00  0.00    +0.059 A 
ATOM     19  C   UNL     1       1.110  -5.941   6.687  0.00  0.00    +0.163 A 
ATOM     20  C   UNL     1      -0.020  -6.560   6.158  0.00  0.00    +0.173 A 
ATOM     21  C   UNL     1      -0.807  -5.898   5.226  0.00  0.00    +0.063 A 
ATOM     22  C   UNL     1      -0.476  -4.620   4.824  0.00  0.00    +0.028 A 
ATOM     23 BR   UNL     1      -2.338  -6.746   4.510  0.00  0.00    -0.046 Br
BRANCH  20  24
ATOM     24  O   UNL     1      -0.353  -7.817   6.554  0.00  0.00    -0.503 OA
ATOM     25  H   UNL     1      -0.940  -7.845   7.323  0.00  0.00    +0.292 HD
ENDBRANCH  20  24
BRANCH  19  26
ATOM     26  O   UNL     1       1.878  -6.594   7.600  0.00  0.00    -0.491 OA
ATOM     27  C   UNL     1       3.022  -5.899   8.101  0.00  0.00    +0.277 C 
ENDBRANCH  19  26
ENDBRANCH  16  17
ENDBRANCH   6  15
TORSDOF 5
