REMARK  Name = ZINC10383845
REMARK  10 active torsions:
REMARK  status: ('A' for Active; 'I' for Inactive)
REMARK    1  A    between atoms: C_1  and  C_2
REMARK    2  A    between atoms: C_2  and  C_3
REMARK    3  A    between atoms: C_9  and  C_37
REMARK    4  A    between atoms: C_12  and  N_18
REMARK    5  A    between atoms: C_15  and  C_17
REMARK    6  A    between atoms: N_18  and  C_19
REMARK    7  A    between atoms: C_22  and  C_25
REMARK    8  A    between atoms: C_26  and  C_28
REMARK    9  A    between atoms: C_28  and  N_74
REMARK   10  A    between atoms: C_31  and  C_34
REMARK                            x       y       z     vdW  Elec       q    Type
REMARK                         _______ _______ _______ _____ _____    ______ ____
ROOT
ATOM      1  N   UNL     1       1.094   3.208  -0.761  0.00  0.00    -0.265 N 
ATOM      2  C   UNL     1      -0.057   3.836  -0.447  0.00  0.00    +0.204 C 
ATOM      3  O   UNL     1      -1.091   3.206  -0.371  0.00  0.00    -0.277 OA
ENDROOT
BRANCH   1  13
ATOM      4  C   UNL     1       5.542   1.631  -2.269  0.00  0.00    +0.220 C 
ATOM      5  O   UNL     1       6.508   1.425  -1.564  0.00  0.00    -0.275 OA
ATOM      6  N   UNL     1       4.441   2.210  -1.751  0.00  0.00    -0.268 N 
ATOM      7  C   UNL     1       4.323   2.408  -0.369  0.00  0.00    +0.042 A 
ATOM      8  C   UNL     1       5.209   1.761   0.486  0.00  0.00    +0.024 A 
ATOM      9  C   UNL     1       5.112   1.946   1.850  0.00  0.00    +0.005 A 
ATOM     10  C   UNL     1       4.132   2.775   2.366  0.00  0.00    -0.050 A 
ATOM     11  C   UNL     1       3.249   3.416   1.519  0.00  0.00    +0.010 A 
ATOM     12  C   UNL     1       3.339   3.235   0.149  0.00  0.00    -0.005 A 
ATOM     13  C   UNL     1       2.359   3.947  -0.746  0.00  0.00    +0.115 C 
ATOM     14  C   UNL     1       2.905   4.041  -2.170  0.00  0.00    +0.050 C 
ATOM     15  C   UNL     1       3.344   2.644  -2.627  0.00  0.00    +0.081 C 
ATOM     16  C   UNL     1       3.829   2.701  -4.077  0.00  0.00    +0.028 C 
ATOM     17  C   UNL     1       4.027   2.978   3.856  0.00  0.00    +0.044 C 
BRANCH   4  19
ATOM     18  C   UNL     1       6.847   0.439  -4.008  0.00  0.00    +0.013 C 
ATOM     19  C   UNL     1       5.575   1.239  -3.724  0.00  0.00    +0.093 C 
ENDBRANCH   4  19
ENDBRANCH   1  13
BRANCH   1  20
ATOM     20  C   UNL     1       1.080   1.851  -1.101  0.00  0.00    +0.037 A 
ATOM     21  C   UNL     1       0.483   1.437  -2.285  0.00  0.00    +0.024 A 
ATOM     22  C   UNL     1       0.472   0.096  -2.618  0.00  0.00    +0.005 A 
ATOM     23  C   UNL     1       1.054  -0.832  -1.775  0.00  0.00    -0.050 A 
ATOM     24  C   UNL     1       1.649  -0.423  -0.596  0.00  0.00    +0.005 A 
ATOM     25  C   UNL     1       1.663   0.916  -0.257  0.00  0.00    +0.024 A 
ATOM     26  C   UNL     1       1.040  -2.294  -2.142  0.00  0.00    +0.044 C 
ENDBRANCH   1  20
BRANCH   2  27
ATOM     27  C   UNL     1      -0.059   5.321  -0.189  0.00  0.00    +0.019 C 
BRANCH  27  33
ATOM     28  C   UNL     1      -1.770   4.954   1.484  0.00  0.00    -0.077 C 
ATOM     29  C   UNL     1      -3.208   5.304   1.876  0.00  0.00    -0.006 C 
ATOM     30  C   UNL     1      -3.300   6.803   2.173  0.00  0.00    +0.071 C 
ATOM     31  C   UNL     1      -2.845   7.589   0.941  0.00  0.00    -0.006 C 
ATOM     32  C   UNL     1      -1.418   7.173   0.575  0.00  0.00    -0.077 C 
ATOM     33  N   UNL     1      -1.402   5.725   0.277  0.00  0.00    +0.385 N 
ATOM     34  H   UNL     1      -2.085   5.530  -0.464  0.00  0.00    -0.081 HD
BRANCH  30  35
ATOM     35  C   UNL     1      -4.725   7.165   2.503  0.00  0.00    +0.213 C 
ATOM     36  O   UNL     1      -5.319   7.973   1.821  0.00  0.00    -0.276 OA
ATOM     37  N   UNL     1      -5.339   6.593   3.558  0.00  0.00    -0.329 N 
ATOM     38  H   UNL     1      -4.864   5.947   4.104  0.00  0.00    +0.145 HD
ATOM     39  H   UNL     1      -6.257   6.826   3.770  0.00  0.00    +0.145 HD
ENDBRANCH  30  35
ENDBRANCH  27  33
ENDBRANCH   2  27
TORSDOF 6
