REMARK  Name = ZINC61409469
REMARK  2 active torsions:
REMARK  status: ('A' for Active; 'I' for Inactive)
REMARK    1  A    between atoms: C_4  and  C_8
REMARK    2  A    between atoms: C_8  and  N_9
REMARK                            x       y       z     vdW  Elec       q    Type
REMARK                         _______ _______ _______ _____ _____    ______ ____
ROOT
ATOM      1  N   UNL     1       4.327  -0.640   1.289  0.00  0.00    -0.220 N 
ATOM      2  C   UNL     1       5.086   0.388   1.724  0.00  0.00    +0.247 C 
ATOM      3  O   UNL     1       5.378   1.394   1.113  0.00  0.00    -0.273 OA
ATOM      4  C   UNL     1       5.494   0.021   3.131  0.00  0.00    +0.109 C 
ATOM      5  C   UNL     1       7.012  -0.087   3.237  0.00  0.00    +0.016 C 
ATOM      6  C   UNL     1       7.396  -0.414   4.683  0.00  0.00    -0.080 C 
ATOM      7  N   UNL     1       6.897   0.640   5.574  0.00  0.00    +0.379 N 
ATOM      8  C   UNL     1       5.431   0.676   5.536  0.00  0.00    -0.080 C 
ATOM      9  C   UNL     1       4.963   1.049   4.126  0.00  0.00    +0.016 C 
ATOM     10  N   UNL     1       4.866  -1.286   3.357  0.00  0.00    -0.285 N 
ATOM     11  C   UNL     1       4.201  -1.589   2.225  0.00  0.00    +0.310 C 
ATOM     12  O   UNL     1       3.560  -2.610   2.070  0.00  0.00    -0.252 OA
ATOM     13  H   UNL     1       7.204   0.455   6.517  0.00  0.00    -0.086 HD
ATOM     14  H   UNL     1       4.918  -1.825   4.162  0.00  0.00    +0.151 HD
ATOM     15  H   UNL     1       7.262   1.532   5.274  0.00  0.00    -0.086 HD
ENDROOT
BRANCH   1  16
ATOM     16  C   UNL     1       3.713  -0.706  -0.039  0.00  0.00    +0.154 C 
BRANCH  16  20
ATOM     17  C   UNL     1      -0.340   0.628   0.196  0.00  0.00    +0.039 A 
ATOM     18  C   UNL     1       0.680   1.544   0.022  0.00  0.00    +0.018 A 
ATOM     19  C   UNL     1       1.992   1.112  -0.054  0.00  0.00    +0.023 A 
ATOM     20  C   UNL     1       2.284  -0.236   0.044  0.00  0.00    -0.013 A 
ATOM     21  C   UNL     1       1.264  -1.153   0.219  0.00  0.00    +0.044 A 
ATOM     22  C   UNL     1      -0.049  -0.721   0.295  0.00  0.00    +0.124 A 
ATOM     23  F   UNL     1      -1.046  -1.617   0.466  0.00  0.00    -0.205 F 
ATOM     24 BR   UNL     1       3.387   2.366  -0.293  0.00  0.00    -0.050 Br
ENDBRANCH  16  20
ENDBRANCH   1  16
TORSDOF 2
