REMARK  Name = ZINC09631095
REMARK  11 active torsions:
REMARK  status: ('A' for Active; 'I' for Inactive)
REMARK    1  A    between atoms: C_1  and  C_2
REMARK    2  A    between atoms: C_7  and  C_10
REMARK    3  A    between atoms: C_11  and  C_13
REMARK    4  A    between atoms: C_13  and  O_14
REMARK    5  A    between atoms: O_14  and  C_15
REMARK    6  A    between atoms: C_18  and  C_23
REMARK    7  A    between atoms: C_20  and  O_21
REMARK    8  A    between atoms: O_21  and  C_22
REMARK    9  A    between atoms: N_24  and  N_25
REMARK   10  A    between atoms: N_33  and  C_36
REMARK   11  A    between atoms: C_36  and  C_37
REMARK                            x       y       z     vdW  Elec       q    Type
REMARK                         _______ _______ _______ _____ _____    ______ ____
ROOT
ATOM      1  C   UNL     1       8.083  -3.087  -0.092  0.00  0.00    +0.163 A 
ATOM      2  C   UNL     1       7.177  -2.033  -0.078  0.00  0.00    +0.050 A 
ATOM      3  C   UNL     1       5.824  -2.283  -0.066  0.00  0.00    +0.013 A 
ATOM      4  C   UNL     1       5.356  -3.606  -0.069  0.00  0.00    -0.002 A 
ATOM      5  C   UNL     1       6.273  -4.668  -0.077  0.00  0.00    +0.059 A 
ATOM      6  C   UNL     1       7.627  -4.406  -0.095  0.00  0.00    +0.162 A 
ENDROOT
BRANCH   6   7
ATOM      7  O   UNL     1       8.518  -5.433  -0.109  0.00  0.00    -0.491 OA
ATOM      8  C   UNL     1       7.981  -6.757  -0.111  0.00  0.00    +0.277 C 
ENDBRANCH   6   7
BRANCH   4   9
ATOM      9  C   UNL     1       3.918  -3.876  -0.056  0.00  0.00    +0.143 C 
ATOM     10  N   UNL     1       3.060  -2.877  -0.043  0.00  0.00    -0.156 NA
BRANCH  10  11
ATOM     11  N   UNL     1       1.793  -3.116  -0.032  0.00  0.00    -0.144 NA
ATOM     12  C   UNL     1       0.933  -2.115  -0.018  0.00  0.00    +0.157 C 
ATOM     13  C   UNL     1       1.237  -0.668  -0.013  0.00  0.00    +0.029 A 
ATOM     14  C   UNL     1       2.425   0.057  -0.021  0.00  0.00    +0.012 A 
ATOM     15  C   UNL     1       2.386   1.436  -0.012  0.00  0.00    +0.001 A 
ATOM     16  C   UNL     1       1.168   2.095   0.002  0.00  0.00    +0.002 A 
ATOM     17  C   UNL     1      -0.017   1.386   0.010  0.00  0.00    +0.024 A 
ATOM     18  C   UNL     1       0.002  -0.004   0.002  0.00  0.00    +0.046 A 
ATOM     19  N   UNL     1      -1.024  -0.942   0.007  0.00  0.00    -0.262 N 
ATOM     20  C   UNL     1      -0.541  -2.196  -0.004  0.00  0.00    +0.272 C 
ATOM     21  O   UNL     1      -1.202  -3.218  -0.004  0.00  0.00    -0.268 OA
BRANCH  19  22
ATOM     22  C   UNL     1      -2.450  -0.607   0.023  0.00  0.00    +0.140 C 
BRANCH  22  23
ATOM     23  C   UNL     1      -2.953  -0.483  -1.393  0.00  0.00    -0.015 C 
ATOM     24  C   UNL     1      -3.979  -1.195  -1.787  0.00  0.00    +0.005 C 
ENDBRANCH  22  23
ENDBRANCH  19  22
ENDBRANCH  10  11
ENDBRANCH   4   9
BRANCH   1  25
ATOM     25  O   UNL     1       9.416  -2.832  -0.103  0.00  0.00    -0.479 OA
BRANCH  25  26
ATOM     26  C   UNL     1       9.815  -1.460  -0.099  0.00  0.00    +0.324 C 
BRANCH  26  35
ATOM     27  C   UNL     1      15.316   1.177   0.889  0.00  0.00    +0.039 C 
ATOM     28  C   UNL     1      13.817   0.892   0.999  0.00  0.00    +0.133 C 
ATOM     29  C   UNL     1      13.393  -0.061  -0.125  0.00  0.00    +0.139 C 
ATOM     30  N   UNL     1      11.925  -0.170  -0.112  0.00  0.00    -0.294 N 
ATOM     31  C   UNL     1      11.139   1.074  -0.104  0.00  0.00    +0.139 C 
ATOM     32  C   UNL     1      11.673   1.971   1.024  0.00  0.00    +0.133 C 
ATOM     33  O   UNL     1      13.088   2.116   0.878  0.00  0.00    -0.371 OA
ATOM     34  C   UNL     1      11.361   1.335   2.380  0.00  0.00    +0.039 C 
ATOM     35  C   UNL     1      11.319  -1.374  -0.113  0.00  0.00    +0.253 C 
ATOM     36  O   UNL     1      11.985  -2.388  -0.124  0.00  0.00    -0.272 OA
ENDBRANCH  26  35
ENDBRANCH  25  26
ENDBRANCH   1  25
TORSDOF 8
