REMARK  Name = ZINC64179055
REMARK  7 active torsions:
REMARK  status: ('A' for Active; 'I' for Inactive)
REMARK    1  A    between atoms: C_1  and  N_2
REMARK    2  A    between atoms: N_2  and  C_3
REMARK    3  A    between atoms: C_3  and  C_4
REMARK    4  A    between atoms: C_6  and  N_11
REMARK    5  A    between atoms: C_14  and  C_16
REMARK    6  A    between atoms: C_16  and  C_17
REMARK    7  A    between atoms: C_17  and  C_18
REMARK                            x       y       z     vdW  Elec       q    Type
REMARK                         _______ _______ _______ _____ _____    ______ ____
ROOT
ATOM      1  C   UNL     1      -0.184   1.453   0.029  0.00  0.00    +0.132 C 
ATOM      2  N   UNL     1       0.002   0.000   0.005  0.00  0.00    -0.300 N 
ATOM      3  C   UNL     1       0.051  -0.653  -1.173  0.00  0.00    +0.216 C 
ATOM      4  O   UNL     1       0.205  -1.856  -1.193  0.00  0.00    -0.276 OA
ENDROOT
BRANCH   2   5
ATOM      5  C   UNL     1       0.135  -0.742   1.261  0.00  0.00    +0.144 C 
BRANCH   5   6
ATOM      6  C   UNL     1      -1.233  -1.122   1.767  0.00  0.00    -0.010 A 
ATOM      7  C   UNL     1      -2.352  -0.855   1.001  0.00  0.00    +0.039 A 
ATOM      8  C   UNL     1      -3.607  -1.203   1.465  0.00  0.00    +0.127 A 
ATOM      9  C   UNL     1      -3.743  -1.817   2.696  0.00  0.00    +0.034 A 
ATOM     10  C   UNL     1      -2.625  -2.085   3.462  0.00  0.00    +0.022 A 
ATOM     11  C   UNL     1      -1.368  -1.742   2.996  0.00  0.00    +0.046 A 
ATOM     12 CL   UNL     1       0.038  -2.085   3.955  0.00  0.00    -0.083 Cl
BRANCH   8  13
ATOM     13  N   UNL     1      -4.805  -0.916   0.644  0.00  0.00    +0.056 N 
ATOM     14  O   UNL     1      -4.686  -0.378  -0.432  0.00  0.00    -0.126 OA
ATOM     15  O   UNL     1      -5.902  -1.220   1.050  0.00  0.00    -0.126 OA
ENDBRANCH   8  13
ENDBRANCH   5   6
ENDBRANCH   2   5
BRANCH   3  16
ATOM     16  C   UNL     1      -0.086   0.110  -2.465  0.00  0.00    +0.103 C 
BRANCH  16  17
ATOM     17  C   UNL     1       0.004  -0.862  -3.643  0.00  0.00    +0.083 C 
BRANCH  17  18
ATOM     18  C   UNL     1      -0.133  -0.098  -4.935  0.00  0.00    +0.124 C 
ATOM     19  N   UNL     1      -0.293   1.202  -4.876  0.00  0.00    -0.161 NA
ATOM     20  C   UNL     1      -0.430   1.965  -5.965  0.00  0.00    +0.271 C 
ATOM     21  O   UNL     1      -0.569   3.172  -5.873  0.00  0.00    -0.268 OA
ATOM     22  C   UNL     1      -0.406   1.292  -7.301  0.00  0.00    +0.071 C 
ATOM     23  C   UNL     1      -0.644   1.827  -8.512  0.00  0.00    -0.042 C 
ATOM     24  C   UNL     1      -1.263   3.058  -9.169  0.00  0.00    +0.033 C 
ATOM     25  C   UNL     1      -1.963   2.547 -10.446  0.00  0.00    +0.006 C 
ATOM     26  C   UNL     1      -1.627   1.037 -10.539  0.00  0.00    +0.019 C 
ATOM     27  C   UNL     1      -0.330   0.935  -9.715  0.00  0.00    +0.079 C 
ATOM     28  S   UNL     1      -0.168  -0.706  -8.925  0.00  0.00    -0.097 S 
ATOM     29  C   UNL     1      -0.201  -0.172  -7.231  0.00  0.00    +0.111 C 
ATOM     30  N   UNL     1      -0.080  -0.774  -6.072  0.00  0.00    -0.227 NA
ENDBRANCH  17  18
ENDBRANCH  16  17
ENDBRANCH   3  16
TORSDOF 6
