REMARK  Name = ZINC08623011
REMARK  10 active torsions:
REMARK  status: ('A' for Active; 'I' for Inactive)
REMARK    1  A    between atoms: C_1  and  C_2
REMARK    2  A    between atoms: C_2  and  C_3
REMARK    3  A    between atoms: C_3  and  C_4
REMARK    4  A    between atoms: C_3  and  C_6
REMARK    5  A    between atoms: C_4  and  C_5
REMARK    6  A    between atoms: C_8  and  C_18
REMARK    7  A    between atoms: C_10  and  C_12
REMARK    8  A    between atoms: C_26  and  C_28
REMARK    9  A    between atoms: C_28  and  N_29
REMARK   10  A    between atoms: C_30  and  C_32
REMARK                            x       y       z     vdW  Elec       q    Type
REMARK                         _______ _______ _______ _____ _____    ______ ____
ROOT
ATOM      1  C   UNL     1       8.770  -0.095  -3.003  0.00  0.00    +0.024 C 
ATOM      2  C   UNL     1       7.524   0.793  -2.921  0.00  0.00    -0.068 C 
ATOM      3  C   UNL     1       8.788   2.562  -1.855  0.00  0.00    -0.078 C 
ATOM      4  C   UNL     1      10.069   1.726  -1.906  0.00  0.00    -0.015 C 
ATOM      5  C   UNL     1       9.695   0.240  -1.827  0.00  0.00    -0.007 C 
ATOM      6  C   UNL     1       8.931  -0.002  -0.519  0.00  0.00    -0.010 C 
ATOM      7  C   UNL     1       7.681   0.882  -0.506  0.00  0.00    -0.051 C 
ATOM      8  N   UNL     1       7.603   1.685  -1.745  0.00  0.00    +0.383 N 
ATOM      9  H   UNL     1       6.758   2.268  -1.712  0.00  0.00    -0.081 HD
ENDROOT
BRANCH   1  12
ATOM     10  C   UNL     1       6.856  -3.319  -3.443  0.00  0.00    +0.048 A 
ATOM     11  C   UNL     1       7.191  -1.976  -3.532  0.00  0.00    +0.047 A 
ATOM     12  C   UNL     1       8.363  -1.544  -2.929  0.00  0.00    +0.047 A 
ATOM     13  N   UNL     1       9.115  -2.418  -2.282  0.00  0.00    -0.232 NA
ATOM     14  C   UNL     1       8.764  -3.694  -2.212  0.00  0.00    +0.160 A 
ATOM     15  N   UNL     1       7.653  -4.140  -2.782  0.00  0.00    -0.232 NA
BRANCH  14  16
ATOM     16  C   UNL     1       9.633  -4.646  -1.477  0.00  0.00    +0.022 A 
ATOM     17  C   UNL     1      10.815  -4.215  -0.868  0.00  0.00    +0.031 A 
ATOM     18  C   UNL     1      11.592  -5.132  -0.190  0.00  0.00    +0.111 A 
ATOM     19  N   UNL     1      11.238  -6.401  -0.123  0.00  0.00    -0.263 NA
ATOM     20  C   UNL     1      10.134  -6.849  -0.688  0.00  0.00    +0.111 A 
ATOM     21  C   UNL     1       9.297  -5.998  -1.381  0.00  0.00    +0.031 A 
ENDBRANCH  14  16
BRANCH  10  22
ATOM     22  C   UNL     1       5.595  -3.835  -4.088  0.00  0.00    +0.037 C 
BRANCH  22  24
ATOM     23  C   UNL     1       3.159  -4.260  -3.735  0.00  0.00    +0.004 C 
ATOM     24  C   UNL     1       4.411  -3.606  -3.147  0.00  0.00    +0.006 C 
ENDBRANCH  22  24
BRANCH  22  25
ATOM     25  C   UNL     1       5.353  -3.090  -5.403  0.00  0.00    +0.006 C 
ATOM     26  C   UNL     1       6.474  -3.421  -6.390  0.00  0.00    +0.004 C 
ENDBRANCH  22  25
ENDBRANCH  10  22
ENDBRANCH   1  12
BRANCH   7  27
ATOM     27  C   UNL     1       6.434   0.002  -0.405  0.00  0.00    +0.089 C 
BRANCH  27  28
ATOM     28  N   UNL     1       5.236   0.839  -0.509  0.00  0.00    -0.313 N 
ATOM     29  C   UNL     1       4.015   0.291  -0.346  0.00  0.00    +0.244 C 
ATOM     30  O   UNL     1       3.902  -0.911  -0.203  0.00  0.00    -0.270 OA
ATOM     31  H   UNL     1       5.321   1.787  -0.695  0.00  0.00    +0.149 HD
BRANCH  29  32
ATOM     32  C   UNL     1       2.813   1.152  -0.340  0.00  0.00    +0.037 A 
ATOM     33  C   UNL     1       1.548   0.588  -0.171  0.00  0.00    +0.013 A 
ATOM     34  C   UNL     1       0.430   1.397  -0.167  0.00  0.00    +0.001 A 
ATOM     35  C   UNL     1       0.562   2.765  -0.329  0.00  0.00    +0.000 A 
ATOM     36  C   UNL     1       1.814   3.330  -0.496  0.00  0.00    +0.001 A 
ATOM     37  C   UNL     1       2.939   2.533  -0.503  0.00  0.00    +0.013 A 
ENDBRANCH  29  32
ENDBRANCH  27  28
ENDBRANCH   7  27
TORSDOF 8
