REMARK  Name = ZINC63256589
REMARK  12 active torsions:
REMARK  status: ('A' for Active; 'I' for Inactive)
REMARK    1  A    between atoms: C_1  and  C_2
REMARK    2  A    between atoms: C_5  and  C_19
REMARK    3  A    between atoms: C_6  and  C_18
REMARK    4  A    between atoms: N_7  and  C_8
REMARK    5  A    between atoms: C_11  and  O_14
REMARK    6  A    between atoms: O_14  and  C_15
REMARK    7  A    between atoms: C_19  and  C_21
REMARK    8  A    between atoms: C_21  and  O_22
REMARK    9  A    between atoms: O_22  and  C_23
REMARK   10  A    between atoms: C_23  and  C_25
REMARK   11  A    between atoms: C_25  and  C_26
REMARK   12  A    between atoms: C_26  and  C_27
REMARK                            x       y       z     vdW  Elec       q    Type
REMARK                         _______ _______ _______ _____ _____    ______ ____
ROOT
ATOM      1  C   UNL     1      -2.416  -2.395   1.535  0.00  0.00    +0.198 C 
ATOM      2  O   UNL     1      -2.224  -3.278   2.348  0.00  0.00    -0.289 OA
ENDROOT
BRANCH   1   6
ATOM      3  C   UNL     1      -0.174   1.699   0.563  0.00  0.00    +0.029 C 
ATOM      4  C   UNL     1      -0.046   0.218   0.203  0.00  0.00    +0.080 C 
ATOM      5  C   UNL     1      -1.436  -0.442   0.133  0.00  0.00    +0.062 C 
ATOM      6  C   UNL     1      -1.381  -1.510   1.204  0.00  0.00    +0.017 C 
ATOM      7  C   UNL     1      -0.164  -1.465   1.785  0.00  0.00    +0.015 C 
ATOM      8  N   UNL     1       0.652  -0.511   1.271  0.00  0.00    -0.300 N 
ATOM      9  C   UNL     1       0.251  -2.390   2.901  0.00  0.00    +0.061 C 
BRANCH   8  10
ATOM     10  C   UNL     1       1.962  -0.258   1.693  0.00  0.00    +0.034 A 
ATOM     11  C   UNL     1       2.195   0.263   2.960  0.00  0.00    +0.027 A 
ATOM     12  C   UNL     1       3.487   0.513   3.376  0.00  0.00    +0.047 A 
ATOM     13  C   UNL     1       4.553   0.245   2.529  0.00  0.00    +0.127 A 
ATOM     14  C   UNL     1       4.321  -0.275   1.264  0.00  0.00    +0.047 A 
ATOM     15  C   UNL     1       3.030  -0.531   0.849  0.00  0.00    +0.027 A 
BRANCH  13  16
ATOM     16  O   UNL     1       5.825   0.492   2.939  0.00  0.00    -0.434 OA
BRANCH  16  17
ATOM     17  C   UNL     1       6.875   0.192   2.017  0.00  0.00    +0.541 C 
ATOM     18  F   UNL     1       6.840  -1.170   1.698  0.00  0.00    -0.166 F 
ATOM     19  F   UNL     1       6.702   0.948   0.852  0.00  0.00    -0.166 F 
ENDBRANCH  16  17
ENDBRANCH  13  16
ENDBRANCH   8  10
ENDBRANCH   1   6
BRANCH   1  20
ATOM     20  C   UNL     1      -3.767  -2.251   0.884  0.00  0.00    +0.311 C 
BRANCH  20  21
ATOM     21  O   UNL     1      -4.646  -3.261   1.382  0.00  0.00    -0.457 OA
BRANCH  21  22
ATOM     22  C   UNL     1      -5.899  -3.272   0.899  0.00  0.00    +0.308 C 
ATOM     23  O   UNL     1      -6.237  -2.451   0.080  0.00  0.00    -0.251 OA
BRANCH  22  24
ATOM     24  C   UNL     1      -6.882  -4.308   1.378  0.00  0.00    +0.125 C 
BRANCH  24  25
ATOM     25  C   UNL     1      -8.226  -4.100   0.676  0.00  0.00    +0.044 C 
BRANCH  25  26
ATOM     26  C   UNL     1      -9.209  -5.136   1.155  0.00  0.00    -0.041 C 
ATOM     27  C   UNL     1     -10.121  -4.996   2.144  0.00  0.00    -0.001 A 
ATOM     28  C   UNL     1     -10.455  -3.880   3.037  0.00  0.00    +0.010 A 
ATOM     29  C   UNL     1     -11.439  -4.044   3.950  0.00  0.00    +0.001 A 
ATOM     30  C   UNL     1     -12.146  -5.249   4.065  0.00  0.00    +0.002 A 
ATOM     31  C   UNL     1     -11.896  -6.319   3.281  0.00  0.00    +0.026 A 
ATOM     32  C   UNL     1     -10.882  -6.258   2.285  0.00  0.00    +0.043 A 
ATOM     33  N   UNL     1     -10.457  -7.144   1.417  0.00  0.00    -0.380 N 
ATOM     34  C   UNL     1      -9.382  -6.541   0.622  0.00  0.00    +0.144 C 
ATOM     35  H   UNL     1     -10.799  -8.046   1.315  0.00  0.00    +0.160 HD
ENDBRANCH  25  26
ENDBRANCH  24  25
ENDBRANCH  22  24
ENDBRANCH  21  22
ENDBRANCH  20  21
ENDBRANCH   1  20
TORSDOF 10
