REMARK  Name = ZINC50249658
REMARK  4 active torsions:
REMARK  status: ('A' for Active; 'I' for Inactive)
REMARK    1  A    between atoms: C_3  and  N_14
REMARK    2  A    between atoms: C_8  and  N_11
REMARK    3  A    between atoms: C_17  and  C_20
REMARK    4  A    between atoms: C_20  and  N_21
REMARK                            x       y       z     vdW  Elec       q    Type
REMARK                         _______ _______ _______ _____ _____    ______ ____
ROOT
ATOM      1  C   UNL     1      -0.017   1.405   0.010  0.00  0.00    +0.013 A 
ATOM      2  C   UNL     1       1.174   2.067   0.002  0.00  0.00    +0.044 A 
ATOM      3  C   UNL     1       2.375   1.344  -0.013  0.00  0.00    +0.122 A 
ATOM      4  N   UNL     1       2.386   0.027  -0.021  0.00  0.00    -0.232 NA
ATOM      5  C   UNL     1       1.248  -0.677  -0.014  0.00  0.00    +0.073 A 
ATOM      6  C   UNL     1       0.002  -0.004   0.002  0.00  0.00    +0.003 A 
ATOM      7  C   UNL     1      -1.188  -0.749   0.009  0.00  0.00    +0.042 A 
ATOM      8  C   UNL     1      -1.131  -2.110   0.001  0.00  0.00    +0.127 A 
ATOM      9  C   UNL     1       0.094  -2.773  -0.015  0.00  0.00    +0.035 A 
ATOM     10  C   UNL     1       1.267  -2.082  -0.023  0.00  0.00    +0.030 A 
ENDROOT
BRANCH   3  11
ATOM     11  N   UNL     1       3.579   2.032  -0.021  0.00  0.00    -0.315 N 
ATOM     12  C   UNL     1       4.916   1.423  -0.148  0.00  0.00    +0.107 C 
ATOM     13  C   UNL     1       5.813   2.550  -0.717  0.00  0.00    +0.022 C 
ATOM     14  C   UNL     1       5.245   3.797   0.009  0.00  0.00    -0.010 C 
ATOM     15  C   UNL     1       3.734   3.490   0.089  0.00  0.00    +0.108 C 
BRANCH  14  16
ATOM     16  C   UNL     1       5.497   5.064  -0.811  0.00  0.00    -0.081 C 
BRANCH  16  17
ATOM     17  N   UNL     1       6.941   5.328  -0.872  0.00  0.00    +0.378 N 
ATOM     18  H   UNL     1       7.298   5.457   0.063  0.00  0.00    -0.090 HD
ATOM     19  H   UNL     1       7.408   4.547  -1.306  0.00  0.00    -0.090 HD
ATOM     20  H   UNL     1       7.107   6.163  -1.413  0.00  0.00    -0.090 HD
ENDBRANCH  16  17
ENDBRANCH  14  16
ENDBRANCH   3  11
BRANCH   8  21
ATOM     21  N   UNL     1      -2.386  -2.893   0.008  0.00  0.00    +0.056 N 
ATOM     22  O   UNL     1      -3.453  -2.325   0.022  0.00  0.00    -0.126 OA
ATOM     23  O   UNL     1      -2.344  -4.102   0.001  0.00  0.00    -0.126 OA
ENDBRANCH   8  21
TORSDOF 4
