REMARK  Name = ZINC20138590
REMARK  9 active torsions:
REMARK  status: ('A' for Active; 'I' for Inactive)
REMARK    1  A    between atoms: C_1  and  C_2
REMARK    2  A    between atoms: C_4  and  N_26
REMARK    3  A    between atoms: C_9  and  N_12
REMARK    4  A    between atoms: C_13  and  C_15
REMARK    5  A    between atoms: C_15  and  C_16
REMARK    6  A    between atoms: C_16  and  C_17
REMARK    7  A    between atoms: C_22  and  C_25
REMARK    8  A    between atoms: C_28  and  C_35
REMARK    9  A    between atoms: C_31  and  C_34
REMARK                            x       y       z     vdW  Elec       q    Type
REMARK                         _______ _______ _______ _____ _____    ______ ____
ROOT
ATOM      1  C   UNL     1       6.690  10.312   6.322  0.00  0.00    +0.044 C 
ATOM      2  C   UNL     1       5.936  10.944   5.181  0.00  0.00    -0.038 A 
ATOM      3  C   UNL     1       5.980  12.291   4.976  0.00  0.00    +0.045 A 
ATOM      4  C   UNL     1       5.270  12.857   3.908  0.00  0.00    +0.099 A 
ATOM      5  N   UNL     1       4.553  12.118   3.087  0.00  0.00    -0.343 N 
ATOM      6  C   UNL     1       4.473  10.791   3.238  0.00  0.00    +0.048 A 
ATOM      7  C   UNL     1       5.167  10.158   4.298  0.00  0.00    +0.003 A 
ATOM      8  C   UNL     1       5.076   8.767   4.456  0.00  0.00    +0.033 A 
ATOM      9  C   UNL     1       4.320   8.032   3.570  0.00  0.00    +0.034 A 
ATOM     10  C   UNL     1       3.636   8.663   2.525  0.00  0.00    +0.025 A 
ATOM     11  C   UNL     1       3.705  10.010   2.356  0.00  0.00    +0.028 A 
ATOM     12  H   UNL     1       4.006  12.590   2.258  0.00  0.00    +0.167 HD
ENDROOT
BRANCH   4  13
ATOM     13  N   UNL     1       5.324  14.230   3.712  0.00  0.00    -0.316 N 
ATOM     14  C   UNL     1       4.904  14.951   4.920  0.00  0.00    +0.109 C 
ATOM     15  C   UNL     1       5.113  16.454   4.718  0.00  0.00    +0.004 C 
ATOM     16  C   UNL     1       4.294  16.921   3.511  0.00  0.00    +0.009 C 
ATOM     17  C   UNL     1       4.716  16.120   2.276  0.00  0.00    +0.004 C 
ATOM     18  C   UNL     1       4.519  14.627   2.550  0.00  0.00    +0.109 C 
ATOM     19  C   UNL     1       3.861  16.538   1.079  0.00  0.00    +0.009 C 
ATOM     20  C   UNL     1       6.596  16.733   4.467  0.00  0.00    +0.009 C 
ENDBRANCH   4  13
BRANCH   9  21
ATOM     21  N   UNL     1       4.230   6.643   3.719  0.00  0.00    -0.285 N 
ATOM     22  C   UNL     1       4.152   5.852   2.631  0.00  0.00    +0.218 C 
ATOM     23  O   UNL     1       4.075   6.346   1.526  0.00  0.00    -0.275 OA
ATOM     24  H   UNL     1       4.224   6.197   4.725  0.00  0.00    +0.155 HD
BRANCH  22  25
ATOM     25  C   UNL     1       4.159   4.353   2.787  0.00  0.00    +0.105 C 
BRANCH  25  26
ATOM     26  C   UNL     1       4.060   3.696   1.409  0.00  0.00    +0.105 C 
BRANCH  26  27
ATOM     27  C   UNL     1       4.068   2.197   1.565  0.00  0.00    +0.216 C 
ATOM     28  O   UNL     1       4.144   1.703   2.670  0.00  0.00    -0.276 OA
ATOM     29  N   UNL     1       3.989   1.406   0.477  0.00  0.00    -0.301 N 
ATOM     30  C   UNL     1       3.896   1.990  -0.868  0.00  0.00    +0.108 C 
ATOM     31  C   UNL     1       2.674   1.399  -1.579  0.00  0.00    +0.022 C 
ATOM     32  C   UNL     1       2.768  -0.128  -1.562  0.00  0.00    -0.011 C 
ATOM     33  C   UNL     1       2.772  -0.625  -0.114  0.00  0.00    +0.022 C 
ATOM     34  C   UNL     1       3.995  -0.057   0.613  0.00  0.00    +0.108 C 
ATOM     35  C   UNL     1       1.567  -0.721  -2.301  0.00  0.00    +0.007 C 
ENDBRANCH  26  27
ENDBRANCH  25  26
ENDBRANCH  22  25
ENDBRANCH   9  21
TORSDOF 5
