REMARK  Name = ZINC50586237
REMARK  8 active torsions:
REMARK  status: ('A' for Active; 'I' for Inactive)
REMARK    1  A    between atoms: C_1  and  C_2
REMARK    2  A    between atoms: C_2  and  C_3
REMARK    3  A    between atoms: C_3  and  C_5
REMARK    4  A    between atoms: C_3  and  N_22
REMARK    5  A    between atoms: C_5  and  C_7
REMARK    6  A    between atoms: C_5  and  N_14
REMARK    7  A    between atoms: C_15  and  C_21
REMARK    8  A    between atoms: C_17  and  C_19
REMARK                            x       y       z     vdW  Elec       q    Type
REMARK                         _______ _______ _______ _____ _____    ______ ____
ROOT
ATOM      1  C   UNL     1       0.849  -2.021  -1.205  0.00  0.00    +0.124 C 
ENDROOT
BRANCH   1   2
ATOM      2  N   UNL     1       1.622  -2.405  -0.021  0.00  0.00    -0.261 N 
ATOM      3  C   UNL     1       1.193  -3.195   0.986  0.00  0.00    +0.055 A 
ATOM      4  C   UNL     1       2.202  -3.305   1.882  0.00  0.00    +0.084 A 
ATOM      5  C   UNL     1       3.284  -2.557   1.406  0.00  0.00    +0.078 A 
ATOM      6  N   UNL     1       2.940  -2.022   0.263  0.00  0.00    -0.174 NA
ATOM      7  C   UNL     1       4.619  -2.400   2.088  0.00  0.00    +0.069 C 
ATOM      8 CL   UNL     1       2.160  -4.213   3.361  0.00  0.00    -0.080 Cl
ATOM      9  C   UNL     1      -0.166  -3.837   1.095  0.00  0.00    +0.067 C 
ENDBRANCH   1   2
BRANCH   1  10
ATOM     10  C   UNL     1       1.555  -2.507  -2.445  0.00  0.00    -0.011 A 
ATOM     11  C   UNL     1       2.838  -2.075  -2.724  0.00  0.00    +0.007 A 
ATOM     12  C   UNL     1       3.485  -2.522  -3.861  0.00  0.00    +0.000 A 
ATOM     13  C   UNL     1       2.849  -3.399  -4.720  0.00  0.00    +0.001 A 
ATOM     14  C   UNL     1       1.567  -3.831  -4.441  0.00  0.00    +0.015 A 
ATOM     15  C   UNL     1       0.920  -3.389  -3.300  0.00  0.00    +0.023 A 
ATOM     16 BR   UNL     1      -0.832  -3.985  -2.915  0.00  0.00    -0.050 Br
ENDBRANCH   1  10
BRANCH   1  17
ATOM     17  C   UNL     1       0.718  -0.497  -1.257  0.00  0.00    -0.046 C 
BRANCH  17  18
ATOM     18  N   UNL     1      -0.057  -0.113  -2.444  0.00  0.00    +0.382 N 
ATOM     19  H   UNL     1      -0.143   0.892  -2.478  0.00  0.00    -0.090 HD
ATOM     20  H   UNL     1       0.415  -0.438  -3.274  0.00  0.00    -0.090 HD
ATOM     21  H   UNL     1      -0.975  -0.528  -2.395  0.00  0.00    -0.090 HD
ENDBRANCH  17  18
BRANCH  17  23
ATOM     22  C   UNL     1      -0.019   1.526   0.010  0.00  0.00    +0.002 C 
ATOM     23  C   UNL     1       0.002  -0.004   0.002  0.00  0.00    -0.017 C 
ENDBRANCH  17  23
ENDBRANCH   1  17
TORSDOF 5
