REMARK  Name = ZINC15770598
REMARK  8 active torsions:
REMARK  status: ('A' for Active; 'I' for Inactive)
REMARK    1  A    between atoms: C_1  and  C_2
REMARK    2  A    between atoms: C_5  and  C_8
REMARK    3  A    between atoms: C_10  and  C_31
REMARK    4  A    between atoms: C_19  and  C_21
REMARK    5  A    between atoms: N_23  and  C_24
REMARK    6  A    between atoms: C_24  and  C_25
REMARK    7  A    between atoms: C_31  and  C_33
REMARK    8  A    between atoms: C_36  and  C_39
REMARK                            x       y       z     vdW  Elec       q    Type
REMARK                         _______ _______ _______ _____ _____    ______ ____
ROOT
ATOM      1  C   UNL     1      -0.021  -4.244  -0.041  0.00  0.00    +0.061 C 
ATOM      2  C   UNL     1      -0.884  -4.992   1.014  0.00  0.00    +0.094 C 
ATOM      3  C   UNL     1      -0.058  -6.266   1.261  0.00  0.00    +0.108 C 
ATOM      4  C   UNL     1      -0.187  -6.730   2.691  0.00  0.00    -0.004 C 
ATOM      5  C   UNL     1       0.877  -7.271   3.289  0.00  0.00    -0.001 C 
ATOM      6  C   UNL     1       2.157  -7.428   2.588  0.00  0.00    +0.015 C 
ATOM      7  C   UNL     1       2.396  -6.710   1.466  0.00  0.00    +0.071 C 
ATOM      8  N   UNL     1       1.355  -5.892   1.038  0.00  0.00    -0.317 N 
ATOM      9  C   UNL     1       1.418  -4.558   0.442  0.00  0.00    +0.168 C 
ENDROOT
BRANCH   1  14
ATOM     10  C   UNL     1      -1.049   1.441   0.099  0.00  0.00    +0.044 C 
ATOM     11  C   UNL     1      -0.781  -0.042   0.063  0.00  0.00    -0.050 A 
ATOM     12  C   UNL     1      -0.388  -0.702   1.212  0.00  0.00    +0.003 A 
ATOM     13  C   UNL     1      -0.142  -2.061   1.179  0.00  0.00    +0.004 A 
ATOM     14  C   UNL     1      -0.290  -2.762  -0.004  0.00  0.00    -0.041 A 
ATOM     15  C   UNL     1      -0.683  -2.102  -1.153  0.00  0.00    +0.004 A 
ATOM     16  C   UNL     1      -0.934  -0.743  -1.119  0.00  0.00    +0.003 A 
ENDBRANCH   1  14
BRANCH   9  17
ATOM     17  C   UNL     1       1.853  -3.548   1.472  0.00  0.00    +0.234 C 
ATOM     18  O   UNL     1       1.779  -3.816   2.653  0.00  0.00    -0.274 OA
ATOM     19  N   UNL     1       2.325  -2.347   1.082  0.00  0.00    -0.310 N 
ATOM     20  H   UNL     1       2.384  -2.133   0.138  0.00  0.00    +0.149 HD
BRANCH  19  21
ATOM     21  C   UNL     1       2.747  -1.365   2.084  0.00  0.00    +0.139 C 
BRANCH  21  22
ATOM     22  C   UNL     1       3.230  -0.117   1.392  0.00  0.00    -0.030 A 
ATOM     23  C   UNL     1       4.560   0.007   1.038  0.00  0.00    +0.005 A 
ATOM     24  C   UNL     1       5.003   1.152   0.403  0.00  0.00    +0.000 A 
ATOM     25  C   UNL     1       4.114   2.174   0.121  0.00  0.00    +0.000 A 
ATOM     26  C   UNL     1       2.784   2.049   0.474  0.00  0.00    +0.000 A 
ATOM     27  C   UNL     1       2.340   0.902   1.105  0.00  0.00    +0.005 A 
ENDBRANCH  21  22
ENDBRANCH  19  21
ENDBRANCH   9  17
BRANCH   2  28
ATOM     28  C   UNL     1      -1.012  -4.180   2.277  0.00  0.00    +0.169 C 
ATOM     29  O   UNL     1      -0.220  -4.335   3.181  0.00  0.00    -0.292 OA
BRANCH  28  30
ATOM     30  C   UNL     1      -2.101  -3.198   2.413  0.00  0.00    +0.018 A 
ATOM     31  C   UNL     1      -3.021  -3.021   1.375  0.00  0.00    +0.011 A 
ATOM     32  C   UNL     1      -4.038  -2.099   1.511  0.00  0.00    +0.004 A 
ATOM     33  C   UNL     1      -4.150  -1.352   2.670  0.00  0.00    -0.050 A 
ATOM     34  C   UNL     1      -3.243  -1.522   3.702  0.00  0.00    +0.004 A 
ATOM     35  C   UNL     1      -2.224  -2.443   3.584  0.00  0.00    +0.011 A 
ATOM     36  C   UNL     1      -5.264  -0.347   2.810  0.00  0.00    +0.044 C 
ENDBRANCH  28  30
ENDBRANCH   2  28
TORSDOF 6
