REMARK  Name = ZINC45573654
REMARK  6 active torsions:
REMARK  status: ('A' for Active; 'I' for Inactive)
REMARK    1  A    between atoms: C_3  and  S_18
REMARK    2  A    between atoms: C_6  and  C_7
REMARK    3  A    between atoms: C_12  and  C_15
REMARK    4  A    between atoms: S_18  and  N_21
REMARK    5  A    between atoms: N_21  and  C_22
REMARK    6  A    between atoms: C_22  and  C_23
REMARK                            x       y       z     vdW  Elec       q    Type
REMARK                         _______ _______ _______ _____ _____    ______ ____
ROOT
ATOM      1  C   UNL     1      -0.002   1.350   0.382  0.00  0.00    +0.015 A 
ATOM      2  C   UNL     1       1.182   2.060   0.389  0.00  0.00    +0.029 A 
ATOM      3  C   UNL     1       2.366   1.438   0.036  0.00  0.00    +0.105 A 
ATOM      4  C   UNL     1       2.373   0.102  -0.326  0.00  0.00    +0.029 A 
ATOM      5  C   UNL     1       1.197  -0.619  -0.336  0.00  0.00    +0.015 A 
ATOM      6  C   UNL     1      -0.002   0.003   0.019  0.00  0.00    +0.037 A 
ENDROOT
BRANCH   6   7
ATOM      7  C   UNL     1      -1.266  -0.764   0.011  0.00  0.00    +0.247 C 
ATOM      8  O   UNL     1      -1.290  -1.902   0.435  0.00  0.00    -0.270 OA
ATOM      9  N   UNL     1      -2.393  -0.200  -0.469  0.00  0.00    -0.297 N 
ATOM     10  C   UNL     1      -3.682  -0.896  -0.362  0.00  0.00    +0.109 C 
ATOM     11  C   UNL     1      -4.316  -0.975  -1.754  0.00  0.00    +0.032 C 
ATOM     12  C   UNL     1      -4.409   0.432  -2.349  0.00  0.00    +0.078 C 
ATOM     13  C   UNL     1      -3.004   1.021  -2.491  0.00  0.00    +0.032 C 
ATOM     14  C   UNL     1      -2.356   1.125  -1.102  0.00  0.00    +0.109 C 
BRANCH  12  15
ATOM     15  C   UNL     1      -5.064   0.362  -3.704  0.00  0.00    +0.214 C 
ATOM     16  O   UNL     1      -5.421  -0.707  -4.151  0.00  0.00    -0.276 OA
ATOM     17  N   UNL     1      -5.253   1.488  -4.420  0.00  0.00    -0.329 N 
ATOM     18  H   UNL     1      -4.967   2.344  -4.063  0.00  0.00    +0.145 HD
ATOM     19  H   UNL     1      -5.674   1.444  -5.293  0.00  0.00    +0.145 HD
ENDBRANCH  12  15
ENDBRANCH   6   7
BRANCH   3  20
ATOM     20  S   UNL     1       3.873   2.351   0.046  0.00  0.00    +0.058 S 
ATOM     21  O   UNL     1       4.756   1.688  -0.848  0.00  0.00    -0.153 OA
ATOM     22  O   UNL     1       3.520   3.719  -0.107  0.00  0.00    -0.153 OA
BRANCH  20  23
ATOM     23  N   UNL     1       4.528   2.198   1.559  0.00  0.00    -0.187 NA
ATOM     24  H   UNL     1       4.616   2.977   2.131  0.00  0.00    +0.148 HD
BRANCH  23  25
ATOM     25  C   UNL     1       4.974   0.886   2.035  0.00  0.00    +0.137 C 
BRANCH  25  26
ATOM     26  C   UNL     1       5.861   1.066   3.269  0.00  0.00    +0.134 C 
ATOM     27  C   UNL     1       6.433  -0.299   3.706  0.00  0.00    +0.035 C 
ATOM     28  C   UNL     1       6.363  -0.206   5.254  0.00  0.00    +0.031 C 
ATOM     29  C   UNL     1       5.074   0.633   5.440  0.00  0.00    +0.160 C 
ATOM     30  O   UNL     1       5.082   1.578   4.357  0.00  0.00    -0.375 OA
ENDBRANCH  25  26
ENDBRANCH  23  25
ENDBRANCH  20  23
ENDBRANCH   3  20
TORSDOF 6
