REMARK  Name = ZINC40348739
REMARK  5 active torsions:
REMARK  status: ('A' for Active; 'I' for Inactive)
REMARK    1  A    between atoms: C_2  and  N_22
REMARK    2  A    between atoms: C_6  and  S_7
REMARK    3  A    between atoms: S_7  and  N_10
REMARK    4  A    between atoms: N_10  and  C_11
REMARK    5  A    between atoms: C_11  and  C_12
REMARK                            x       y       z     vdW  Elec       q    Type
REMARK                         _______ _______ _______ _____ _____    ______ ____
ROOT
ATOM      1  S   UNL     1      -1.512  -0.905   0.012  0.00  0.00    +0.061 S 
ATOM      2  O   UNL     1      -1.393  -1.888   1.031  0.00  0.00    -0.153 OA
ATOM      3  O   UNL     1      -2.558   0.058  -0.000  0.00  0.00    -0.153 OA
ENDROOT
BRANCH   1   9
ATOM      4  C   UNL     1      -0.017   1.377   0.010  0.00  0.00    +0.054 A 
ATOM      5  C   UNL     1       1.177   2.087   0.002  0.00  0.00    +0.028 A 
ATOM      6  C   UNL     1       2.387   1.407  -0.013  0.00  0.00    +0.045 A 
ATOM      7  C   UNL     1       2.402   0.025  -0.021  0.00  0.00    +0.080 A 
ATOM      8  C   UNL     1       1.210  -0.681  -0.013  0.00  0.00    +0.168 A 
ATOM      9  C   UNL     1       0.002  -0.004   0.002  0.00  0.00    +0.143 A 
ATOM     10  F   UNL     1       1.225  -2.032  -0.021  0.00  0.00    -0.202 F 
ATOM     11 CL   UNL     1       3.914  -0.827  -0.040  0.00  0.00    -0.080 Cl
BRANCH   5  12
ATOM     12  N   UNL     1       1.160   3.485   0.009  0.00  0.00    -0.358 N 
ATOM     13  H   UNL     1       0.314   3.960   0.019  0.00  0.00    +0.142 HD
ATOM     14  H   UNL     1       1.994   3.981   0.004  0.00  0.00    +0.142 HD
ENDBRANCH   5  12
ENDBRANCH   1   9
BRANCH   1  15
ATOM     15  N   UNL     1      -1.605  -1.722  -1.426  0.00  0.00    -0.190 NA
ATOM     16  H   UNL     1      -2.301  -1.502  -2.064  0.00  0.00    +0.148 HD
BRANCH  15  17
ATOM     17  C   UNL     1      -0.635  -2.777  -1.733  0.00  0.00    +0.111 C 
BRANCH  17  18
ATOM     18  C   UNL     1      -1.145  -3.611  -2.909  0.00  0.00    +0.027 C 
ATOM     19  C   UNL     1      -1.193  -2.736  -4.173  0.00  0.00    +0.029 C 
ATOM     20  C   UNL     1      -1.407  -3.669  -5.399  0.00  0.00    +0.166 C 
ATOM     21  S   UNL     1      -0.299  -5.072  -4.954  0.00  0.00    -0.031 S 
ATOM     22  O   UNL     1       0.983  -4.848  -5.525  0.00  0.00    -0.174 OA
ATOM     23  O   UNL     1      -0.975  -6.295  -5.210  0.00  0.00    -0.174 OA
ATOM     24  C   UNL     1      -0.196  -4.813  -3.136  0.00  0.00    +0.170 C 
ENDBRANCH  17  18
ENDBRANCH  15  17
ENDBRANCH   1  15
TORSDOF 5
