REMARK  Name = ZINC08798175
REMARK  6 active torsions:
REMARK  status: ('A' for Active; 'I' for Inactive)
REMARK    1  A    between atoms: C_4  and  N_7
REMARK    2  A    between atoms: C_8  and  S_22
REMARK    3  A    between atoms: N_9  and  N_10
REMARK    4  A    between atoms: C_11  and  C_12
REMARK    5  A    between atoms: C_15  and  O_20
REMARK    6  A    between atoms: C_17  and  O_18
REMARK                            x       y       z     vdW  Elec       q    Type
REMARK                         _______ _______ _______ _____ _____    ______ ____
ROOT
ATOM      1  N   UNL     1       7.188   0.154  -0.751  0.00  0.00    -0.155 NA
ATOM      2  C   UNL     1       8.274  -0.517  -0.479  0.00  0.00    +0.146 C 
ENDROOT
BRANCH   2   3
ATOM      3  C   UNL     1       8.283  -1.983  -0.600  0.00  0.00    +0.039 A 
ATOM      4  C   UNL     1       7.089  -2.704  -0.488  0.00  0.00    +0.032 A 
ATOM      5  C   UNL     1       7.101  -4.077  -0.607  0.00  0.00    +0.061 A 
ATOM      6  C   UNL     1       8.298  -4.750  -0.828  0.00  0.00    +0.148 A 
ATOM      7  C   UNL     1       9.488  -4.044  -0.936  0.00  0.00    +0.102 A 
ATOM      8  C   UNL     1       9.489  -2.664  -0.823  0.00  0.00    +0.143 A 
ATOM      9 BR   UNL     1      11.110  -4.968  -1.236  0.00  0.00    -0.043 Br
ATOM     10 BR   UNL     1       5.486  -5.049  -0.462  0.00  0.00    -0.046 Br
BRANCH   8  11
ATOM     11  O   UNL     1      10.653  -1.973  -0.929  0.00  0.00    -0.505 OA
ATOM     12  H   UNL     1      11.148  -1.907  -0.101  0.00  0.00    +0.292 HD
ENDBRANCH   8  11
BRANCH   6  13
ATOM     13  O   UNL     1       8.302  -6.104  -0.938  0.00  0.00    -0.504 OA
ATOM     14  H   UNL     1       8.424  -6.567  -0.098  0.00  0.00    +0.292 HD
ENDBRANCH   6  13
ENDBRANCH   2   3
BRANCH   1  17
ATOM     15  N   UNL     1       3.727  -0.516  -1.569  0.00  0.00    -0.293 N 
ATOM     16  C   UNL     1       4.899   0.152  -1.300  0.00  0.00    +0.177 C 
ATOM     17  N   UNL     1       5.995  -0.526  -1.025  0.00  0.00    -0.127 NA
ATOM     18  H   UNL     1       3.725  -1.483  -1.642  0.00  0.00    +0.154 HD
BRANCH  15  22
ATOM     19  C   UNL     1       0.183   1.615  -2.070  0.00  0.00    +0.000 A 
ATOM     20  C   UNL     1       1.106   2.023  -1.124  0.00  0.00    +0.002 A 
ATOM     21  C   UNL     1       2.282   1.319  -0.956  0.00  0.00    +0.023 A 
ATOM     22  C   UNL     1       2.538   0.199  -1.738  0.00  0.00    +0.033 A 
ATOM     23  C   UNL     1       1.609  -0.208  -2.687  0.00  0.00    +0.023 A 
ATOM     24  C   UNL     1       0.435   0.501  -2.850  0.00  0.00    +0.002 A 
ENDBRANCH  15  22
BRANCH  16  25
ATOM     25  S   UNL     1       4.935   1.913  -1.323  0.00  0.00    -0.106 S 
ATOM     26  H   UNL     1       6.290   2.135  -1.002  0.00  0.00    +0.110 HD
ENDBRANCH  16  25
ENDBRANCH   1  17
TORSDOF 6
