REMARK  Name = ZINC42307691
REMARK  7 active torsions:
REMARK  status: ('A' for Active; 'I' for Inactive)
REMARK    1  A    between atoms: C_1  and  N_2
REMARK    2  A    between atoms: N_2  and  C_3
REMARK    3  A    between atoms: N_2  and  C_11
REMARK    4  A    between atoms: C_3  and  C_4
REMARK    5  A    between atoms: C_11  and  C_13
REMARK    6  A    between atoms: C_11  and  C_15
REMARK    7  A    between atoms: C_13  and  N_14
REMARK                            x       y       z     vdW  Elec       q    Type
REMARK                         _______ _______ _______ _____ _____    ______ ____
ROOT
ATOM      1  C   UNL     1      -1.325  -0.633  -0.211  0.00  0.00    +0.076 C 
ENDROOT
BRANCH   1   2
ATOM      2  C   UNL     1      -1.760  -0.284  -1.611  0.00  0.00    +0.006 A 
ATOM      3  C   UNL     1      -2.996   0.035  -2.067  0.00  0.00    +0.014 A 
ATOM      4  C   UNL     1      -3.163   0.322  -3.409  0.00  0.00    +0.023 A 
ATOM      5  C   UNL     1      -2.084   0.277  -4.229  0.00  0.00    +0.055 A 
ATOM      6  S   UNL     1      -0.778  -0.176  -3.099  0.00  0.00    -0.085 S 
ATOM      7 BR   UNL     1      -1.986   0.613  -6.088  0.00  0.00    -0.043 Br
ENDBRANCH   1   2
BRANCH   1   9
ATOM      8  C   UNL     1      -0.070   1.438  -0.217  0.00  0.00    +0.105 C 
ATOM      9  N   UNL     1      -0.029  -0.002   0.071  0.00  0.00    -0.296 NA
BRANCH   9  10
ATOM     10  C   UNL     1       0.387  -0.251   1.458  0.00  0.00    +0.119 C 
BRANCH  10  11
ATOM     11  C   UNL     1       1.871  -0.022   1.586  0.00  0.00    -0.033 A 
ATOM     12  C   UNL     1       2.752  -1.066   1.373  0.00  0.00    +0.006 A 
ATOM     13  C   UNL     1       4.113  -0.857   1.490  0.00  0.00    +0.015 A 
ATOM     14  C   UNL     1       4.594   0.397   1.820  0.00  0.00    +0.018 A 
ATOM     15  C   UNL     1       3.712   1.442   2.032  0.00  0.00    +0.015 A 
ATOM     16  C   UNL     1       2.352   1.233   1.910  0.00  0.00    +0.006 A 
ATOM     17 BR   UNL     1       6.456   0.684   1.980  0.00  0.00    -0.050 Br
ENDBRANCH  10  11
ENDBRANCH   9  10
ENDBRANCH   1   9
BRANCH   1  18
ATOM     18  C   UNL     1      -1.193  -2.152  -0.082  0.00  0.00    -0.062 C 
BRANCH  18  19
ATOM     19  N   UNL     1      -0.090  -2.621  -0.931  0.00  0.00    +0.379 N 
ATOM     20  H   UNL     1       0.045  -3.611  -0.791  0.00  0.00    -0.090 HD
ATOM     21  H   UNL     1      -0.313  -2.446  -1.900  0.00  0.00    -0.090 HD
ATOM     22  H   UNL     1       0.756  -2.128  -0.687  0.00  0.00    -0.090 HD
ENDBRANCH  18  19
ENDBRANCH   1  18
TORSDOF 6
