REMARK  Name = ZINC02407633
REMARK  3 active torsions:
REMARK  status: ('A' for Active; 'I' for Inactive)
REMARK    1  A    between atoms: C_6  and  C_7
REMARK    2  A    between atoms: C_19  and  C_21
REMARK    3  A    between atoms: C_22  and  C_23
REMARK                            x       y       z     vdW  Elec       q    Type
REMARK                         _______ _______ _______ _____ _____    ______ ____
ROOT
ATOM      1  C   UNL     1      -1.293  -0.775   0.011  0.00  0.00    +0.149 C 
ATOM      2  C   UNL     1      -1.374  -1.657  -1.239  0.00  0.00    +0.128 C 
ATOM      3  C   UNL     1      -0.493  -2.867  -1.107  0.00  0.00    +0.222 C 
ATOM      4  O   UNL     1       0.077  -3.293  -2.090  0.00  0.00    -0.275 OA
ATOM      5  N   UNL     1      -0.318  -3.492   0.079  0.00  0.00    -0.255 N 
ATOM      6  C   UNL     1      -0.883  -2.908   1.206  0.00  0.00    +0.222 A 
ATOM      7  N   UNL     1      -1.347  -1.630   1.196  0.00  0.00    -0.223 N 
ATOM      8  N   UNL     1      -1.839  -1.365   2.471  0.00  0.00    -0.131 NA
ATOM      9  C   UNL     1      -1.661  -2.459   3.179  0.00  0.00    +0.242 A 
ATOM     10  N   UNL     1      -1.077  -3.395   2.400  0.00  0.00    -0.180 NA
ATOM     11  N   UNL     1      -2.017  -2.625   4.520  0.00  0.00    -0.250 N 
ATOM     12  C   UNL     1      -1.783  -3.799   5.139  0.00  0.00    +0.243 C 
ATOM     13  O   UNL     1      -1.260  -4.715   4.531  0.00  0.00    -0.270 OA
ATOM     14  H   UNL     1       0.183  -4.320   0.141  0.00  0.00    +0.158 HD
ATOM     15  H   UNL     1      -2.433  -1.895   5.005  0.00  0.00    +0.158 HD
ENDROOT
BRANCH   1  21
ATOM     16  C   UNL     1      -0.017   1.378   0.010  0.00  0.00    +0.007 A 
ATOM     17  C   UNL     1       1.171   2.086   0.002  0.00  0.00    +0.020 A 
ATOM     18  C   UNL     1       2.378   1.410  -0.013  0.00  0.00    +0.041 A 
ATOM     19  C   UNL     1       2.396   0.027  -0.021  0.00  0.00    +0.020 A 
ATOM     20  C   UNL     1       1.208  -0.679  -0.013  0.00  0.00    +0.007 A 
ATOM     21  C   UNL     1       0.002  -0.004   0.002  0.00  0.00    -0.022 A 
ATOM     22 CL   UNL     1       3.870   2.298  -0.023  0.00  0.00    -0.084 Cl
ENDBRANCH   1  21
BRANCH  12  23
ATOM     23  C   UNL     1      -2.155  -3.972   6.542  0.00  0.00    +0.068 C 
ATOM     24  C   UNL     1      -1.920  -5.148   7.163  0.00  0.00    +0.013 C 
BRANCH  24  25
ATOM     25  C   UNL     1      -2.295  -5.322   8.574  0.00  0.00    -0.021 A 
ATOM     26  C   UNL     1      -2.901  -4.273   9.274  0.00  0.00    +0.012 A 
ATOM     27  C   UNL     1      -3.251  -4.439  10.595  0.00  0.00    +0.050 A 
ATOM     28  C   UNL     1      -3.006  -5.646  11.238  0.00  0.00    +0.166 A 
ATOM     29  C   UNL     1      -2.402  -6.697  10.546  0.00  0.00    +0.167 A 
ATOM     30  C   UNL     1      -2.052  -6.540   9.219  0.00  0.00    +0.057 A 
ATOM     31  O   UNL     1      -2.274  -7.760  11.394  0.00  0.00    -0.453 OA
ATOM     32  C   UNL     1      -2.429  -7.215  12.717  0.00  0.00    +0.466 C 
ATOM     33  O   UNL     1      -3.255  -6.053  12.516  0.00  0.00    -0.453 OA
ENDBRANCH  24  25
ENDBRANCH  12  23
TORSDOF 3
