REMARK  Name = ZINC21863323
REMARK  10 active torsions:
REMARK  status: ('A' for Active; 'I' for Inactive)
REMARK    1  A    between atoms: C_1  and  C_2
REMARK    2  A    between atoms: C_5  and  C_38
REMARK    3  A    between atoms: N_8  and  C_10
REMARK    4  A    between atoms: C_10  and  C_11
REMARK    5  A    between atoms: C_11  and  C_12
REMARK    6  A    between atoms: C_12  and  N_13
REMARK    7  A    between atoms: C_19  and  C_33
REMARK    8  A    between atoms: C_22  and  C_23
REMARK    9  A    between atoms: C_22  and  C_24
REMARK   10  A    between atoms: N_26  and  C_27
REMARK                            x       y       z     vdW  Elec       q    Type
REMARK                         _______ _______ _______ _____ _____    ______ ____
ROOT
ATOM      1  N   UNL     1       1.825   0.796  -4.457  0.00  0.00    -0.281 N 
ATOM      2  C   UNL     1       1.980  -0.445  -3.937  0.00  0.00    +0.264 C 
ATOM      3  O   UNL     1       3.031  -0.803  -3.437  0.00  0.00    -0.268 OA
ATOM      4  C   UNL     1       0.816  -1.333  -4.008  0.00  0.00    +0.105 A 
ATOM      5  C   UNL     1       0.583  -2.548  -3.425  0.00  0.00    +0.033 A 
ATOM      6  C   UNL     1      -0.700  -2.950  -3.801  0.00  0.00    +0.032 A 
ATOM      7  C   UNL     1      -1.230  -1.963  -4.617  0.00  0.00    +0.085 A 
ATOM      8  N   UNL     1      -0.305  -0.981  -4.751  0.00  0.00    -0.331 N 
ATOM      9  C   UNL     1      -0.359   0.266  -5.519  0.00  0.00    +0.157 C 
ATOM     10  C   UNL     1       0.515   1.316  -4.833  0.00  0.00    +0.128 C 
ATOM     11  C   UNL     1       0.710   2.497  -5.786  0.00  0.00    +0.043 C 
ENDROOT
BRANCH   7  12
ATOM     12  C   UNL     1      -2.566  -1.978  -5.231  0.00  0.00    +0.151 A 
ATOM     13  C   UNL     1      -3.533  -2.917  -5.022  0.00  0.00    +0.051 A 
ATOM     14  C   UNL     1      -4.639  -2.539  -5.804  0.00  0.00    +0.042 A 
ATOM     15  C   UNL     1      -4.301  -1.403  -6.447  0.00  0.00    +0.196 A 
ATOM     16  O   UNL     1      -3.050  -1.064  -6.095  0.00  0.00    -0.461 OA
ENDBRANCH   7  12
BRANCH  10  17
ATOM     17  C   UNL     1      -0.190   1.802  -3.593  0.00  0.00    +0.238 C 
ATOM     18  O   UNL     1      -0.868   2.806  -3.636  0.00  0.00    -0.273 OA
ATOM     19  N   UNL     1      -0.067   1.120  -2.437  0.00  0.00    -0.311 N 
ATOM     20  H   UNL     1       0.548   0.209  -2.398  0.00  0.00    +0.149 HD
BRANCH  19  21
ATOM     21  C   UNL     1      -0.753   1.593  -1.232  0.00  0.00    +0.073 C 
ATOM     22  C   UNL     1      -0.013   1.086   0.008  0.00  0.00    +0.022 C 
ATOM     23  C   UNL     1      -0.729   1.579   1.267  0.00  0.00    +0.002 C 
ATOM     24  C   UNL     1      -2.164   1.050   1.278  0.00  0.00    +0.000 C 
ATOM     25  C   UNL     1      -2.904   1.556   0.038  0.00  0.00    +0.002 C 
ATOM     26  C   UNL     1      -2.188   1.063  -1.221  0.00  0.00    +0.022 C 
ENDBRANCH  19  21
ENDBRANCH  10  17
BRANCH   1  27
ATOM     27  C   UNL     1       3.007   1.640  -4.647  0.00  0.00    +0.107 C 
BRANCH  27  28
ATOM     28  C   UNL     1       3.249   2.470  -3.385  0.00  0.00    +0.000 C 
BRANCH  28  29
ATOM     29  C   UNL     1       4.484   3.352  -3.584  0.00  0.00    -0.077 C 
BRANCH  29  35
ATOM     30  C   UNL     1       3.808   4.785   0.316  0.00  0.00    +0.005 C 
ATOM     31  C   UNL     1       3.827   5.816  -0.814  0.00  0.00    -0.031 C 
ATOM     32  C   UNL     1       5.176   6.541  -0.822  0.00  0.00    +0.003 C 
ATOM     33  C   UNL     1       6.290   5.527  -1.097  0.00  0.00    -0.031 C 
ATOM     34  C   UNL     1       6.018   4.828  -2.431  0.00  0.00    -0.076 C 
ATOM     35  N   UNL     1       4.717   4.149  -2.372  0.00  0.00    +0.380 N 
ATOM     36  C   UNL     1       3.627   5.108  -2.156  0.00  0.00    -0.076 C 
ATOM     37  C   UNL     1       7.635   6.253  -1.166  0.00  0.00    +0.005 C 
ATOM     38  H   UNL     1       4.735   3.463  -1.513  0.00  0.00    -0.082 HD
ENDBRANCH  29  35
ENDBRANCH  28  29
ENDBRANCH  27  28
ENDBRANCH   1  27
TORSDOF 7
