REMARK  Name = ZINC05993298
REMARK  7 active torsions:
REMARK  status: ('A' for Active; 'I' for Inactive)
REMARK    1  A    between atoms: C_4  and  O_7
REMARK    2  A    between atoms: O_7  and  C_8
REMARK    3  A    between atoms: C_13  and  C_14
REMARK    4  A    between atoms: C_14  and  S_15
REMARK    5  A    between atoms: S_15  and  C_16
REMARK    6  A    between atoms: C_19  and  C_22
REMARK    7  A    between atoms: N_20  and  N_21
REMARK                            x       y       z     vdW  Elec       q    Type
REMARK                         _______ _______ _______ _____ _____    ______ ____
ROOT
ATOM      1  C   UNL     1       0.315   4.217   0.019  0.00  0.00    +0.116 C 
ENDROOT
BRANCH   1   7
ATOM      2  C   UNL     1      -0.014   6.398  -1.174  0.00  0.00    +0.132 A 
ATOM      3  C   UNL     1      -0.283   7.760  -1.167  0.00  0.00    +0.046 A 
ATOM      4  C   UNL     1      -0.512   8.412   0.028  0.00  0.00    +0.004 A 
ATOM      5  C   UNL     1      -0.474   7.709   1.219  0.00  0.00    +0.001 A 
ATOM      6  C   UNL     1      -0.211   6.352   1.215  0.00  0.00    +0.008 A 
ATOM      7  C   UNL     1       0.024   5.696   0.022  0.00  0.00    +0.005 A 
BRANCH   2   8
ATOM      8  O   UNL     1       0.211   5.754  -2.349  0.00  0.00    -0.456 OA
BRANCH   8  12
ATOM      9  C   UNL     1       0.104   7.973  -5.825  0.00  0.00    +0.000 A 
ATOM     10  C   UNL     1       1.295   7.822  -5.139  0.00  0.00    +0.004 A 
ATOM     11  C   UNL     1       1.334   7.080  -3.975  0.00  0.00    +0.046 A 
ATOM     12  C   UNL     1       0.176   6.485  -3.494  0.00  0.00    +0.128 A 
ATOM     13  C   UNL     1      -1.017   6.634  -4.187  0.00  0.00    +0.046 A 
ATOM     14  C   UNL     1      -1.051   7.381  -5.348  0.00  0.00    +0.004 A 
ENDBRANCH   8  12
ENDBRANCH   2   8
ENDBRANCH   1   7
BRANCH   1  15
ATOM     15  S   UNL     1       2.100   3.953   0.158  0.00  0.00    -0.080 S 
BRANCH  15  16
ATOM     16  C   UNL     1       2.152   2.192   0.131  0.00  0.00    +0.209 A 
ATOM     17  N   UNL     1       1.124   1.382   0.033  0.00  0.00    -0.121 NA
ATOM     18  N   UNL     1       1.527   0.162   0.044  0.00  0.00    -0.123 NA
ATOM     19  C   UNL     1       2.825   0.120   0.148  0.00  0.00    +0.255 A 
ATOM     20  N   UNL     1       3.270   1.412   0.207  0.00  0.00    -0.220 N 
BRANCH  19  21
ATOM     21  C   UNL     1       3.678  -1.121   0.194  0.00  0.00    +0.454 C 
ATOM     22  F   UNL     1       2.924  -2.221  -0.230  0.00  0.00    -0.163 F 
ATOM     23  F   UNL     1       4.782  -0.960  -0.651  0.00  0.00    -0.163 F 
ATOM     24  F   UNL     1       4.120  -1.335   1.503  0.00  0.00    -0.163 F 
ENDBRANCH  19  21
BRANCH  20  25
ATOM     25  N   UNL     1       4.564   1.834   0.319  0.00  0.00    -0.295 N 
ATOM     26  H   UNL     1       4.983   1.962  -0.591  0.00  0.00    +0.163 HD
ATOM     27  H   UNL     1       4.623   2.679   0.867  0.00  0.00    +0.163 HD
ENDBRANCH  20  25
ENDBRANCH  15  16
ENDBRANCH   1  15
TORSDOF 7
