REMARK  Name = ZINC14109903
REMARK  7 active torsions:
REMARK  status: ('A' for Active; 'I' for Inactive)
REMARK    1  A    between atoms: C_1  and  N_2
REMARK    2  A    between atoms: C_3  and  C_24
REMARK    3  A    between atoms: C_6  and  S_7
REMARK    4  A    between atoms: S_7  and  C_8
REMARK    5  A    between atoms: C_8  and  C_9
REMARK    6  A    between atoms: N_11  and  C_12
REMARK    7  A    between atoms: C_13  and  C_22
REMARK                            x       y       z     vdW  Elec       q    Type
REMARK                         _______ _______ _______ _____ _____    ______ ____
ROOT
ATOM      1  C   UNL     1      -0.490   7.623  -0.937  0.00  0.00    +0.228 C 
ATOM      2  O   UNL     1      -1.681   7.853  -0.971  0.00  0.00    -0.275 OA
ATOM      3  N   UNL     1       0.395   8.620  -1.135  0.00  0.00    -0.278 N 
ATOM      4  H   UNL     1       1.347   8.436  -1.107  0.00  0.00    +0.155 HD
ENDROOT
BRANCH   3   5
ATOM      5  C   UNL     1      -0.056   9.910  -1.378  0.00  0.00    +0.090 A 
ATOM      6  C   UNL     1       0.690  11.056  -1.597  0.00  0.00    +0.084 A 
ATOM      7  C   UNL     1      -0.029  12.299  -1.837  0.00  0.00    -0.018 A 
ATOM      8  C   UNL     1      -1.376  12.193  -1.802  0.00  0.00    -0.004 A 
ATOM      9  S   UNL     1      -1.689  10.480  -1.473  0.00  0.00    -0.077 S 
ATOM     10  C   UNL     1      -2.385  13.283  -1.983  0.00  0.00    +0.043 C 
ATOM     11  C   UNL     1      -2.034  14.093  -3.239  0.00  0.00    +0.005 C 
ATOM     12  C   UNL     1      -1.098  15.227  -2.835  0.00  0.00    +0.001 C 
ATOM     13  C   UNL     1      -0.202  14.784  -1.680  0.00  0.00    +0.005 C 
ATOM     14  C   UNL     1       0.682  13.618  -2.109  0.00  0.00    +0.037 C 
BRANCH   6  15
ATOM     15  C   UNL     1       2.122  11.019  -1.592  0.00  0.00    +0.102 C 
ATOM     16  N   UNL     1       3.257  10.989  -1.588  0.00  0.00    -0.191 NA
ENDBRANCH   6  15
ENDBRANCH   3   5
BRANCH   1  17
ATOM     17  C   UNL     1      -0.001   6.222  -0.673  0.00  0.00    +0.173 C 
BRANCH  17  18
ATOM     18  S   UNL     1      -1.419   5.119  -0.451  0.00  0.00    -0.077 S 
BRANCH  18  24
ATOM     19  C   UNL     1      -2.595   2.084   0.126  0.00  0.00    +0.153 C 
ATOM     20  N   UNL     1      -1.161   2.382   0.065  0.00  0.00    -0.305 N 
ATOM     21  C   UNL     1      -0.121   1.498   0.231  0.00  0.00    +0.166 A 
ATOM     22  N   UNL     1       0.991   2.181   0.091  0.00  0.00    -0.128 NA
ATOM     23  N   UNL     1       0.722   3.415  -0.143  0.00  0.00    -0.122 NA
ATOM     24  C   UNL     1      -0.580   3.596  -0.166  0.00  0.00    +0.192 A 
BRANCH  21  25
ATOM     25  C   UNL     1      -0.234   0.050   0.509  0.00  0.00    +0.037 A 
ATOM     26  C   UNL     1      -1.433  -0.492   0.985  0.00  0.00    +0.014 A 
ATOM     27  C   UNL     1      -1.487  -1.853   1.229  0.00  0.00    +0.020 A 
ATOM     28  C   UNL     1      -0.364  -2.627   0.997  0.00  0.00    +0.111 A 
ATOM     29  N   UNL     1       0.753  -2.089   0.547  0.00  0.00    -0.263 NA
ATOM     30  C   UNL     1       0.852  -0.800   0.295  0.00  0.00    +0.122 A 
ENDBRANCH  21  25
ENDBRANCH  18  24
ENDBRANCH  17  18
ENDBRANCH   1  17
TORSDOF 6
