REMARK  Name = ZINC66516459
REMARK  6 active torsions:
REMARK  status: ('A' for Active; 'I' for Inactive)
REMARK    1  A    between atoms: C_8  and  C_10
REMARK    2  A    between atoms: C_10  and  C_12
REMARK    3  A    between atoms: C_10  and  C_14
REMARK    4  A    between atoms: C_14  and  C_16
REMARK    5  A    between atoms: C_19  and  N_22
REMARK    6  A    between atoms: C_25  and  C_27
REMARK                            x       y       z     vdW  Elec       q    Type
REMARK                         _______ _______ _______ _____ _____    ______ ____
ROOT
ATOM      1  C   UNL     1       4.818  -4.734  -1.901  0.00  0.00    +0.019 A 
ATOM      2  C   UNL     1       4.325  -5.917  -1.336  0.00  0.00    +0.013 A 
ATOM      3  C   UNL     1       4.628  -7.130  -1.911  0.00  0.00    +0.028 A 
ATOM      4  C   UNL     1       5.423  -7.183  -3.051  0.00  0.00    +0.065 A 
ATOM      5  C   UNL     1       5.915  -6.010  -3.616  0.00  0.00    +0.028 A 
ATOM      6  C   UNL     1       5.612  -4.792  -3.052  0.00  0.00    +0.013 A 
ENDROOT
BRANCH   4   7
ATOM      7  N   UNL     1       5.728  -8.417  -3.631  0.00  0.00    -0.239 N 
ATOM      8  C   UNL     1       6.493  -8.615  -4.736  0.00  0.00    +0.115 A 
ATOM      9  C   UNL     1       6.543  -9.947  -4.966  0.00  0.00    +0.054 A 
ATOM     10  C   UNL     1       5.788 -10.585  -3.975  0.00  0.00    +0.166 A 
ATOM     11  N   UNL     1       5.305  -9.671  -3.172  0.00  0.00    -0.162 NA
BRANCH  10  12
ATOM     12  C   UNL     1       5.573 -12.071  -3.850  0.00  0.00    +0.436 C 
ATOM     13  F   UNL     1       6.581 -12.622  -3.051  0.00  0.00    -0.164 F 
ATOM     14  F   UNL     1       4.327 -12.314  -3.262  0.00  0.00    -0.164 F 
ATOM     15  F   UNL     1       5.612 -12.656  -5.120  0.00  0.00    -0.164 F 
ENDBRANCH  10  12
ENDBRANCH   4   7
BRANCH   1  16
ATOM     16  C   UNL     1       4.498  -3.436  -1.291  0.00  0.00    +0.189 C 
ATOM     17  O   UNL     1       4.921  -2.413  -1.785  0.00  0.00    -0.290 OA
BRANCH  16  18
ATOM     18  C   UNL     1       3.642  -3.377  -0.051  0.00  0.00    +0.247 C 
BRANCH  18  26
ATOM     19  C   UNL     1      -0.017   1.373   0.010  0.00  0.00    +0.002 A 
ATOM     20  C   UNL     1       1.170   2.091   0.002  0.00  0.00    +0.004 A 
ATOM     21  C   UNL     1       2.384   1.437  -0.013  0.00  0.00    +0.048 A 
ATOM     22  C   UNL     1       2.421   0.051  -0.021  0.00  0.00    +0.155 A 
ATOM     23  C   UNL     1       1.223  -0.680  -0.013  0.00  0.00    +0.110 A 
ATOM     24  C   UNL     1       0.002  -0.004   0.002  0.00  0.00    +0.031 A 
ATOM     25  N   UNL     1       1.572  -1.995  -0.024  0.00  0.00    -0.212 NA
ATOM     26  C   UNL     1       2.868  -2.084  -0.037  0.00  0.00    +0.221 A 
ATOM     27  O   UNL     1       3.419  -0.860  -0.036  0.00  0.00    -0.438 OA
ENDBRANCH  18  26
BRANCH  18  28
ATOM     28  C   UNL     1       4.502  -3.448   1.141  0.00  0.00    +0.084 C 
ATOM     29  N   UNL     1       5.165  -3.503   2.062  0.00  0.00    -0.195 NA
ENDBRANCH  18  28
ENDBRANCH  16  18
ENDBRANCH   1  16
TORSDOF 6
