REMARK  Name = ZINC41646109
REMARK  9 active torsions:
REMARK  status: ('A' for Active; 'I' for Inactive)
REMARK    1  A    between atoms: C_1  and  C_2
REMARK    2  A    between atoms: C_11  and  C_12
REMARK    3  A    between atoms: C_15  and  C_18
REMARK    4  A    between atoms: C_18  and  O_20
REMARK    5  A    between atoms: O_20  and  C_21
REMARK    6  A    between atoms: N_24  and  C_27
REMARK    7  A    between atoms: C_27  and  C_28
REMARK    8  A    between atoms: C_28  and  C_29
REMARK    9  A    between atoms: C_28  and  C_30
REMARK                            x       y       z     vdW  Elec       q    Type
REMARK                         _______ _______ _______ _____ _____    ______ ____
ROOT
ATOM      1  C   UNL     1       0.416   1.357   0.450  0.00  0.00    +0.045 C 
ATOM      2  C   UNL     1       0.357  -0.145   0.351  0.00  0.00    -0.033 A 
ATOM      3  C   UNL     1       0.281  -0.748  -0.872  0.00  0.00    +0.050 A 
ATOM      4  C   UNL     1       0.227  -2.138  -0.970  0.00  0.00    +0.131 A 
ATOM      5  C   UNL     1       0.251  -2.922   0.171  0.00  0.00    +0.051 A 
ATOM      6  C   UNL     1       0.324  -2.324   1.424  0.00  0.00    +0.148 A 
ATOM      7  C   UNL     1       0.384  -0.924   1.508  0.00  0.00    +0.071 A 
ATOM      8  C   UNL     1       0.464  -0.596   2.943  0.00  0.00    +0.232 C 
ATOM      9  O   UNL     1       0.528   0.508   3.454  0.00  0.00    -0.283 OA
ATOM     10  C   UNL     1       0.449  -1.905   3.621  0.00  0.00    +0.176 C 
ATOM     11  C   UNL     1       0.505  -2.115   4.959  0.00  0.00    +0.058 C 
ATOM     12  O   UNL     1       0.358  -2.858   2.665  0.00  0.00    -0.451 OA
ATOM     13  C   UNL     1       0.201  -4.426   0.079  0.00  0.00    +0.130 C 
ATOM     14  N   UNL     1      -0.281  -4.822  -1.252  0.00  0.00    -0.266 NA
ATOM     15  C   UNL     1       0.463  -4.099  -2.297  0.00  0.00    +0.318 C 
ATOM     16  O   UNL     1       0.149  -2.708  -2.201  0.00  0.00    -0.476 OA
ENDROOT
BRANCH  11  17
ATOM     17  C   UNL     1       0.371  -3.477   5.496  0.00  0.00    -0.021 A 
ATOM     18  C   UNL     1       0.298  -3.682   6.879  0.00  0.00    +0.009 A 
ATOM     19  C   UNL     1       0.173  -4.952   7.378  0.00  0.00    +0.015 A 
ATOM     20  C   UNL     1       0.118  -6.044   6.506  0.00  0.00    +0.059 A 
ATOM     21  C   UNL     1       0.191  -5.841   5.125  0.00  0.00    +0.015 A 
ATOM     22  C   UNL     1       0.311  -4.571   4.623  0.00  0.00    +0.009 A 
BRANCH  20  23
ATOM     23  C   UNL     1      -0.016  -7.412   7.045  0.00  0.00    +0.339 C 
ATOM     24  O   UNL     1      -0.079  -7.589   8.245  0.00  0.00    -0.245 OA
BRANCH  23  25
ATOM     25  O   UNL     1      -0.069  -8.465   6.206  0.00  0.00    -0.464 OA
ATOM     26  C   UNL     1      -0.199  -9.760   6.796  0.00  0.00    +0.280 C 
ENDBRANCH  23  25
ENDBRANCH  20  23
ENDBRANCH  11  17
BRANCH  14  27
ATOM     27  C   UNL     1      -0.176  -6.275  -1.440  0.00  0.00    +0.091 C 
BRANCH  27  28
ATOM     28  C   UNL     1      -1.294  -6.972  -0.662  0.00  0.00    -0.003 C 
ATOM     29  C   UNL     1      -2.650  -6.557  -1.236  0.00  0.00    +0.008 C 
ATOM     30  C   UNL     1      -1.131  -8.488  -0.783  0.00  0.00    +0.008 C 
ENDBRANCH  27  28
ENDBRANCH  14  27
TORSDOF 5
