REMARK  Name = ZINC35882458
REMARK  5 active torsions:
REMARK  status: ('A' for Active; 'I' for Inactive)
REMARK    1  A    between atoms: C_2  and  C_3
REMARK    2  A    between atoms: C_3  and  N_4
REMARK    3  A    between atoms: N_11  and  C_22
REMARK    4  A    between atoms: N_14  and  C_15
REMARK    5  A    between atoms: C_22  and  C_23
REMARK                            x       y       z     vdW  Elec       q    Type
REMARK                         _______ _______ _______ _____ _____    ______ ____
ROOT
ATOM      1  N   UNL     1       2.412  -2.546   0.530  0.00  0.00    -0.321 N 
ATOM      2  C   UNL     1       3.277  -2.580   1.562  0.00  0.00    +0.202 A 
ATOM      3  N   UNL     1       2.816  -3.371   2.497  0.00  0.00    -0.217 NA
ATOM      4  C   UNL     1       1.642  -3.883   2.119  0.00  0.00    +0.173 A 
ATOM      5  C   UNL     1       1.353  -3.367   0.862  0.00  0.00    +0.152 A 
ATOM      6  C   UNL     1       0.152  -3.743   0.223  0.00  0.00    +0.283 A 
ATOM      7  O   UNL     1      -0.121  -3.307  -0.880  0.00  0.00    -0.265 OA
ATOM      8  N   UNL     1      -0.689  -4.593   0.849  0.00  0.00    -0.254 N 
ATOM      9  C   UNL     1      -0.399  -5.083   2.067  0.00  0.00    +0.338 A 
ATOM     10  O   UNL     1      -1.181  -5.846   2.600  0.00  0.00    -0.246 OA
ATOM     11  N   UNL     1       0.739  -4.755   2.708  0.00  0.00    -0.245 N 
ENDROOT
BRANCH  11  12
ATOM     12  C   UNL     1       1.004  -5.285   3.977  0.00  0.00    +0.053 A 
ATOM     13  C   UNL     1       1.700  -6.481   4.100  0.00  0.00    +0.028 A 
ATOM     14  C   UNL     1       1.960  -7.002   5.352  0.00  0.00    +0.022 A 
ATOM     15  C   UNL     1       1.528  -6.333   6.484  0.00  0.00    +0.041 A 
ATOM     16  C   UNL     1       0.834  -5.142   6.364  0.00  0.00    +0.022 A 
ATOM     17  C   UNL     1       0.577  -4.614   5.115  0.00  0.00    +0.028 A 
ATOM     18 CL   UNL     1       1.856  -6.991   8.057  0.00  0.00    -0.084 Cl
ENDBRANCH  11  12
BRANCH   1  19
ATOM     19  C   UNL     1       2.563  -1.777  -0.709  0.00  0.00    +0.150 C 
BRANCH  19  21
ATOM     20  C   UNL     1       2.487   0.662  -0.783  0.00  0.00    +0.005 C 
ATOM     21  C   UNL     1       1.844  -0.460  -0.574  0.00  0.00    -0.013 C 
ENDBRANCH  19  21
ENDBRANCH   1  19
BRANCH   8  22
ATOM     22  C   UNL     1      -1.937  -4.987   0.191  0.00  0.00    +0.165 C 
BRANCH  22  23
ATOM     23  C   UNL     1      -1.700  -6.224  -0.636  0.00  0.00    -0.027 A 
ATOM     24  C   UNL     1      -1.305  -6.107  -1.956  0.00  0.00    +0.008 A 
ATOM     25  C   UNL     1      -1.087  -7.241  -2.716  0.00  0.00    +0.038 A 
ATOM     26  C   UNL     1      -1.264  -8.494  -2.155  0.00  0.00    +0.123 A 
ATOM     27  C   UNL     1      -1.659  -8.610  -0.833  0.00  0.00    +0.038 A 
ATOM     28  C   UNL     1      -1.871  -7.475  -0.073  0.00  0.00    +0.008 A 
ATOM     29  F   UNL     1      -1.051  -9.603  -2.896  0.00  0.00    -0.205 F 
ENDBRANCH  22  23
ENDBRANCH   8  22
TORSDOF 5
