REMARK  Name = ZINC10125699
REMARK  9 active torsions:
REMARK  status: ('A' for Active; 'I' for Inactive)
REMARK    1  A    between atoms: C_1  and  C_2
REMARK    2  A    between atoms: C_2  and  C_3
REMARK    3  A    between atoms: C_3  and  C_4
REMARK    4  A    between atoms: C_4  and  C_5
REMARK    5  A    between atoms: C_5  and  C_7
REMARK    6  A    between atoms: C_5  and  N_20
REMARK    7  A    between atoms: N_9  and  N_10
REMARK    8  A    between atoms: C_11  and  C_13
REMARK    9  A    between atoms: C_18  and  O_19
REMARK                            x       y       z     vdW  Elec       q    Type
REMARK                         _______ _______ _______ _____ _____    ______ ____
ROOT
ATOM      1  C   UNL     1       4.707   4.633  -0.015  0.00  0.00    +0.159 C 
ENDROOT
BRANCH   1   2
ATOM      2  N   UNL     1       3.598   3.675  -0.011  0.00  0.00    -0.316 N 
ATOM      3  C   UNL     1       2.297   4.128   0.004  0.00  0.00    +0.150 C 
ATOM      4  N   UNL     1       2.045   5.398   0.014  0.00  0.00    -0.113 NA
ATOM      5  S   UNL     1       0.377   5.534   0.030  0.00  0.00    +0.101 S 
ATOM      6  O   UNL     1      -0.001   6.075   1.288  0.00  0.00    -0.146 OA
ATOM      7  O   UNL     1      -0.024   6.091  -1.214  0.00  0.00    -0.146 OA
ATOM      8  C   UNL     1      -0.067   3.819   0.024  0.00  0.00    +0.123 A 
ATOM      9  C   UNL     1       1.177   3.173   0.008  0.00  0.00    +0.043 A 
ATOM     10  C   UNL     1       1.177   1.770   0.000  0.00  0.00    +0.013 A 
ATOM     11  C   UNL     1      -0.013   1.076   0.008  0.00  0.00    +0.001 A 
ATOM     12  C   UNL     1      -1.226   1.741   0.017  0.00  0.00    +0.002 A 
ATOM     13  C   UNL     1      -1.244   3.129   0.030  0.00  0.00    +0.030 A 
ATOM     14  H   UNL     1       3.780   2.722  -0.018  0.00  0.00    +0.148 HD
ENDBRANCH   1   2
BRANCH   1  15
ATOM     15  C   UNL     1       5.923   3.990  -0.630  0.00  0.00    +0.249 C 
ATOM     16  O   UNL     1       5.869   2.845  -1.026  0.00  0.00    -0.272 OA
ATOM     17  N   UNL     1       7.071   4.688  -0.740  0.00  0.00    -0.233 N 
ATOM     18  H   UNL     1       7.114   5.604  -0.424  0.00  0.00    +0.173 HD
BRANCH  17  19
ATOM     19  N   UNL     1       8.202   4.091  -1.312  0.00  0.00    -0.230 N 
ATOM     20  C   UNL     1       9.349   4.788  -1.423  0.00  0.00    +0.264 C 
ATOM     21  O   UNL     1       9.403   5.937  -1.026  0.00  0.00    -0.269 OA
ATOM     22  H   UNL     1       8.159   3.175  -1.629  0.00  0.00    +0.173 HD
BRANCH  20  23
ATOM     23  C   UNL     1      10.540   4.159  -2.025  0.00  0.00    +0.079 A 
ATOM     24  C   UNL     1      10.484   2.839  -2.477  0.00  0.00    +0.017 A 
ATOM     25  C   UNL     1      11.599   2.258  -3.042  0.00  0.00    +0.001 A 
ATOM     26  C   UNL     1      12.779   2.976  -3.156  0.00  0.00    +0.004 A 
ATOM     27  C   UNL     1      12.849   4.280  -2.709  0.00  0.00    +0.046 A 
ATOM     28  C   UNL     1      11.736   4.881  -2.141  0.00  0.00    +0.129 A 
BRANCH  28  29
ATOM     29  O   UNL     1      11.804   6.162  -1.701  0.00  0.00    -0.506 OA
ATOM     30  H   UNL     1      12.075   6.247  -0.776  0.00  0.00    +0.292 HD
ENDBRANCH  28  29
ENDBRANCH  20  23
ENDBRANCH  17  19
ENDBRANCH   1  15
BRANCH   1  31
ATOM     31  C   UNL     1       5.023   5.053   1.422  0.00  0.00    +0.032 C 
BRANCH  31  32
ATOM     32  C   UNL     1       3.832   5.816   2.004  0.00  0.00    +0.002 C 
BRANCH  32  34
ATOM     33  C   UNL     1       2.957   6.999   4.024  0.00  0.00    +0.004 C 
ATOM     34  C   UNL     1       4.148   6.236   3.441  0.00  0.00    -0.003 C 
ENDBRANCH  32  34
ENDBRANCH  31  32
ENDBRANCH   1  31
TORSDOF 8
