REMARK  Name = ZINC36531083
REMARK  16 active torsions:
REMARK  status: ('A' for Active; 'I' for Inactive)
REMARK    1  A    between atoms: C_1  and  C_2
REMARK    2  A    between atoms: C_2  and  C_3
REMARK    3  A    between atoms: C_2  and  C_4
REMARK    4  A    between atoms: C_2  and  C_5
REMARK    5  A    between atoms: C_5  and  C_6
REMARK    6  A    between atoms: C_6  and  C_7
REMARK    7  A    between atoms: C_6  and  C_8
REMARK    8  A    between atoms: C_6  and  N_9
REMARK    9  A    between atoms: C_10  and  C_12
REMARK   10  A    between atoms: C_12  and  C_14
REMARK   11  A    between atoms: C_12  and  N_24
REMARK   12  A    between atoms: C_16  and  N_21
REMARK   13  A    between atoms: N_24  and  C_25
REMARK   14  A    between atoms: C_26  and  C_28
REMARK   15  A    between atoms: C_29  and  O_35
REMARK   16  A    between atoms: C_33  and  O_34
REMARK                            x       y       z     vdW  Elec       q    Type
REMARK                         _______ _______ _______ _____ _____    ______ ____
ROOT
ATOM      1  C   UNL     1       5.393  -0.478  -4.285  0.00  0.00    +0.194 C 
ENDROOT
BRANCH   1   2
ATOM      2  C   UNL     1       5.300  -1.963  -4.521  0.00  0.00    +0.002 A 
ATOM      3  C   UNL     1       4.787  -2.789  -3.538  0.00  0.00    +0.040 A 
ATOM      4  C   UNL     1       4.703  -4.152  -3.755  0.00  0.00    +0.127 A 
ATOM      5  C   UNL     1       5.131  -4.689  -4.955  0.00  0.00    +0.034 A 
ATOM      6  C   UNL     1       5.643  -3.865  -5.938  0.00  0.00    +0.022 A 
ATOM      7  C   UNL     1       5.723  -2.500  -5.724  0.00  0.00    +0.047 A 
ATOM      8 CL   UNL     1       6.360  -1.462  -6.962  0.00  0.00    -0.083 Cl
BRANCH   4   9
ATOM      9  N   UNL     1       4.154  -5.035  -2.702  0.00  0.00    +0.056 N 
ATOM     10  O   UNL     1       3.780  -4.565  -1.653  0.00  0.00    -0.126 OA
ATOM     11  O   UNL     1       4.080  -6.227  -2.891  0.00  0.00    -0.126 OA
ENDBRANCH   4   9
ENDBRANCH   1   2
BRANCH   1  13
ATOM     12  N   UNL     1       3.196  -0.341  -3.155  0.00  0.00    -0.308 N 
ATOM     13  C   UNL     1       4.522  -0.100  -3.114  0.00  0.00    +0.239 C 
ATOM     14  O   UNL     1       5.014   0.421  -2.135  0.00  0.00    -0.273 OA
ATOM     15  H   UNL     1       2.803  -0.758  -3.938  0.00  0.00    +0.149 HD
BRANCH  12  16
ATOM     16  C   UNL     1       2.350   0.026  -2.018  0.00  0.00    +0.030 C 
ATOM     17  C   UNL     1       2.565   1.502  -1.677  0.00  0.00    +0.031 C 
ATOM     18  C   UNL     1       2.719  -0.835  -0.808  0.00  0.00    +0.031 C 
BRANCH  16  19
ATOM     19  C   UNL     1       0.881  -0.205  -2.379  0.00  0.00    +0.031 C 
BRANCH  19  21
ATOM     20  C   UNL     1       1.068  -0.724  -4.816  0.00  0.00    +0.010 C 
ATOM     21  C   UNL     1       0.615   0.319  -3.792  0.00  0.00    -0.036 C 
ATOM     22  C   UNL     1       1.393   1.618  -4.009  0.00  0.00    +0.010 C 
ATOM     23  C   UNL     1      -0.881   0.586  -3.964  0.00  0.00    +0.010 C 
ENDBRANCH  19  21
ENDBRANCH  16  19
ENDBRANCH  12  16
ENDBRANCH   1  13
BRANCH   1  24
ATOM     24  N   UNL     1       6.783  -0.115  -3.996  0.00  0.00    -0.285 N 
ATOM     25  C   UNL     1       7.511  -0.798  -2.924  0.00  0.00    +0.133 C 
ATOM     26  C   UNL     1       7.392   0.847  -4.717  0.00  0.00    +0.254 C 
ATOM     27  O   UNL     1       6.788   1.414  -5.607  0.00  0.00    -0.270 OA
BRANCH  26  28
ATOM     28  C   UNL     1       8.789   1.211  -4.427  0.00  0.00    +0.119 A 
ATOM     29  C   UNL     1       9.840   0.555  -5.083  0.00  0.00    +0.133 A 
ATOM     30  C   UNL     1      11.151   0.907  -4.803  0.00  0.00    +0.046 A 
ATOM     31  C   UNL     1      11.424   1.899  -3.880  0.00  0.00    +0.007 A 
ATOM     32  C   UNL     1      10.395   2.552  -3.228  0.00  0.00    +0.046 A 
ATOM     33  C   UNL     1       9.077   2.221  -3.497  0.00  0.00    +0.133 A 
BRANCH  33  34
ATOM     34  O   UNL     1       8.068   2.867  -2.859  0.00  0.00    -0.506 OA
ATOM     35  H   UNL     1       7.799   2.452  -2.028  0.00  0.00    +0.292 HD
ENDBRANCH  33  34
BRANCH  29  36
ATOM     36  O   UNL     1       9.575  -0.419  -5.988  0.00  0.00    -0.506 OA
ATOM     37  H   UNL     1       9.474  -0.098  -6.894  0.00  0.00    +0.292 HD
ENDBRANCH  29  36
ENDBRANCH  26  28
ENDBRANCH   1  24
TORSDOF 10
