REMARK  Name = ZINC51169308
REMARK  5 active torsions:
REMARK  status: ('A' for Active; 'I' for Inactive)
REMARK    1  A    between atoms: C_1  and  C_2
REMARK    2  A    between atoms: C_2  and  C_3
REMARK    3  A    between atoms: C_4  and  C_16
REMARK    4  A    between atoms: C_8  and  N_9
REMARK    5  A    between atoms: N_9  and  N_10
REMARK                            x       y       z     vdW  Elec       q    Type
REMARK                         _______ _______ _______ _____ _____    ______ ____
ROOT
ATOM      1  C   UNL     1       0.724  -0.404  -1.266  0.00  0.00    -0.006 A 
ATOM      2  C   UNL     1       0.006  -0.637  -2.431  0.00  0.00    +0.018 A 
ATOM      3  N   UNL     1       0.570  -1.143  -3.503  0.00  0.00    -0.357 N 
ATOM      4  C   UNL     1       1.869  -1.461  -3.530  0.00  0.00    +0.062 A 
ATOM      5  C   UNL     1       2.671  -1.254  -2.382  0.00  0.00    +0.022 A 
ATOM      6  C   UNL     1       2.077  -0.704  -1.221  0.00  0.00    +0.055 A 
ATOM      7  C   UNL     1       4.032  -1.589  -2.416  0.00  0.00    +0.012 A 
ATOM      8  C   UNL     1       4.569  -2.111  -3.554  0.00  0.00    +0.002 A 
ATOM      9  C   UNL     1       3.784  -2.317  -4.685  0.00  0.00    +0.016 A 
ATOM     10  C   UNL     1       2.458  -2.002  -4.686  0.00  0.00    +0.037 A 
ATOM     11  I   UNL     1       1.303  -2.323  -6.403  0.00  0.00    -0.042 I 
ATOM     12  C   UNL     1      -1.462  -0.299  -2.466  0.00  0.00    +0.063 C 
ATOM     13  H   UNL     1       0.031  -1.290  -4.296  0.00  0.00    +0.166 HD
ENDROOT
BRANCH   1  15
ATOM     14  C   UNL     1       0.116   1.705  -0.112  0.00  0.00    +0.009 C 
ATOM     15  C   UNL     1       0.038   0.178  -0.057  0.00  0.00    +0.035 C 
ENDBRANCH   1  15
BRANCH   6  16
ATOM     16  N   UNL     1       2.822  -0.477  -0.074  0.00  0.00    -0.282 N 
ATOM     17  H   UNL     1       2.631   0.292   0.484  0.00  0.00    +0.166 HD
BRANCH  16  18
ATOM     18  N   UNL     1       3.826  -1.337   0.269  0.00  0.00    -0.256 NA
ATOM     19  H   UNL     1       4.277  -1.045   1.123  0.00  0.00    +0.140 HD
ATOM     20  H   UNL     1       3.481  -2.283   0.347  0.00  0.00    +0.140 HD
ENDBRANCH  16  18
ENDBRANCH   6  16
TORSDOF 3
