REMARK  Name = ZINC02498963
REMARK  6 active torsions:
REMARK  status: ('A' for Active; 'I' for Inactive)
REMARK    1  A    between atoms: C_5  and  S_7
REMARK    2  A    between atoms: S_7  and  N_10
REMARK    3  A    between atoms: C_14  and  C_17
REMARK    4  A    between atoms: N_19  and  C_20
REMARK    5  A    between atoms: C_20  and  C_21
REMARK    6  A    between atoms: C_21  and  C_22
REMARK                            x       y       z     vdW  Elec       q    Type
REMARK                         _______ _______ _______ _____ _____    ______ ____
ROOT
ATOM      1  N   UNL     1      -0.020   1.652   0.011  0.00  0.00    -0.176 NA
ATOM      2  C   UNL     1       1.234   2.417   0.003  0.00  0.00    +0.109 C 
ATOM      3  C   UNL     1       1.195   3.415  -1.159  0.00  0.00    +0.018 C 
ATOM      4  C   UNL     1      -0.066   4.275  -1.046  0.00  0.00    +0.015 C 
ATOM      5  C   UNL     1      -1.305   3.381  -1.136  0.00  0.00    +0.091 C 
ATOM      6  C   UNL     1      -1.295   2.383   0.021  0.00  0.00    +0.122 C 
ENDROOT
BRANCH   5   7
ATOM      7  C   UNL     1      -2.546   4.232  -1.058  0.00  0.00    +0.217 C 
ATOM      8  O   UNL     1      -3.346   4.057  -0.164  0.00  0.00    -0.275 OA
ATOM      9  N   UNL     1      -2.767   5.187  -1.983  0.00  0.00    -0.315 N 
ATOM     10  H   UNL     1      -2.127   5.327  -2.698  0.00  0.00    +0.149 HD
BRANCH   9  11
ATOM     11  C   UNL     1      -3.974   6.015  -1.907  0.00  0.00    +0.108 C 
BRANCH  11  12
ATOM     12  C   UNL     1      -3.981   7.013  -3.067  0.00  0.00    +0.049 C 
BRANCH  12  13
ATOM     13  C   UNL     1      -5.222   7.864  -2.989  0.00  0.00    -0.072 C 
ATOM     14  C   UNL     1      -5.137   9.008  -2.389  0.00  0.00    -0.028 C 
ATOM     15  C   UNL     1      -6.285   9.961  -2.228  0.00  0.00    +0.027 C 
ATOM     16  C   UNL     1      -7.411   9.599  -3.199  0.00  0.00    +0.004 C 
ATOM     17  C   UNL     1      -7.694   8.097  -3.076  0.00  0.00    +0.005 C 
ATOM     18  C   UNL     1      -6.481   7.330  -3.607  0.00  0.00    +0.030 C 
ENDBRANCH  12  13
ENDBRANCH  11  12
ENDBRANCH   9  11
ENDBRANCH   5   7
BRANCH   1  19
ATOM     19  S   UNL     1       0.002  -0.004   0.002  0.00  0.00    +0.063 S 
ATOM     20  O   UNL     1      -1.243  -0.424  -0.539  0.00  0.00    -0.153 OA
ATOM     21  O   UNL     1       1.248  -0.390  -0.563  0.00  0.00    -0.153 OA
BRANCH  19  26
ATOM     22  C   UNL     1      -1.039  -1.664   3.526  0.00  0.00    +0.004 A 
ATOM     23  C   UNL     1      -0.011  -1.420   4.375  0.00  0.00    +0.033 A 
ATOM     24  C   UNL     1       1.112  -0.707   3.914  0.00  0.00    +0.136 A 
ATOM     25  C   UNL     1       1.131  -0.243   2.504  0.00  0.00    +0.160 A 
ATOM     26  C   UNL     1       0.025  -0.534   1.682  0.00  0.00    +0.136 A 
ATOM     27  C   UNL     1      -1.024  -1.221   2.197  0.00  0.00    +0.031 A 
ATOM     28  N   UNL     1       2.287   0.367   2.416  0.00  0.00    -0.047 NA
ATOM     29  O   UNL     1       2.852   0.305   3.489  0.00  0.00    -0.242 OA
ATOM     30  N   UNL     1       2.261  -0.278   4.375  0.00  0.00    -0.049 NA
ENDBRANCH  19  26
ENDBRANCH   1  19
TORSDOF 6
