REMARK  Name = ZINC62522563
REMARK  6 active torsions:
REMARK  status: ('A' for Active; 'I' for Inactive)
REMARK    1  A    between atoms: C_6  and  C_7
REMARK    2  A    between atoms: C_7  and  C_8
REMARK    3  A    between atoms: C_7  and  N_21
REMARK    4  A    between atoms: C_8  and  N_9
REMARK    5  A    between atoms: N_12  and  N_13
REMARK    6  A    between atoms: C_14  and  C_16
REMARK                            x       y       z     vdW  Elec       q    Type
REMARK                         _______ _______ _______ _____ _____    ______ ____
ROOT
ATOM      1  C   UNL     1      -1.465  -1.197  -1.400  0.00  0.00    +0.129 C 
ENDROOT
BRANCH   1   2
ATOM      2  N   UNL     1      -1.830  -0.045  -2.229  0.00  0.00    -0.296 N 
ATOM      3  C   UNL     1      -2.141  -0.221  -3.528  0.00  0.00    +0.316 C 
ATOM      4  O   UNL     1      -2.120  -1.336  -4.013  0.00  0.00    -0.251 OA
ATOM      5  N   UNL     1      -2.477   0.838  -4.291  0.00  0.00    -0.218 N 
ATOM      6  H   UNL     1      -1.847   0.845  -1.842  0.00  0.00    +0.150 HD
ATOM      7  H   UNL     1      -2.701   0.712  -5.226  0.00  0.00    +0.174 HD
BRANCH   5   8
ATOM      8  N   UNL     1      -2.501   2.123  -3.732  0.00  0.00    -0.231 N 
ATOM      9  C   UNL     1      -2.837   3.183  -4.495  0.00  0.00    +0.258 C 
ATOM     10  O   UNL     1      -3.117   3.024  -5.664  0.00  0.00    -0.271 OA
ATOM     11  H   UNL     1      -2.277   2.250  -2.797  0.00  0.00    +0.173 HD
BRANCH   9  12
ATOM     12  C   UNL     1      -2.864   4.565  -3.894  0.00  0.00    +0.205 C 
ATOM     13  C   UNL     1      -3.974   4.650  -2.825  0.00  0.00    +0.043 C 
ATOM     14  C   UNL     1      -4.552   6.072  -3.063  0.00  0.00    +0.031 C 
ATOM     15  C   UNL     1      -4.397   6.199  -4.600  0.00  0.00    +0.161 C 
ATOM     16  O   UNL     1      -3.165   5.530  -4.909  0.00  0.00    -0.367 OA
ENDBRANCH   9  12
ENDBRANCH   5   8
ENDBRANCH   1   2
BRANCH   1  17
ATOM     17  C   UNL     1      -1.257  -0.740   0.045  0.00  0.00    +0.104 C 
BRANCH  17  23
ATOM     18  C   UNL     1      -0.332   1.583   0.160  0.00  0.00    +0.006 A 
ATOM     19  C   UNL     1       0.731   2.466   0.216  0.00  0.00    +0.020 A 
ATOM     20  C   UNL     1       2.029   1.986   0.217  0.00  0.00    +0.041 A 
ATOM     21  C   UNL     1       2.262   0.623   0.162  0.00  0.00    +0.020 A 
ATOM     22  C   UNL     1       1.199  -0.258   0.107  0.00  0.00    +0.006 A 
ATOM     23  C   UNL     1      -0.098   0.222   0.105  0.00  0.00    -0.029 A 
ATOM     24 CL   UNL     1       3.364   3.094   0.286  0.00  0.00    -0.084 Cl
ENDBRANCH  17  23
BRANCH  17  25
ATOM     25  N   UNL     1      -0.970  -1.906   0.891  0.00  0.00    -0.290 NA
ATOM     26  C   UNL     1      -2.052  -2.897   0.805  0.00  0.00    +0.113 C 
ATOM     27  C   UNL     1      -1.685  -4.119   1.653  0.00  0.00    +0.175 C 
ATOM     28  O   UNL     1      -1.438  -3.702   2.998  0.00  0.00    -0.377 OA
ATOM     29  C   UNL     1      -0.390  -2.737   3.119  0.00  0.00    +0.175 C 
ATOM     30  C   UNL     1      -0.743  -1.502   2.286  0.00  0.00    +0.113 C 
ENDBRANCH  17  25
ENDBRANCH   1  17
TORSDOF 6
