REMARK  Name = ZINC63547515
REMARK  7 active torsions:
REMARK  status: ('A' for Active; 'I' for Inactive)
REMARK    1  A    between atoms: C_1  and  O_2
REMARK    2  A    between atoms: O_2  and  C_3
REMARK    3  A    between atoms: C_6  and  N_9
REMARK    4  A    between atoms: C_11  and  C_21
REMARK    5  A    between atoms: N_23  and  C_24
REMARK    6  A    between atoms: C_24  and  C_25
REMARK    7  A    between atoms: C_25  and  C_26
REMARK                            x       y       z     vdW  Elec       q    Type
REMARK                         _______ _______ _______ _____ _____    ______ ____
ROOT
ATOM      1  N   UNL     1       2.045  -2.566  -4.179  0.00  0.00    -0.266 N 
ATOM      2  C   UNL     1       2.188  -4.018  -4.262  0.00  0.00    +0.131 C 
ATOM      3  C   UNL     1       2.333  -4.471  -5.712  0.00  0.00    +0.123 C 
ATOM      4  C   UNL     1       3.404  -3.668  -6.401  0.00  0.00    -0.022 A 
ATOM      5  C   UNL     1       4.191  -4.239  -7.379  0.00  0.00    +0.005 A 
ATOM      6  C   UNL     1       5.163  -3.483  -8.012  0.00  0.00    +0.000 A 
ATOM      7  C   UNL     1       5.350  -2.155  -7.672  0.00  0.00    +0.001 A 
ATOM      8  C   UNL     1       4.572  -1.573  -6.691  0.00  0.00    +0.013 A 
ATOM      9  C   UNL     1       3.598  -2.332  -6.045  0.00  0.00    +0.041 A 
ATOM     10  C   UNL     1       2.769  -1.751  -4.969  0.00  0.00    +0.251 C 
ATOM     11  O   UNL     1       2.745  -0.547  -4.796  0.00  0.00    -0.270 OA
ENDROOT
BRANCH   1  15
ATOM     12  C   UNL     1      -0.659  -0.923  -1.465  0.00  0.00    +0.120 A 
ATOM     13  C   UNL     1      -1.034  -1.115  -2.787  0.00  0.00    +0.047 A 
ATOM     14  C   UNL     1      -0.138  -1.659  -3.686  0.00  0.00    +0.027 A 
ATOM     15  C   UNL     1       1.137  -2.014  -3.267  0.00  0.00    +0.037 A 
ATOM     16  C   UNL     1       1.511  -1.821  -1.944  0.00  0.00    +0.027 A 
ATOM     17  C   UNL     1       0.617  -1.272  -1.047  0.00  0.00    +0.047 A 
BRANCH  12  19
ATOM     18  C   UNL     1      -2.837  -0.050  -1.078  0.00  0.00    +0.277 C 
ATOM     19  O   UNL     1      -1.541  -0.387  -0.580  0.00  0.00    -0.495 OA
ENDBRANCH  12  19
ENDBRANCH   1  15
BRANCH   3  20
ATOM     20  C   UNL     1       2.707  -5.931  -5.744  0.00  0.00    +0.222 C 
ATOM     21  O   UNL     1       3.528  -6.364  -4.964  0.00  0.00    -0.275 OA
ATOM     22  N   UNL     1       2.129  -6.755  -6.641  0.00  0.00    -0.314 N 
ATOM     23  H   UNL     1       1.527  -6.396  -7.311  0.00  0.00    +0.149 HD
BRANCH  22  24
ATOM     24  C   UNL     1       2.410  -8.192  -6.602  0.00  0.00    +0.108 C 
BRANCH  24  25
ATOM     25  C   UNL     1       1.633  -8.894  -7.718  0.00  0.00    +0.052 C 
BRANCH  25  26
ATOM     26  C   UNL     1       1.922 -10.372  -7.678  0.00  0.00    -0.040 C 
ATOM     27  C   UNL     1       1.187 -11.328  -7.066  0.00  0.00    -0.001 A 
ATOM     28  C   UNL     1      -0.054 -11.279  -6.283  0.00  0.00    +0.010 A 
ATOM     29  C   UNL     1      -0.562 -12.430  -5.786  0.00  0.00    +0.001 A 
ATOM     30  C   UNL     1       0.066 -13.665  -5.998  0.00  0.00    +0.002 A 
ATOM     31  C   UNL     1       1.209 -13.790  -6.706  0.00  0.00    +0.026 A 
ATOM     32  C   UNL     1       1.830 -12.645  -7.276  0.00  0.00    +0.043 A 
ATOM     33  N   UNL     1       2.921 -12.508  -7.990  0.00  0.00    -0.380 N 
ATOM     34  C   UNL     1       3.090 -11.088  -8.319  0.00  0.00    +0.144 C 
ATOM     35  H   UNL     1       3.515 -13.226  -8.260  0.00  0.00    +0.160 HD
ENDBRANCH  25  26
ENDBRANCH  24  25
ENDBRANCH  22  24
ENDBRANCH   3  20
TORSDOF 6
