REMARK  Name = ZINC08789966
REMARK  8 active torsions:
REMARK  status: ('A' for Active; 'I' for Inactive)
REMARK    1  A    between atoms: C_1  and  C_2
REMARK    2  A    between atoms: C_2  and  O_4
REMARK    3  A    between atoms: O_4  and  C_5
REMARK    4  A    between atoms: C_8  and  N_11
REMARK    5  A    between atoms: C_16  and  C_32
REMARK    6  A    between atoms: C_32  and  C_33
REMARK    7  A    between atoms: C_36  and  O_40
REMARK    8  A    between atoms: C_37  and  O_39
REMARK                            x       y       z     vdW  Elec       q    Type
REMARK                         _______ _______ _______ _____ _____    ______ ____
ROOT
ATOM      1  N   UNL     1      -4.548  -2.177   0.691  0.00  0.00    -0.210 N 
ATOM      2  C   UNL     1      -4.717  -0.891   0.363  0.00  0.00    +0.228 C 
ATOM      3  O   UNL     1      -4.984  -0.480  -0.746  0.00  0.00    -0.275 OA
ATOM      4  C   UNL     1      -4.522  -0.030   1.589  0.00  0.00    +0.074 C 
ATOM      5  C   UNL     1      -3.236   0.808   1.426  0.00  0.00    -0.053 C 
ATOM      6  C   UNL     1      -2.734  -0.757   3.087  0.00  0.00    +0.050 C 
ATOM      7  C   UNL     1      -4.187  -1.061   2.703  0.00  0.00    +0.088 C 
ATOM      8  C   UNL     1      -4.252  -2.388   1.978  0.00  0.00    +0.229 C 
ATOM      9  O   UNL     1      -4.065  -3.473   2.486  0.00  0.00    -0.275 OA
ATOM     10  C   UNL     1      -1.981  -2.013   3.424  0.00  0.00    -0.028 A 
ATOM     11  C   UNL     1      -1.692  -3.163   2.723  0.00  0.00    +0.004 A 
ATOM     12  C   UNL     1      -0.959  -4.172   3.321  0.00  0.00    +0.000 A 
ATOM     13  C   UNL     1      -0.518  -4.024   4.623  0.00  0.00    +0.002 A 
ATOM     14  C   UNL     1      -0.804  -2.873   5.329  0.00  0.00    +0.023 A 
ATOM     15  C   UNL     1      -1.541  -1.852   4.735  0.00  0.00    +0.036 A 
ATOM     16  N   UNL     1      -1.952  -0.614   5.233  0.00  0.00    -0.286 N 
ATOM     17  C   UNL     1      -2.658   0.090   4.327  0.00  0.00    +0.211 C 
ATOM     18  O   UNL     1      -3.138   1.193   4.481  0.00  0.00    -0.277 OA
ATOM     19  H   UNL     1      -1.752  -0.297   6.128  0.00  0.00    +0.155 HD
ATOM     20  N   UNL     1      -2.177  -0.065   1.938  0.00  0.00    +0.394 N 
ATOM     21  H   UNL     1      -1.363   0.494   2.220  0.00  0.00    -0.083 HD
ATOM     22  H   UNL     1      -1.895  -0.741   1.218  0.00  0.00    -0.083 HD
ENDROOT
BRANCH   1  26
ATOM     23  C   UNL     1      -4.912  -5.277  -2.076  0.00  0.00    +0.132 A 
ATOM     24  C   UNL     1      -5.773  -5.213  -0.990  0.00  0.00    +0.048 A 
ATOM     25  C   UNL     1      -5.653  -4.187  -0.074  0.00  0.00    +0.027 A 
ATOM     26  C   UNL     1      -4.670  -3.220  -0.240  0.00  0.00    +0.044 A 
ATOM     27  C   UNL     1      -3.813  -3.282  -1.330  0.00  0.00    +0.027 A 
ATOM     28  C   UNL     1      -3.930  -4.311  -2.243  0.00  0.00    +0.048 A 
BRANCH  23  29
ATOM     29  O   UNL     1      -5.031  -6.288  -2.978  0.00  0.00    -0.426 OA
BRANCH  29  31
ATOM     30  C   UNL     1      -6.314  -7.341  -4.806  0.00  0.00    +0.136 C 
ATOM     31  C   UNL     1      -6.036  -6.198  -3.864  0.00  0.00    +0.309 C 
ATOM     32  O   UNL     1      -6.717  -5.201  -3.907  0.00  0.00    -0.251 OA
ENDBRANCH  29  31
ENDBRANCH  23  29
ENDBRANCH   1  26
BRANCH   5  33
ATOM     33  C   UNL     1      -3.010   1.155  -0.047  0.00  0.00    +0.020 C 
BRANCH  33  34
ATOM     34  C   UNL     1      -1.822   2.073  -0.170  0.00  0.00    -0.045 A 
ATOM     35  C   UNL     1      -0.556   1.544  -0.340  0.00  0.00    +0.007 A 
ATOM     36  C   UNL     1       0.537   2.382  -0.459  0.00  0.00    +0.049 A 
ATOM     37  C   UNL     1       0.365   3.756  -0.404  0.00  0.00    +0.158 A 
ATOM     38  C   UNL     1      -0.908   4.289  -0.227  0.00  0.00    +0.158 A 
ATOM     39  C   UNL     1      -1.999   3.443  -0.108  0.00  0.00    +0.052 A 
BRANCH  38  40
ATOM     40  O   UNL     1      -1.081   5.636  -0.172  0.00  0.00    -0.503 OA
ATOM     41  H   UNL     1      -1.244   6.048  -1.031  0.00  0.00    +0.292 HD
ENDBRANCH  38  40
BRANCH  37  42
ATOM     42  O   UNL     1       1.439   4.582  -0.520  0.00  0.00    -0.503 OA
ATOM     43  H   UNL     1       1.638   4.843  -1.430  0.00  0.00    +0.292 HD
ENDBRANCH  37  42
ENDBRANCH  33  34
ENDBRANCH   5  33
TORSDOF 7
