REMARK  Name = ZINC21082971
REMARK  8 active torsions:
REMARK  status: ('A' for Active; 'I' for Inactive)
REMARK    1  A    between atoms: C_1  and  C_2
REMARK    2  A    between atoms: C_3  and  N_9
REMARK    3  A    between atoms: C_10  and  C_12
REMARK    4  A    between atoms: C_12  and  S_13
REMARK    5  A    between atoms: S_13  and  C_14
REMARK    6  A    between atoms: N_19  and  N_20
REMARK    7  A    between atoms: C_21  and  C_22
REMARK    8  A    between atoms: C_21  and  C_23
REMARK                            x       y       z     vdW  Elec       q    Type
REMARK                         _______ _______ _______ _____ _____    ______ ____
ROOT
ATOM      1  C   UNL     1       1.083   1.785   0.032  0.00  0.00    +0.211 A 
ATOM      2  N   UNL     1      -0.011   0.967   0.043  0.00  0.00    -0.186 NA
ATOM      3  C   UNL     1      -1.128   1.756   0.063  0.00  0.00    +0.232 A 
ATOM      4  N   UNL     1      -0.739   3.008   0.074  0.00  0.00    -0.245 N 
ATOM      5  N   UNL     1       0.661   3.026   0.050  0.00  0.00    -0.144 NA
ATOM      6  N   UNL     1      -2.441   1.310   0.074  0.00  0.00    -0.205 N 
ATOM      7  H   UNL     1      -2.655   0.231   0.067  0.00  0.00    +0.177 HD
ATOM      8  H   UNL     1      -1.486   3.815   0.097  0.00  0.00    +0.192 HD
ENDROOT
BRANCH   6   9
ATOM      9  N   UNL     1      -3.494   2.233   0.095  0.00  0.00    -0.184 NA
ATOM     10  C   UNL     1      -4.726   1.815   0.105  0.00  0.00    +0.070 C 
ATOM     11  C   UNL     1      -5.020   0.337   0.096  0.00  0.00    +0.068 C 
BRANCH  10  12
ATOM     12  C   UNL     1      -5.829   2.781   0.126  0.00  0.00    +0.035 A 
ATOM     13  C   UNL     1      -5.777   4.164   0.138  0.00  0.00    +0.017 A 
ATOM     14  C   UNL     1      -6.963   4.863   0.157  0.00  0.00    +0.008 A 
ATOM     15  C   UNL     1      -8.137   4.180   0.164  0.00  0.00    +0.046 A 
ATOM     16  S   UNL     1      -7.589   2.481   0.136  0.00  0.00    -0.095 S 
ENDBRANCH  10  12
ENDBRANCH   6   9
BRANCH   1  17
ATOM     17  S   UNL     1       2.766   1.263  -0.000  0.00  0.00    -0.075 S 
BRANCH  17  18
ATOM     18  C   UNL     1       3.706   2.814  -0.003  0.00  0.00    +0.173 C 
BRANCH  18  20
ATOM     19  N   UNL     1       6.079   3.512  -0.037  0.00  0.00    -0.285 N 
ATOM     20  C   UNL     1       5.181   2.506  -0.030  0.00  0.00    +0.227 C 
ATOM     21  O   UNL     1       5.561   1.355  -0.046  0.00  0.00    -0.275 OA
ATOM     22  H   UNL     1       5.737   4.554  -0.114  0.00  0.00    +0.155 HD
BRANCH  19  25
ATOM     23  C   UNL     1       7.917   5.402  -1.109  0.00  0.00    +0.047 C 
ATOM     24  C   UNL     1       8.377   4.125  -0.455  0.00  0.00    -0.011 A 
ATOM     25  C   UNL     1       7.447   3.229   0.055  0.00  0.00    +0.038 A 
ATOM     26  C   UNL     1       7.875   2.051   0.651  0.00  0.00    +0.023 A 
ATOM     27  C   UNL     1       9.226   1.774   0.740  0.00  0.00    +0.003 A 
ATOM     28  C   UNL     1      10.151   2.669   0.236  0.00  0.00    +0.020 A 
ATOM     29  C   UNL     1       9.728   3.845  -0.358  0.00  0.00    +0.046 A 
ATOM     30 CL   UNL     1      10.893   4.966  -0.989  0.00  0.00    -0.083 Cl
ENDBRANCH  19  25
ENDBRANCH  18  20
ENDBRANCH  17  18
ENDBRANCH   1  17
TORSDOF 6
