REMARK  Name = ZINC27061448
REMARK  4 active torsions:
REMARK  status: ('A' for Active; 'I' for Inactive)
REMARK    1  A    between atoms: C_6  and  C_7
REMARK    2  A    between atoms: C_10  and  C_12
REMARK    3  A    between atoms: C_12  and  O_13
REMARK    4  A    between atoms: O_13  and  C_14
REMARK                            x       y       z     vdW  Elec       q    Type
REMARK                         _______ _______ _______ _____ _____    ______ ____
ROOT
ATOM      1  C   UNL     1       1.199   3.107  -1.161  0.00  0.00    +0.032 C 
ATOM      2  C   UNL     1       1.238   2.109   0.002  0.00  0.00    +0.108 C 
ATOM      3  N   UNL     1      -0.016   1.344   0.009  0.00  0.00    -0.299 N 
ATOM      4  C   UNL     1      -1.290   2.075   0.019  0.00  0.00    +0.108 C 
ATOM      5  C   UNL     1      -1.301   3.072  -1.137  0.00  0.00    +0.032 C 
ATOM      6  C   UNL     1      -0.062   3.966  -1.048  0.00  0.00    +0.078 C 
ATOM      7  C   UNL     1       0.002  -0.004   0.002  0.00  0.00    +0.253 C 
ATOM      8  O   UNL     1       1.060  -0.596  -0.011  0.00  0.00    -0.272 OA
ENDROOT
BRANCH   6   9
ATOM      9  C   UNL     1      -0.086   4.972  -2.171  0.00  0.00    +0.214 C 
ATOM     10  O   UNL     1       0.816   4.997  -2.981  0.00  0.00    -0.276 OA
ATOM     11  N   UNL     1      -1.110   5.842  -2.275  0.00  0.00    -0.329 N 
ATOM     12  H   UNL     1      -1.127   6.575  -3.094  0.00  0.00    +0.145 HD
ATOM     13  H   UNL     1      -1.928   5.818  -1.540  0.00  0.00    +0.145 HD
ENDBRANCH   6   9
BRANCH   7  14
ATOM     14  C   UNL     1      -1.293  -0.775   0.010  0.00  0.00    +0.325 C 
BRANCH  14  15
ATOM     15  O   UNL     1      -1.012  -2.176   0.000  0.00  0.00    -0.477 OA
BRANCH  15  16
ATOM     16  C   UNL     1      -2.080  -3.020   0.006  0.00  0.00    +0.197 A 
ATOM     17  C   UNL     1      -2.610  -3.461   1.210  0.00  0.00    +0.206 A 
ATOM     18  C   UNL     1      -3.700  -4.316   1.215  0.00  0.00    +0.200 A 
ATOM     19  C   UNL     1      -4.255  -4.739   0.017  0.00  0.00    +0.199 A 
ATOM     20  C   UNL     1      -3.723  -4.303  -1.186  0.00  0.00    +0.200 A 
ATOM     21  C   UNL     1      -2.636  -3.444  -1.193  0.00  0.00    +0.206 A 
ATOM     22  F   UNL     1      -2.118  -3.019  -2.366  0.00  0.00    -0.198 F 
ATOM     23  F   UNL     1      -4.265  -4.716  -2.353  0.00  0.00    -0.199 F 
ATOM     24  F   UNL     1      -5.315  -5.577   0.023  0.00  0.00    -0.199 F 
ATOM     25  F   UNL     1      -4.220  -4.741   2.387  0.00  0.00    -0.199 F 
ATOM     26  F   UNL     1      -2.066  -3.054   2.378  0.00  0.00    -0.198 F 
ENDBRANCH  15  16
ENDBRANCH  14  15
ENDBRANCH   7  14
TORSDOF 4
