REMARK  Name = ZINC02409012
REMARK  9 active torsions:
REMARK  status: ('A' for Active; 'I' for Inactive)
REMARK    1  A    between atoms: C_1  and  C_2
REMARK    2  A    between atoms: C_2  and  C_26
REMARK    3  A    between atoms: C_10  and  N_14
REMARK    4  A    between atoms: N_14  and  C_15
REMARK    5  A    between atoms: C_15  and  C_16
REMARK    6  A    between atoms: C_16  and  O_17
REMARK    7  A    between atoms: O_17  and  C_18
REMARK    8  A    between atoms: C_18  and  C_19
REMARK    9  A    between atoms: C_19  and  O_20
REMARK                            x       y       z     vdW  Elec       q    Type
REMARK                         _______ _______ _______ _____ _____    ______ ____
ROOT
ATOM      1  C   UNL     1       2.443  -4.276  -0.187  0.00  0.00    +0.041 C 
ATOM      2  C   UNL     1       2.420  -2.769  -0.449  0.00  0.00    +0.070 C 
ATOM      3  C   UNL     1       1.071  -2.193  -0.014  0.00  0.00    +0.090 C 
ATOM      4  C   UNL     1       1.136  -0.686  -0.014  0.00  0.00    +0.051 A 
ATOM      5  C   UNL     1       2.348  -0.020  -0.025  0.00  0.00    +0.000 A 
ATOM      6  C   UNL     1       2.377   1.361  -0.016  0.00  0.00    +0.020 A 
ATOM      7  C   UNL     1       1.162   2.079   0.002  0.00  0.00    +0.034 A 
ATOM      8  C   UNL     1       0.977   3.542   0.014  0.00  0.00    +0.092 A 
ATOM      9  C   UNL     1      -0.349   3.992   0.029  0.00  0.00    +0.080 A 
ATOM     10  C   UNL     1      -0.642   5.348   0.041  0.00  0.00    +0.136 A 
ATOM     11  N   UNL     1       0.371   6.214   0.038  0.00  0.00    -0.220 NA
ATOM     12  C   UNL     1       1.616   5.774   0.024  0.00  0.00    +0.224 A 
ATOM     13  N   UNL     1       1.929   4.502   0.011  0.00  0.00    -0.234 NA
ATOM     14  S   UNL     1      -1.323   2.512   0.035  0.00  0.00    -0.064 S 
ATOM     15  C   UNL     1      -0.016   1.310   0.009  0.00  0.00    +0.111 A 
ATOM     16  N   UNL     1       0.002  -0.004   0.002  0.00  0.00    -0.244 NA
ATOM     17  C   UNL     1       3.656  -0.767  -0.051  0.00  0.00    +0.197 C 
ATOM     18  O   UNL     1       3.452  -2.132   0.312  0.00  0.00    -0.369 OA
ATOM     19  C   UNL     1       2.636  -2.502  -1.940  0.00  0.00    +0.041 C 
ENDROOT
BRANCH  10  20
ATOM     20  N   UNL     1      -1.955   5.792   0.056  0.00  0.00    -0.326 N 
ATOM     21  H   UNL     1      -2.684   5.151   0.059  0.00  0.00    +0.148 HD
BRANCH  20  22
ATOM     22  C   UNL     1      -2.243   7.228   0.069  0.00  0.00    +0.131 C 
BRANCH  22  23
ATOM     23  C   UNL     1      -3.758   7.445   0.085  0.00  0.00    +0.178 C 
BRANCH  23  24
ATOM     24  O   UNL     1      -4.298   6.940   1.307  0.00  0.00    -0.376 OA
BRANCH  24  25
ATOM     25  C   UNL     1      -5.715   7.094   1.424  0.00  0.00    +0.187 C 
BRANCH  25  26
ATOM     26  C   UNL     1      -6.181   6.522   2.764  0.00  0.00    +0.184 C 
BRANCH  26  27
ATOM     27  O   UNL     1      -5.628   7.296   3.831  0.00  0.00    -0.393 OA
ATOM     28  H   UNL     1      -5.882   6.989   4.712  0.00  0.00    +0.209 HD
ENDBRANCH  26  27
ENDBRANCH  25  26
ENDBRANCH  24  25
ENDBRANCH  23  24
ENDBRANCH  22  23
ENDBRANCH  20  22
ENDBRANCH  10  20
TORSDOF 7
