REMARK  Name = ZINC32094196
REMARK  4 active torsions:
REMARK  status: ('A' for Active; 'I' for Inactive)
REMARK    1  A    between atoms: C_1  and  C_2
REMARK    2  A    between atoms: C_14  and  O_28
REMARK    3  A    between atoms: C_16  and  C_18
REMARK    4  A    between atoms: C_18  and  C_20
REMARK                            x       y       z     vdW  Elec       q    Type
REMARK                         _______ _______ _______ _____ _____    ______ ____
ROOT
ATOM      1  C   UNL     1      -0.018   1.503   0.010  0.00  0.00    +0.068 C 
ATOM      2  C   UNL     1       0.002  -0.004   0.002  0.00  0.00    +0.066 A 
ATOM      3  C   UNL     1       0.008  -0.806  -1.125  0.00  0.00    +0.031 A 
ATOM      4  C   UNL     1       0.032  -2.129  -0.707  0.00  0.00    +0.167 A 
ATOM      5  N   UNL     1       0.033  -2.119   0.648  0.00  0.00    -0.179 N 
ATOM      6  N   UNL     1       0.023  -0.777   1.063  0.00  0.00    -0.167 NA
ATOM      7  C   UNL     1       0.047  -3.237   1.479  0.00  0.00    +0.253 A 
ATOM      8  N   UNL     1       0.066  -4.444   0.937  0.00  0.00    -0.219 NA
ATOM      9  C   UNL     1       0.079  -5.527   1.696  0.00  0.00    +0.116 A 
ATOM     10  C   UNL     1       0.074  -5.386   3.075  0.00  0.00    +0.039 A 
ATOM     11  C   UNL     1       0.055  -4.106   3.609  0.00  0.00    +0.116 A 
ATOM     12  N   UNL     1       0.047  -3.067   2.792  0.00  0.00    -0.219 NA
ATOM     13  N   UNL     1       0.057  -3.159  -1.599  0.00  0.00    -0.197 NA
ATOM     14  C   UNL     1       0.344  -2.912  -2.842  0.00  0.00    +0.190 C 
ATOM     15  C   UNL     1       0.716  -1.552  -3.354  0.00  0.00    +0.111 C 
ATOM     16  C   UNL     1      -0.011  -0.441  -2.587  0.00  0.00    +0.104 C 
ENDROOT
BRANCH  16  17
ATOM     17  C   UNL     1      -1.435  -0.336  -3.069  0.00  0.00    +0.171 C 
ATOM     18  O   UNL     1      -2.315  -0.945  -2.499  0.00  0.00    -0.291 OA
BRANCH  17  19
ATOM     19  C   UNL     1      -1.758   0.506  -4.232  0.00  0.00    +0.019 A 
ATOM     20  C   UNL     1      -0.745   1.205  -4.896  0.00  0.00    +0.013 A 
ATOM     21  C   UNL     1      -1.054   1.992  -5.984  0.00  0.00    +0.022 A 
ATOM     22  C   UNL     1      -2.365   2.091  -6.422  0.00  0.00    +0.059 A 
ATOM     23  C   UNL     1      -3.375   1.401  -5.769  0.00  0.00    +0.060 A 
ATOM     24  C   UNL     1      -3.079   0.606  -4.681  0.00  0.00    +0.032 A 
ATOM     25 CL   UNL     1      -5.014   1.533  -6.325  0.00  0.00    -0.082 Cl
ATOM     26 CL   UNL     1      -2.745   3.085  -7.794  0.00  0.00    -0.082 Cl
ENDBRANCH  17  19
ENDBRANCH  16  17
BRANCH  14  27
ATOM     27  O   UNL     1       0.307  -3.935  -3.720  0.00  0.00    -0.495 OA
ATOM     28  H   UNL     1       0.061  -4.783  -3.326  0.00  0.00    +0.293 HD
ENDBRANCH  14  27
TORSDOF 3
