REMARK  Name = ZINC20882203
REMARK  3 active torsions:
REMARK  status: ('A' for Active; 'I' for Inactive)
REMARK    1  A    between atoms: C_4  and  O_30
REMARK    2  A    between atoms: C_5  and  C_7
REMARK    3  A    between atoms: C_12  and  C_17
REMARK                            x       y       z     vdW  Elec       q    Type
REMARK                         _______ _______ _______ _____ _____    ______ ____
ROOT
ATOM      1  C   UNL     1       0.510   5.877   1.340  0.00  0.00    +0.139 C 
ATOM      2  C   UNL     1       1.983   5.591   1.508  0.00  0.00    +0.037 C 
ATOM      3  C   UNL     1       2.695   4.688   0.813  0.00  0.00    +0.017 C 
ATOM      4  C   UNL     1       4.174   4.486   1.100  0.00  0.00    +0.060 C 
ATOM      5  C   UNL     1       4.804   5.804   1.543  0.00  0.00    +0.039 C 
ATOM      6  C   UNL     1       4.073   6.269   2.808  0.00  0.00    +0.088 C 
ATOM      7  C   UNL     1       2.610   6.381   2.500  0.00  0.00    +0.163 C 
ATOM      8  O   UNL     1       1.938   7.179   3.124  0.00  0.00    -0.292 OA
ATOM      9  N   UNL     1       2.192   3.894  -0.165  0.00  0.00    -0.316 N 
ATOM     10  C   UNL     1       1.007   3.176  -0.071  0.00  0.00    +0.052 A 
ATOM     11  C   UNL     1       0.977   1.792  -0.115  0.00  0.00    +0.025 A 
ATOM     12  C   UNL     1      -0.243   1.139  -0.103  0.00  0.00    +0.002 A 
ATOM     13  C   UNL     1      -1.422   1.861  -0.054  0.00  0.00    +0.002 A 
ATOM     14  C   UNL     1      -1.393   3.244   0.012  0.00  0.00    +0.025 A 
ATOM     15  C   UNL     1      -0.173   3.899   0.017  0.00  0.00    +0.049 A 
ATOM     16  N   UNL     1      -0.088   5.284   0.162  0.00  0.00    -0.331 N 
ATOM     17  H   UNL     1       2.732   3.786  -1.117  0.00  0.00    +0.152 HD
ATOM     18  H   UNL     1      -0.485   5.927  -0.637  0.00  0.00    +0.147 HD
ENDROOT
BRANCH   1  23
ATOM     19  C   UNL     1      -0.300   3.909   4.459  0.00  0.00    +0.001 A 
ATOM     20  C   UNL     1      -1.546   4.409   4.788  0.00  0.00    +0.004 A 
ATOM     21  C   UNL     1      -2.131   5.384   4.004  0.00  0.00    +0.046 A 
ATOM     22  C   UNL     1      -1.465   5.863   2.884  0.00  0.00    +0.122 A 
ATOM     23  C   UNL     1      -0.215   5.360   2.556  0.00  0.00    +0.019 A 
ATOM     24  C   UNL     1       0.362   4.380   3.341  0.00  0.00    +0.009 A 
BRANCH  22  25
ATOM     25  O   UNL     1      -2.038   6.822   2.111  0.00  0.00    -0.506 OA
ATOM     26  H   UNL     1      -1.510   7.201   1.223  0.00  0.00    +0.292 HD
ENDBRANCH  22  25
ENDBRANCH   1  23
BRANCH   5  27
ATOM     27  C   UNL     1       6.265   5.596   1.846  0.00  0.00    -0.006 A 
ATOM     28  C   UNL     1       7.347   6.180   1.274  0.00  0.00    +0.011 A 
ATOM     29  C   UNL     1       8.609   5.832   1.718  0.00  0.00    +0.008 A 
ATOM     30  C   UNL     1       8.728   4.917   2.711  0.00  0.00    +0.045 A 
ATOM     31  S   UNL     1       7.021   4.522   3.055  0.00  0.00    -0.101 S 
ENDBRANCH   5  27
TORSDOF 3
