REMARK  Name = ZINC49539637
REMARK  7 active torsions:
REMARK  status: ('A' for Active; 'I' for Inactive)
REMARK    1  A    between atoms: C_1  and  C_2
REMARK    2  A    between atoms: N_6  and  C_24
REMARK    3  A    between atoms: C_7  and  S_13
REMARK    4  A    between atoms: S_13  and  C_14
REMARK    5  A    between atoms: C_14  and  C_15
REMARK    6  A    between atoms: N_17  and  C_18
REMARK    7  A    between atoms: C_18  and  C_19
REMARK                            x       y       z     vdW  Elec       q    Type
REMARK                         _______ _______ _______ _____ _____    ______ ____
ROOT
ATOM      1  C   UNL     1      -0.216   1.498   0.023  0.00  0.00    +0.068 C 
ATOM      2  C   UNL     1      -0.162  -0.008   0.012  0.00  0.00    +0.072 A 
ATOM      3  C   UNL     1      -0.169  -0.827  -1.139  0.00  0.00    +0.079 A 
ATOM      4  C   UNL     1      -0.223  -0.581  -2.524  0.00  0.00    +0.115 A 
ATOM      5  N   UNL     1      -0.287   0.710  -3.010  0.00  0.00    -0.344 N 
ATOM      6  N   UNL     1      -0.212  -1.623  -3.356  0.00  0.00    -0.277 N 
ATOM      7  C   UNL     1      -0.151  -2.874  -2.889  0.00  0.00    +0.177 A 
ATOM      8  N   UNL     1      -0.098  -3.143  -1.597  0.00  0.00    -0.204 NA
ATOM      9  C   UNL     1      -0.105  -2.162  -0.696  0.00  0.00    +0.162 A 
ATOM     10  N   UNL     1      -0.062  -2.118   0.667  0.00  0.00    -0.260 N 
ATOM     11  H   UNL     1      -0.014  -2.884   1.259  0.00  0.00    +0.191 HD
ATOM     12  N   UNL     1      -0.094  -0.775   1.063  0.00  0.00    -0.177 NA
ATOM     13  H   UNL     1      -0.168   1.461  -2.408  0.00  0.00    +0.144 HD
ATOM     14  H   UNL     1      -0.450   0.865  -3.954  0.00  0.00    +0.144 HD
ENDROOT
BRANCH   6  15
ATOM     15  C   UNL     1      -0.265  -1.408  -4.717  0.00  0.00    +0.050 A 
ATOM     16  C   UNL     1      -1.397  -0.831  -5.290  0.00  0.00    +0.027 A 
ATOM     17  C   UNL     1      -1.445  -0.617  -6.652  0.00  0.00    +0.017 A 
ATOM     18  C   UNL     1      -0.372  -0.974  -7.450  0.00  0.00    +0.018 A 
ATOM     19  C   UNL     1       0.754  -1.548  -6.886  0.00  0.00    +0.017 A 
ATOM     20  C   UNL     1       0.815  -1.761  -5.524  0.00  0.00    +0.027 A 
ATOM     21 BR   UNL     1      -0.445  -0.678  -9.316  0.00  0.00    -0.050 Br
ENDBRANCH   6  15
BRANCH   7  22
ATOM     22  S   UNL     1      -0.140  -4.210  -4.038  0.00  0.00    -0.078 S 
BRANCH  22  23
ATOM     23  C   UNL     1      -0.050  -5.688  -2.990  0.00  0.00    +0.173 C 
BRANCH  23  24
ATOM     24  C   UNL     1      -0.034  -6.919  -3.859  0.00  0.00    +0.224 C 
ATOM     25  O   UNL     1      -0.078  -6.810  -5.066  0.00  0.00    -0.275 OA
ATOM     26  N   UNL     1       0.030  -8.142  -3.295  0.00  0.00    -0.308 N 
ATOM     27  H   UNL     1       0.065  -8.229  -2.329  0.00  0.00    +0.149 HD
BRANCH  26  28
ATOM     28  C   UNL     1       0.046  -9.338  -4.139  0.00  0.00    +0.178 C 
BRANCH  28  29
ATOM     29  C   UNL     1       0.120 -10.566  -3.269  0.00  0.00    +0.122 A 
ATOM     30  C   UNL     1      -0.931 -11.251  -2.783  0.00  0.00    +0.046 A 
ATOM     31  C   UNL     1      -0.406 -12.322  -2.024  0.00  0.00    +0.041 A 
ATOM     32  C   UNL     1       0.934 -12.229  -2.091  0.00  0.00    +0.195 A 
ATOM     33  O   UNL     1       1.247 -11.167  -2.852  0.00  0.00    -0.466 OA
ENDBRANCH  28  29
ENDBRANCH  26  28
ENDBRANCH  23  24
ENDBRANCH  22  23
ENDBRANCH   7  22
TORSDOF 6
