REMARK  Name = ZINC35569267
REMARK  5 active torsions:
REMARK  status: ('A' for Active; 'I' for Inactive)
REMARK    1  A    between atoms: C_14  and  C_15
REMARK    2  A    between atoms: C_17  and  C_29
REMARK    3  A    between atoms: C_19  and  C_24
REMARK    4  A    between atoms: C_19  and  O_28
REMARK    5  A    between atoms: C_29  and  C_31
REMARK                            x       y       z     vdW  Elec       q    Type
REMARK                         _______ _______ _______ _____ _____    ______ ____
ROOT
ATOM      1  C   UNL     1       5.947   0.419  -0.088  0.00  0.00    +0.121 C 
ATOM      2  C   UNL     1       6.023   0.343   1.441  0.00  0.00    +0.145 C 
ATOM      3  C   UNL     1       7.424   0.780   1.882  0.00  0.00    +0.243 C 
ATOM      4  N   UNL     1       8.422  -0.046   1.199  0.00  0.00    -0.264 N 
ATOM      5  C   UNL     1       8.182  -0.571  -0.012  0.00  0.00    +0.302 C 
ATOM      6  O   UNL     1       9.049  -1.241  -0.539  0.00  0.00    -0.253 OA
ATOM      7  N   UNL     1       7.024  -0.386  -0.665  0.00  0.00    -0.292 N 
ATOM      8  H   UNL     1       9.273  -0.217   1.631  0.00  0.00    +0.153 HD
ATOM      9  H   UNL     1       6.898  -0.794  -1.535  0.00  0.00    +0.151 HD
ENDROOT
BRANCH   1  23
ATOM     10  C   UNL     1       1.659  -1.168   2.209  0.00  0.00    +0.001 A 
ATOM     11  C   UNL     1       2.891  -0.674   2.640  0.00  0.00    +0.001 A 
ATOM     12  C   UNL     1       3.866  -0.326   1.762  0.00  0.00    +0.009 A 
ATOM     13  C   UNL     1       3.637  -0.462   0.376  0.00  0.00    -0.012 A 
ATOM     14  C   UNL     1       2.342  -0.981  -0.076  0.00  0.00    -0.017 A 
ATOM     15  C   UNL     1       1.373  -1.324   0.891  0.00  0.00    +0.008 A 
ATOM     16  C   UNL     1       2.082  -1.128  -1.438  0.00  0.00    +0.017 A 
ATOM     17  C   UNL     1       3.061  -0.779  -2.366  0.00  0.00    -0.017 A 
ATOM     18  C   UNL     1       2.832  -0.914  -3.753  0.00  0.00    +0.008 A 
ATOM     19  C   UNL     1       3.807  -0.565  -4.630  0.00  0.00    +0.001 A 
ATOM     20  C   UNL     1       5.039  -0.072  -4.200  0.00  0.00    +0.001 A 
ATOM     21  C   UNL     1       5.325   0.083  -2.882  0.00  0.00    +0.009 A 
ATOM     22  C   UNL     1       4.356  -0.261  -1.914  0.00  0.00    -0.012 A 
ATOM     23  C   UNL     1       4.616  -0.114  -0.553  0.00  0.00    -0.011 A 
ENDBRANCH   1  23
BRANCH   3  24
ATOM     24  C   UNL     1       7.640   2.250   1.516  0.00  0.00    +0.436 C 
ATOM     25  F   UNL     1       6.682   3.037   2.163  0.00  0.00    -0.166 F 
ATOM     26  F   UNL     1       8.919   2.647   1.919  0.00  0.00    -0.166 F 
ATOM     27  F   UNL     1       7.517   2.409   0.131  0.00  0.00    -0.166 F 
ENDBRANCH   3  24
BRANCH   3  28
ATOM     28  O   UNL     1       7.553   0.614   3.295  0.00  0.00    -0.364 OA
ATOM     29  H   UNL     1       8.418   0.872   3.644  0.00  0.00    +0.212 HD
ENDBRANCH   3  28
BRANCH   2  30
ATOM     30  C   UNL     1       5.765  -1.072   1.890  0.00  0.00    +0.179 C 
ATOM     31  O   UNL     1       5.729  -1.971   1.075  0.00  0.00    -0.291 OA
BRANCH  30  32
ATOM     32  C   UNL     1       5.566  -1.353   3.260  0.00  0.00    +0.055 A 
ATOM     33  C   UNL     1       5.789  -2.538   3.954  0.00  0.00    +0.019 A 
ATOM     34  C   UNL     1       5.499  -2.506   5.295  0.00  0.00    +0.008 A 
ATOM     35  C   UNL     1       5.028  -1.355   5.841  0.00  0.00    +0.046 A 
ATOM     36  S   UNL     1       4.971  -0.279   4.553  0.00  0.00    -0.094 S 
ENDBRANCH  30  32
ENDBRANCH   2  30
TORSDOF 5
