REMARK  Name = ZINC12659073
REMARK  9 active torsions:
REMARK  status: ('A' for Active; 'I' for Inactive)
REMARK    1  A    between atoms: C_1  and  C_2
REMARK    2  A    between atoms: C_2  and  C_4
REMARK    3  A    between atoms: C_9  and  C_36
REMARK    4  A    between atoms: C_19  and  C_35
REMARK    5  A    between atoms: C_22  and  O_25
REMARK    6  A    between atoms: O_25  and  C_26
REMARK    7  A    between atoms: C_26  and  C_28
REMARK    8  A    between atoms: C_28  and  C_29
REMARK    9  A    between atoms: C_29  and  N_76
REMARK                            x       y       z     vdW  Elec       q    Type
REMARK                         _______ _______ _______ _____ _____    ______ ____
ROOT
ATOM      1  C   UNL     1       0.955   1.941  -0.172  0.00  0.00    -0.003 C 
ATOM      2  C   UNL     1      -0.111   1.130  -0.201  0.00  0.00    -0.019 C 
ATOM      3  C   UNL     1      -1.362   1.931  -0.515  0.00  0.00    +0.032 C 
ATOM      4  C   UNL     1      -0.801   3.194  -1.241  0.00  0.00    +0.007 C 
ATOM      5  C   UNL     1       0.513   3.353  -0.456  0.00  0.00    -0.001 C 
ATOM      6  C   UNL     1       1.547   4.173  -1.187  0.00  0.00    +0.012 C 
ATOM      7  C   UNL     1       1.787   3.626  -2.592  0.00  0.00    +0.005 C 
ATOM      8  C   UNL     1       0.467   3.681  -3.374  0.00  0.00    +0.003 C 
ATOM      9  C   UNL     1      -0.551   2.768  -2.690  0.00  0.00    +0.001 C 
ATOM     10  C   UNL     1      -1.884   2.876  -3.445  0.00  0.00    +0.031 C 
ATOM     11  C   UNL     1      -1.668   2.634  -4.908  0.00  0.00    -0.027 C 
ATOM     12  C   UNL     1      -0.521   2.760  -5.495  0.00  0.00    -0.064 C 
ATOM     13  C   UNL     1       0.738   3.185  -4.791  0.00  0.00    -0.008 C 
ATOM     14  C   UNL     1       1.725   2.020  -4.777  0.00  0.00    +0.015 C 
ATOM     15  C   UNL     1       1.480   1.109  -5.980  0.00  0.00    +0.046 C 
ATOM     16  C   UNL     1       1.033   1.915  -7.198  0.00  0.00    +0.180 C 
ATOM     17  C   UNL     1      -0.395   2.433  -6.975  0.00  0.00    +0.075 C 
ATOM     18  C   UNL     1       1.358   4.331  -5.592  0.00  0.00    +0.016 C 
ATOM     19  C   UNL     1       0.192   4.040   0.873  0.00  0.00    +0.016 C 
ENDROOT
BRANCH   1  21
ATOM     20  C   UNL     1       2.660   0.058   0.230  0.00  0.00    +0.091 C 
ATOM     21  C   UNL     1       2.332   1.522   0.092  0.00  0.00    +0.156 C 
ATOM     22  O   UNL     1       3.209   2.353   0.200  0.00  0.00    -0.293 OA
ENDBRANCH   1  21
BRANCH  16  23
ATOM     23  O   UNL     1       1.931   3.039  -7.390  0.00  0.00    -0.461 OA
BRANCH  23  24
ATOM     24  C   UNL     1       2.108   3.470  -8.649  0.00  0.00    +0.306 C 
ATOM     25  O   UNL     1       1.531   2.925  -9.560  0.00  0.00    -0.251 OA
BRANCH  24  26
ATOM     26  C   UNL     1       3.025   4.633  -8.926  0.00  0.00    +0.102 C 
BRANCH  26  27
ATOM     27  C   UNL     1       3.047   4.918 -10.429  0.00  0.00    -0.068 C 
BRANCH  27  33
ATOM     28  C   UNL     1       3.414   7.290 -10.112  0.00  0.00    -0.079 C 
ATOM     29  C   UNL     1       4.437   8.415 -10.286  0.00  0.00    -0.019 C 
ATOM     30  C   UNL     1       4.719   8.615 -11.777  0.00  0.00    -0.004 C 
ATOM     31  C   UNL     1       5.221   7.298 -12.376  0.00  0.00    -0.019 C 
ATOM     32  C   UNL     1       4.176   6.206 -12.141  0.00  0.00    -0.079 C 
ATOM     33  N   UNL     1       3.968   6.045 -10.686  0.00  0.00    +0.380 N 
ATOM     34  H   UNL     1       4.871   5.846 -10.241  0.00  0.00    -0.082 HD
ENDBRANCH  27  33
ENDBRANCH  26  27
ENDBRANCH  24  26
ENDBRANCH  23  24
ENDBRANCH  16  23
TORSDOF 6
