REMARK  Name = ZINC23484307
REMARK  10 active torsions:
REMARK  status: ('A' for Active; 'I' for Inactive)
REMARK    1  A    between atoms: C_1  and  C_2
REMARK    2  A    between atoms: C_5  and  C_7
REMARK    3  A    between atoms: C_7  and  S_8
REMARK    4  A    between atoms: S_8  and  C_9
REMARK    5  A    between atoms: C_12  and  C_15
REMARK    6  A    between atoms: N_13  and  C_14
REMARK    7  A    between atoms: C_22  and  C_25
REMARK    8  A    between atoms: C_25  and  C_26
REMARK    9  A    between atoms: C_25  and  C_27
REMARK   10  A    between atoms: C_25  and  C_28
REMARK                            x       y       z     vdW  Elec       q    Type
REMARK                         _______ _______ _______ _____ _____    ______ ____
ROOT
ATOM      1  C   UNL     1      -3.132  -5.015  -0.910  0.00  0.00    +0.192 A 
ATOM      2  N   UNL     1      -3.793  -4.029  -1.473  0.00  0.00    -0.122 NA
ATOM      3  N   UNL     1      -3.141  -2.929  -1.346  0.00  0.00    -0.128 NA
ATOM      4  C   UNL     1      -2.020  -3.145  -0.694  0.00  0.00    +0.171 A 
ATOM      5  N   UNL     1      -1.978  -4.489  -0.399  0.00  0.00    -0.305 N 
ATOM      6  C   UNL     1      -0.919  -5.206   0.317  0.00  0.00    +0.153 C 
ENDROOT
BRANCH   4   7
ATOM      7  C   UNL     1      -1.000  -2.140  -0.349  0.00  0.00    +0.057 A 
ATOM      8  C   UNL     1      -1.094  -0.775  -0.365  0.00  0.00    +0.023 A 
ATOM      9  C   UNL     1       0.002  -0.004   0.002  0.00  0.00    -0.036 A 
ATOM     10  C   UNL     1       1.131  -0.678   0.365  0.00  0.00    -0.006 A 
ATOM     11  S   UNL     1       0.682  -2.385   0.199  0.00  0.00    -0.090 S 
ATOM     12  C   UNL     1       2.437  -0.097   0.801  0.00  0.00    +0.043 C 
ATOM     13  C   UNL     1       2.218   1.386   1.136  0.00  0.00    +0.009 C 
ATOM     14  C   UNL     1       1.422   2.034  -0.001  0.00  0.00    -0.001 C 
ATOM     15  C   UNL     1      -0.019   1.522   0.010  0.00  0.00    +0.040 C 
BRANCH  14  16
ATOM     16  C   UNL     1       1.422   3.554   0.182  0.00  0.00    -0.035 C 
ATOM     17  C   UNL     1       0.764   3.907   1.517  0.00  0.00    +0.011 C 
ATOM     18  C   UNL     1       2.863   4.068   0.171  0.00  0.00    +0.011 C 
ATOM     19  C   UNL     1       0.639   4.204  -0.961  0.00  0.00    +0.011 C 
ENDBRANCH  14  16
ENDBRANCH   4   7
BRANCH   1  20
ATOM     20  S   UNL     1      -3.635  -6.702  -0.834  0.00  0.00    -0.076 S 
BRANCH  20  21
ATOM     21  C   UNL     1      -5.214  -6.598  -1.712  0.00  0.00    +0.175 C 
BRANCH  21  26
ATOM     22  C   UNL     1      -6.547 -11.230  -3.171  0.00  0.00    +0.111 C 
ATOM     23  C   UNL     1      -6.415  -9.944  -2.395  0.00  0.00    +0.214 A 
ATOM     24  N   UNL     1      -7.002  -9.660  -1.267  0.00  0.00    -0.113 NA
ATOM     25  N   UNL     1      -6.657  -8.479  -0.892  0.00  0.00    -0.112 NA
ATOM     26  C   UNL     1      -5.846  -7.965  -1.772  0.00  0.00    +0.227 A 
ATOM     27  O   UNL     1      -5.671  -8.880  -2.741  0.00  0.00    -0.424 OA
ENDBRANCH  21  26
ENDBRANCH  20  21
ENDBRANCH   1  20
TORSDOF 5
