REMARK  Name = ZINC62827316
REMARK  9 active torsions:
REMARK  status: ('A' for Active; 'I' for Inactive)
REMARK    1  A    between atoms: C_1  and  C_2
REMARK    2  A    between atoms: C_2  and  C_4
REMARK    3  A    between atoms: C_2  and  N_8
REMARK    4  A    between atoms: C_4  and  C_5
REMARK    5  A    between atoms: C_4  and  C_6
REMARK    6  A    between atoms: C_4  and  C_7
REMARK    7  A    between atoms: N_8  and  C_9
REMARK    8  A    between atoms: N_12  and  C_13
REMARK    9  A    between atoms: C_14  and  C_20
REMARK                            x       y       z     vdW  Elec       q    Type
REMARK                         _______ _______ _______ _____ _____    ______ ____
ROOT
ATOM      1  N   UNL     1      -1.035   0.655   0.334  0.00  0.00    -0.285 N 
ATOM      2  C   UNL     1      -1.358   1.132   1.681  0.00  0.00    +0.134 C 
ATOM      3  C   UNL     1      -1.748  -0.348  -0.215  0.00  0.00    +0.306 C 
ATOM      4  O   UNL     1      -1.429  -0.799  -1.298  0.00  0.00    -0.252 OA
ATOM      5  N   UNL     1      -2.814  -0.853   0.437  0.00  0.00    -0.268 N 
ATOM      6  H   UNL     1      -3.114  -0.445   1.265  0.00  0.00    +0.156 HD
ENDROOT
BRANCH   5   7
ATOM      7  C   UNL     1      -3.485  -1.958  -0.076  0.00  0.00    +0.063 A 
ATOM      8  C   UNL     1      -4.888  -1.965  -0.143  0.00  0.00    +0.085 A 
ATOM      9  C   UNL     1      -5.549  -3.083  -0.662  0.00  0.00    +0.017 A 
ATOM     10  C   UNL     1      -4.824  -4.167  -1.103  0.00  0.00    +0.002 A 
ATOM     11  C   UNL     1      -3.439  -4.158  -1.036  0.00  0.00    +0.017 A 
ATOM     12  C   UNL     1      -2.771  -3.060  -0.531  0.00  0.00    +0.040 A 
ATOM     13 BR   UNL     1      -0.881  -3.058  -0.453  0.00  0.00    -0.048 Br
BRANCH   8  14
ATOM     14  C   UNL     1      -5.657  -0.803   0.330  0.00  0.00    +0.388 C 
ATOM     15  O   UNL     1      -6.879  -0.853   0.367  0.00  0.00    -0.241 OA
ATOM     16  O   UNL     1      -5.075   0.212   0.687  0.00  0.00    -0.241 OA
ENDBRANCH   8  14
ENDBRANCH   5   7
BRANCH   1  18
ATOM     17  C   UNL     1       0.450   0.363  -1.588  0.00  0.00    +0.028 C 
ATOM     18  C   UNL     1       0.064   1.268  -0.416  0.00  0.00    +0.080 C 
BRANCH  18  19
ATOM     19  C   UNL     1      -0.382   2.631  -0.951  0.00  0.00    -0.019 C 
ATOM     20  C   UNL     1      -1.693   2.472  -1.724  0.00  0.00    +0.012 C 
ATOM     21  C   UNL     1      -0.594   3.593   0.220  0.00  0.00    +0.012 C 
ATOM     22  C   UNL     1       0.695   3.191  -1.883  0.00  0.00    +0.012 C 
ENDBRANCH  18  19
ENDBRANCH   1  18
TORSDOF 4
