REMARK  Name = ZINC35791132
REMARK  5 active torsions:
REMARK  status: ('A' for Active; 'I' for Inactive)
REMARK    1  A    between atoms: C_1  and  C_2
REMARK    2  A    between atoms: C_2  and  C_3
REMARK    3  A    between atoms: C_6  and  C_9
REMARK    4  A    between atoms: N_19  and  C_20
REMARK    5  A    between atoms: C_20  and  C_21
REMARK                            x       y       z     vdW  Elec       q    Type
REMARK                         _______ _______ _______ _____ _____    ______ ____
ROOT
ATOM      1  C   UNL     1       2.649  -1.985  -4.833  0.00  0.00    +0.011 C 
ATOM      2  C   UNL     1       3.142  -0.776  -5.591  0.00  0.00    +0.009 A 
ATOM      3  C   UNL     1       2.500   0.402  -5.713  0.00  0.00    +0.021 A 
ATOM      4  C   UNL     1       3.304   1.240  -6.512  0.00  0.00    +0.019 A 
ATOM      5  C   UNL     1       4.410   0.541  -6.845  0.00  0.00    +0.086 A 
ATOM      6  N   UNL     1       4.321  -0.692  -6.275  0.00  0.00    -0.352 N 
ATOM      7  C   UNL     1       5.319  -1.764  -6.359  0.00  0.00    +0.119 C 
ATOM      8  C   UNL     1       4.608  -3.083  -6.679  0.00  0.00    +0.003 C 
ATOM      9  C   UNL     1       4.173  -3.760  -5.385  0.00  0.00    -0.075 C 
ATOM     10  N   UNL     1       3.802  -2.771  -4.371  0.00  0.00    +0.391 N 
ATOM     11  H   UNL     1       4.582  -2.154  -4.204  0.00  0.00    -0.080 HD
ENDROOT
BRANCH   1  15
ATOM     12  C   UNL     1       0.347  -0.714  -1.466  0.00  0.00    -0.048 A 
ATOM     13  C   UNL     1       1.679  -0.357  -1.567  0.00  0.00    +0.004 A 
ATOM     14  C   UNL     1       2.424  -0.768  -2.657  0.00  0.00    +0.002 A 
ATOM     15  C   UNL     1       1.837  -1.537  -3.644  0.00  0.00    -0.055 A 
ATOM     16  C   UNL     1       0.506  -1.895  -3.543  0.00  0.00    +0.002 A 
ATOM     17  C   UNL     1      -0.238  -1.487  -2.451  0.00  0.00    +0.004 A 
BRANCH  12  19
ATOM     18  C   UNL     1      -0.359  -1.309   0.835  0.00  0.00    +0.009 C 
ATOM     19  C   UNL     1      -0.465  -0.265  -0.279  0.00  0.00    +0.032 C 
ENDBRANCH  12  19
ENDBRANCH   1  15
BRANCH  10  20
ATOM     20  C   UNL     1       3.452  -3.461  -3.122  0.00  0.00    -0.042 C 
BRANCH  20  21
ATOM     21  C   UNL     1       4.660  -4.195  -2.599  0.00  0.00    -0.062 A 
ATOM     22  C   UNL     1       4.897  -5.500  -2.989  0.00  0.00    +0.004 A 
ATOM     23  C   UNL     1       6.004  -6.175  -2.510  0.00  0.00    +0.040 A 
ATOM     24  C   UNL     1       6.877  -5.544  -1.640  0.00  0.00    +0.142 A 
ATOM     25  C   UNL     1       6.638  -4.236  -1.250  0.00  0.00    +0.076 A 
ATOM     26  C   UNL     1       5.532  -3.561  -1.734  0.00  0.00    +0.024 A 
ATOM     27 CL   UNL     1       7.731  -3.442  -0.159  0.00  0.00    -0.081 Cl
ATOM     28  F   UNL     1       7.959  -6.203  -1.172  0.00  0.00    -0.204 F 
ENDBRANCH  20  21
ENDBRANCH  10  20
TORSDOF 4
