REMARK  Name = ZINC00565704
REMARK  3 active torsions:
REMARK  status: ('A' for Active; 'I' for Inactive)
REMARK    1  A    between atoms: C_1  and  O_2
REMARK    2  A    between atoms: O_2  and  C_3
REMARK    3  A    between atoms: C_7  and  C_9
REMARK                            x       y       z     vdW  Elec       q    Type
REMARK                         _______ _______ _______ _____ _____    ______ ____
ROOT
ATOM      1  C   UNL     1      -2.540  -4.171   0.015  0.00  0.00    +0.190 C 
ATOM      2  N   UNL     1      -3.780  -4.603  -0.654  0.00  0.00    -0.316 N 
ATOM      3  C   UNL     1      -3.757  -4.644  -2.026  0.00  0.00    +0.080 A 
ATOM      4  C   UNL     1      -2.567  -4.793  -2.754  0.00  0.00    +0.068 A 
ATOM      5  C   UNL     1      -2.713  -4.805  -4.200  0.00  0.00    -0.023 A 
ATOM      6  C   UNL     1      -3.985  -4.676  -4.637  0.00  0.00    -0.005 A 
ATOM      7  S   UNL     1      -4.960  -4.544  -3.164  0.00  0.00    -0.078 S 
ATOM      8  C   UNL     1      -4.450  -4.652  -6.060  0.00  0.00    +0.043 C 
ATOM      9  C   UNL     1      -3.231  -4.420  -6.964  0.00  0.00    +0.005 C 
ATOM     10  C   UNL     1      -2.111  -5.373  -6.539  0.00  0.00    +0.005 C 
ATOM     11  C   UNL     1      -1.555  -4.950  -5.178  0.00  0.00    +0.037 C 
ATOM     12  C   UNL     1      -1.305  -4.929  -1.991  0.00  0.00    +0.248 C 
ATOM     13  O   UNL     1      -0.263  -5.238  -2.539  0.00  0.00    -0.270 OA
ATOM     14  N   UNL     1      -1.360  -4.696  -0.664  0.00  0.00    -0.289 N 
ATOM     15  H   UNL     1      -4.572  -4.847  -0.150  0.00  0.00    +0.149 HD
ATOM     16  H   UNL     1      -0.571  -4.887  -0.132  0.00  0.00    +0.151 HD
ENDROOT
BRANCH   1  21
ATOM     17  C   UNL     1      -1.200  -0.637   0.010  0.00  0.00    +0.120 A 
ATOM     18  C   UNL     1      -2.375   0.101   0.019  0.00  0.00    +0.045 A 
ATOM     19  C   UNL     1      -3.596  -0.545   0.027  0.00  0.00    +0.004 A 
ATOM     20  C   UNL     1      -3.648  -1.927   0.026  0.00  0.00    +0.007 A 
ATOM     21  C   UNL     1      -2.479  -2.665   0.017  0.00  0.00    -0.006 A 
ATOM     22  C   UNL     1      -1.255  -2.023   0.003  0.00  0.00    +0.052 A 
BRANCH  17  24
ATOM     23  C   UNL     1      -0.017   1.425   0.010  0.00  0.00    +0.277 C 
ATOM     24  O   UNL     1       0.002  -0.004   0.002  0.00  0.00    -0.495 OA
ENDBRANCH  17  24
ENDBRANCH   1  21
TORSDOF 2
