REMARK  Name = ZINC20533768
REMARK  1 active torsions:
REMARK  status: ('A' for Active; 'I' for Inactive)
REMARK    1  A    between atoms: C_12  and  C_18
REMARK                            x       y       z     vdW  Elec       q    Type
REMARK                         _______ _______ _______ _____ _____    ______ ____
ROOT
ATOM      1  C   UNL     1      -0.017   1.374   0.010  0.00  0.00    +0.001 A 
ATOM      2  C   UNL     1       1.170   2.093   0.002  0.00  0.00    +0.002 A 
ATOM      3  C   UNL     1       2.386   1.443  -0.012  0.00  0.00    +0.027 A 
ATOM      4  C   UNL     1       2.425   0.056  -0.020  0.00  0.00    +0.059 A 
ATOM      5  C   UNL     1       1.223  -0.674  -0.013  0.00  0.00    +0.065 A 
ATOM      6  C   UNL     1       0.002  -0.004   0.002  0.00  0.00    +0.015 A 
ATOM      7  C   UNL     1       1.303  -2.147  -0.023  0.00  0.00    +0.282 A 
ATOM      8  O   UNL     1       0.291  -2.827  -0.006  0.00  0.00    -0.265 OA
ATOM      9  N   UNL     1       2.516  -2.721  -0.052  0.00  0.00    -0.176 NA
ATOM     10  C   UNL     1       3.617  -2.008  -0.061  0.00  0.00    +0.208 A 
ATOM     11  N   UNL     1       3.615  -0.642  -0.031  0.00  0.00    -0.286 N 
ATOM     12  C   UNL     1       4.904   0.058   0.003  0.00  0.00    +0.241 C 
ATOM     13  N   UNL     1       5.867  -0.673  -0.831  0.00  0.00    -0.226 NA
ATOM     14  C   UNL     1       5.833  -1.980  -0.857  0.00  0.00    +0.182 C 
ATOM     15  N   UNL     1       4.854  -2.625  -0.108  0.00  0.00    -0.258 N 
ATOM     16  N   UNL     1       6.738  -2.697  -1.603  0.00  0.00    -0.331 N 
ATOM     17  H   UNL     1       5.029  -3.459   0.354  0.00  0.00    +0.158 HD
ATOM     18  H   UNL     1       7.415  -2.233  -2.121  0.00  0.00    +0.145 HD
ATOM     19  H   UNL     1       6.700  -3.666  -1.612  0.00  0.00    +0.145 HD
ENDROOT
BRANCH  12  20
ATOM     20  C   UNL     1       5.408   0.118   1.422  0.00  0.00    -0.003 A 
ATOM     21  C   UNL     1       4.510   0.151   2.473  0.00  0.00    +0.010 A 
ATOM     22  C   UNL     1       4.971   0.206   3.775  0.00  0.00    +0.039 A 
ATOM     23  C   UNL     1       6.332   0.229   4.026  0.00  0.00    +0.123 A 
ATOM     24  C   UNL     1       7.231   0.196   2.973  0.00  0.00    +0.039 A 
ATOM     25  C   UNL     1       6.768   0.135   1.672  0.00  0.00    +0.010 A 
ATOM     26  F   UNL     1       6.784   0.283   5.298  0.00  0.00    -0.205 F 
ENDBRANCH  12  20
TORSDOF 1
