REMARK  Name = ZINC22434885
REMARK  8 active torsions:
REMARK  status: ('A' for Active; 'I' for Inactive)
REMARK    1  A    between atoms: C_1  and  C_2
REMARK    2  A    between atoms: C_6  and  N_9
REMARK    3  A    between atoms: C_7  and  C_8
REMARK    4  A    between atoms: C_10  and  C_14
REMARK    5  A    between atoms: C_14  and  N_20
REMARK    6  A    between atoms: N_20  and  C_21
REMARK    7  A    between atoms: C_23  and  C_28
REMARK    8  A    between atoms: C_25  and  C_27
REMARK                            x       y       z     vdW  Elec       q    Type
REMARK                         _______ _______ _______ _____ _____    ______ ____
ROOT
ATOM      1  C   UNL     1       3.814   3.940  -0.613  0.00  0.00    +0.094 C 
ATOM      2  C   UNL     1       4.073   3.395   0.793  0.00  0.00    +0.034 C 
ATOM      3  C   UNL     1       5.360   2.568   0.790  0.00  0.00    +0.003 C 
ATOM      4  C   UNL     1       6.533   3.451   0.362  0.00  0.00    +0.000 C 
ATOM      5  C   UNL     1       6.274   3.996  -1.044  0.00  0.00    +0.003 C 
ATOM      6  C   UNL     1       4.987   4.824  -1.041  0.00  0.00    +0.034 C 
ENDROOT
BRANCH   1   8
ATOM      7  N   UNL     1       1.305   4.304  -0.330  0.00  0.00    -0.195 N 
ATOM      8  C   UNL     1       2.546   4.756  -0.610  0.00  0.00    +0.180 A 
ATOM      9  N   UNL     1       2.444   6.031  -0.879  0.00  0.00    -0.111 NA
ATOM     10  N   UNL     1       1.223   6.417  -0.788  0.00  0.00    -0.023 NA
ATOM     11  N   UNL     1       0.466   5.425  -0.463  0.00  0.00    -0.039 NA
BRANCH   7  17
ATOM     12  C   UNL     1      -0.606   1.169   2.945  0.00  0.00    +0.044 C 
ATOM     13  C   UNL     1       0.003   1.450   1.595  0.00  0.00    -0.046 A 
ATOM     14  C   UNL     1       0.194   0.418   0.695  0.00  0.00    +0.004 A 
ATOM     15  C   UNL     1       0.753   0.672  -0.544  0.00  0.00    +0.002 A 
ATOM     16  C   UNL     1       1.121   1.959  -0.887  0.00  0.00    +0.028 A 
ATOM     17  C   UNL     1       0.931   2.997   0.015  0.00  0.00    +0.072 A 
ATOM     18  C   UNL     1       0.370   2.739   1.258  0.00  0.00    -0.022 A 
ATOM     19  C   UNL     1       0.157   3.864   2.238  0.00  0.00    +0.046 C 
ENDBRANCH   7  17
ENDBRANCH   1   8
BRANCH   1  20
ATOM     20  N   UNL     1       3.675   2.824  -1.551  0.00  0.00    -0.332 N 
ATOM     21  H   UNL     1       3.735   1.788  -1.187  0.00  0.00    +0.147 HD
BRANCH  20  22
ATOM     22  C   UNL     1       3.466   3.075  -2.909  0.00  0.00    +0.028 A 
ATOM     23  C   UNL     1       3.205   4.368  -3.346  0.00  0.00    +0.026 A 
ATOM     24  C   UNL     1       3.004   4.614  -4.690  0.00  0.00    -0.048 A 
ATOM     25  C   UNL     1       3.051   3.573  -5.599  0.00  0.00    +0.006 A 
ATOM     26  C   UNL     1       3.305   2.284  -5.167  0.00  0.00    -0.048 A 
ATOM     27  C   UNL     1       3.512   2.032  -3.825  0.00  0.00    +0.026 A 
ATOM     28  C   UNL     1       3.356   1.153  -6.162  0.00  0.00    +0.044 C 
ATOM     29  C   UNL     1       2.727   6.017  -5.165  0.00  0.00    +0.044 C 
ENDBRANCH  20  22
ENDBRANCH   1  20
TORSDOF 4
