REMARK  Name = ZINC01121791
REMARK  4 active torsions:
REMARK  status: ('A' for Active; 'I' for Inactive)
REMARK    1  A    between atoms: C_5  and  C_7
REMARK    2  A    between atoms: C_7  and  S_8
REMARK    3  A    between atoms: S_8  and  C_9
REMARK    4  A    between atoms: C_22  and  C_25
REMARK                            x       y       z     vdW  Elec       q    Type
REMARK                         _______ _______ _______ _____ _____    ______ ____
ROOT
ATOM      1  C   UNL     1       7.095  -2.707   2.061  0.00  0.00    +0.213 A 
ATOM      2  N   UNL     1       5.809  -2.409   1.893  0.00  0.00    -0.184 NA
ATOM      3  C   UNL     1       5.474  -1.201   1.476  0.00  0.00    +0.248 A 
ATOM      4  C   UNL     1       6.500  -0.263   1.216  0.00  0.00    +0.156 A 
ATOM      5  N   UNL     1       7.760  -0.622   1.405  0.00  0.00    -0.141 NA
ATOM      6  N   UNL     1       8.042  -1.810   1.816  0.00  0.00    -0.122 NA
ATOM      7  C   UNL     1       6.148   1.090   0.739  0.00  0.00    +0.028 A 
ATOM      8  C   UNL     1       6.714   2.229   1.298  0.00  0.00    +0.012 A 
ATOM      9  C   UNL     1       6.382   3.475   0.802  0.00  0.00    +0.001 A 
ATOM     10  C   UNL     1       5.489   3.596  -0.248  0.00  0.00    +0.002 A 
ATOM     11  C   UNL     1       4.913   2.471  -0.810  0.00  0.00    +0.024 A 
ATOM     12  C   UNL     1       5.231   1.218  -0.321  0.00  0.00    +0.039 A 
ATOM     13  N   UNL     1       4.656   0.060  -0.855  0.00  0.00    -0.305 N 
ATOM     14  C   UNL     1       3.715  -0.700  -0.037  0.00  0.00    +0.294 C 
ATOM     15  O   UNL     1       4.180  -0.847   1.301  0.00  0.00    -0.449 OA
ATOM     16  H   UNL     1       4.878  -0.233  -1.753  0.00  0.00    +0.150 HD
ENDROOT
BRANCH  14  17
ATOM     17  C   UNL     1       2.389   0.016  -0.020  0.00  0.00    +0.014 A 
ATOM     18  C   UNL     1       1.900   0.631  -1.163  0.00  0.00    +0.028 A 
ATOM     19  C   UNL     1       0.680   1.278  -1.110  0.00  0.00    +0.111 A 
ATOM     20  N   UNL     1      -0.016   1.315   0.010  0.00  0.00    -0.263 NA
ATOM     21  C   UNL     1       0.418   0.742   1.115  0.00  0.00    +0.111 A 
ATOM     22  C   UNL     1       1.630   0.076   1.138  0.00  0.00    +0.028 A 
ENDBRANCH  14  17
BRANCH   1  23
ATOM     23  S   UNL     1       7.547  -4.316   2.617  0.00  0.00    -0.080 S 
BRANCH  23  24
ATOM     24  C   UNL     1       9.348  -4.140   2.657  0.00  0.00    +0.114 C 
BRANCH  24  29
ATOM     25  C   UNL     1      10.885  -7.588   2.617  0.00  0.00    +0.000 A 
ATOM     26  C   UNL     1      11.109  -7.807   3.964  0.00  0.00    +0.001 A 
ATOM     27  C   UNL     1      10.763  -6.840   4.888  0.00  0.00    +0.020 A 
ATOM     28  C   UNL     1      10.198  -5.650   4.465  0.00  0.00    +0.045 A 
ATOM     29  C   UNL     1       9.969  -5.434   3.118  0.00  0.00    -0.019 A 
ATOM     30  C   UNL     1      10.316  -6.402   2.194  0.00  0.00    +0.006 A 
ATOM     31 CL   UNL     1       9.771  -4.431   5.625  0.00  0.00    -0.083 Cl
ENDBRANCH  24  29
ENDBRANCH  23  24
ENDBRANCH   1  23
TORSDOF 4
