REMARK  Name = ZINC12126705
REMARK  6 active torsions:
REMARK  status: ('A' for Active; 'I' for Inactive)
REMARK    1  A    between atoms: C_1  and  C_2
REMARK    2  A    between atoms: C_2  and  C_3
REMARK    3  A    between atoms: C_2  and  C_4
REMARK    4  A    between atoms: C_13  and  N_20
REMARK    5  A    between atoms: C_15  and  C_17
REMARK    6  A    between atoms: C_21  and  C_23
REMARK                            x       y       z     vdW  Elec       q    Type
REMARK                         _______ _______ _______ _____ _____    ______ ____
ROOT
ATOM      1  C   UNL     1       3.136  -1.033  -4.082  0.00  0.00    +0.053 A 
ATOM      2  C   UNL     1       4.213  -1.423  -4.821  0.00  0.00    +0.093 A 
ATOM      3  C   UNL     1       5.470  -0.855  -4.541  0.00  0.00    +0.253 A 
ATOM      4  O   UNL     1       6.457  -1.179  -5.181  0.00  0.00    -0.268 OA
ATOM      5  N   UNL     1       5.563   0.057  -3.549  0.00  0.00    -0.291 N 
ATOM      6  H   UNL     1       6.419   0.462  -3.339  0.00  0.00    +0.172 HD
ATOM      7  C   UNL     1       4.453   0.406  -2.847  0.00  0.00    +0.234 A 
ATOM      8  N   UNL     1       3.282  -0.134  -3.111  0.00  0.00    -0.217 NA
ATOM      9  N   UNL     1       4.556   1.340  -1.833  0.00  0.00    -0.185 N 
ATOM     10  C   UNL     1       3.561   1.712  -0.976  0.00  0.00    +0.132 A 
ATOM     11  C   UNL     1       4.075   2.654  -0.141  0.00  0.00    +0.069 A 
ATOM     12  C   UNL     1       5.415   2.855  -0.492  0.00  0.00    +0.068 A 
ATOM     13  N   UNL     1       5.702   2.075  -1.501  0.00  0.00    -0.167 NA
ENDROOT
BRANCH  10  14
ATOM     14  N   UNL     1       2.258   1.221  -0.963  0.00  0.00    -0.267 N 
ATOM     15  C   UNL     1       1.409   1.587   0.018  0.00  0.00    +0.262 C 
ATOM     16  O   UNL     1       1.780   2.345   0.889  0.00  0.00    -0.271 OA
ATOM     17  H   UNL     1       1.961   0.615  -1.660  0.00  0.00    +0.156 HD
BRANCH  15  18
ATOM     18  C   UNL     1      -0.001   1.056   0.032  0.00  0.00    +0.296 C 
ATOM     19  C   UNL     1      -0.767   1.590  -1.186  0.00  0.00    +0.283 C 
ATOM     20  O   UNL     1      -2.103   1.077  -1.135  0.00  0.00    -0.484 OA
ATOM     21  C   UNL     1      -2.741   1.149   0.065  0.00  0.00    +0.162 A 
ATOM     22  C   UNL     1      -4.120   1.010   0.112  0.00  0.00    +0.049 A 
ATOM     23  C   UNL     1      -4.782   1.078   1.323  0.00  0.00    +0.004 A 
ATOM     24  C   UNL     1      -4.071   1.284   2.491  0.00  0.00    +0.004 A 
ATOM     25  C   UNL     1      -2.697   1.424   2.451  0.00  0.00    +0.049 A 
ATOM     26  C   UNL     1      -2.027   1.358   1.238  0.00  0.00    +0.163 A 
ATOM     27  O   UNL     1      -0.673   1.501   1.215  0.00  0.00    -0.473 OA
ENDBRANCH  15  18
ENDBRANCH  10  14
BRANCH   1  29
ATOM     28  C   UNL     1       1.267  -2.340  -3.107  0.00  0.00    +0.014 C 
ATOM     29  C   UNL     1       1.778  -1.626  -4.360  0.00  0.00    +0.032 C 
ATOM     30  C   UNL     1       0.804  -0.511  -4.745  0.00  0.00    +0.014 C 
ENDBRANCH   1  29
BRANCH  12  31
ATOM     31  C   UNL     1       6.365   3.813   0.178  0.00  0.00    +0.040 C 
ATOM     32  C   UNL     1       5.762   4.899   1.072  0.00  0.00    +0.010 C 
ATOM     33  C   UNL     1       6.350   5.269  -0.292  0.00  0.00    +0.010 C 
ENDBRANCH  12  31
TORSDOF 4
