REMARK  Name = ZINC44938201
REMARK  7 active torsions:
REMARK  status: ('A' for Active; 'I' for Inactive)
REMARK    1  A    between atoms: C_1  and  C_2
REMARK    2  A    between atoms: C_5  and  C_8
REMARK    3  A    between atoms: C_8  and  C_10
REMARK    4  A    between atoms: C_8  and  N_16
REMARK    5  A    between atoms: C_17  and  C_19
REMARK    6  A    between atoms: N_24  and  C_26
REMARK    7  A    between atoms: C_26  and  C_27
REMARK                            x       y       z     vdW  Elec       q    Type
REMARK                         _______ _______ _______ _____ _____    ______ ____
ROOT
ATOM      1  N   UNL     1      -1.423  -4.517   0.775  0.00  0.00    -0.304 N 
ATOM      2  C   UNL     1      -1.828  -5.801   0.731  0.00  0.00    +0.215 C 
ATOM      3  O   UNL     1      -1.533  -6.498  -0.218  0.00  0.00    -0.276 OA
ATOM      4  H   UNL     1      -1.659  -3.960   1.533  0.00  0.00    +0.150 HD
ENDROOT
BRANCH   2   5
ATOM      5  C   UNL     1      -2.647  -6.373   1.859  0.00  0.00    +0.058 C 
ATOM      6  C   UNL     1      -3.951  -5.581   1.997  0.00  0.00    +0.009 C 
ATOM      7  C   UNL     1      -4.810  -6.217   3.094  0.00  0.00    -0.018 C 
ATOM      8  C   UNL     1      -5.058  -7.688   2.751  0.00  0.00    -0.078 C 
ATOM      9  N   UNL     1      -3.775  -8.396   2.659  0.00  0.00    +0.383 N 
ATOM     10  C   UNL     1      -2.975  -7.838   1.562  0.00  0.00    -0.066 C 
ATOM     11  H   UNL     1      -3.272  -8.292   3.527  0.00  0.00    -0.081 HD
BRANCH   9  12
ATOM     12  C   UNL     1      -4.022  -9.822   2.406  0.00  0.00    -0.042 C 
BRANCH  12  13
ATOM     13  C   UNL     1      -4.709 -10.432   3.601  0.00  0.00    -0.056 A 
ATOM     14  C   UNL     1      -6.046 -10.685   3.566  0.00  0.00    +0.002 A 
ATOM     15  C   UNL     1      -6.698 -11.248   4.661  0.00  0.00    +0.001 A 
ATOM     16  C   UNL     1      -6.017 -11.562   5.797  0.00  0.00    +0.008 A 
ATOM     17  C   UNL     1      -4.636 -11.315   5.870  0.00  0.00    -0.018 A 
ATOM     18  C   UNL     1      -3.971 -10.748   4.755  0.00  0.00    -0.017 A 
ATOM     19  C   UNL     1      -2.588 -10.506   4.826  0.00  0.00    +0.009 A 
ATOM     20  C   UNL     1      -1.907 -10.825   5.960  0.00  0.00    +0.001 A 
ATOM     21  C   UNL     1      -2.559 -11.389   7.055  0.00  0.00    +0.001 A 
ATOM     22  C   UNL     1      -3.900 -11.625   7.027  0.00  0.00    +0.008 A 
ENDBRANCH  12  13
ENDBRANCH   9  12
ENDBRANCH   2   5
BRANCH   1  23
ATOM     23  C   UNL     1      -0.627  -3.961  -0.322  0.00  0.00    +0.134 C 
BRANCH  23  28
ATOM     24  C   UNL     1      -1.350   1.768  -0.517  0.00  0.00    +0.044 C 
ATOM     25  C   UNL     1      -1.162   0.274  -0.466  0.00  0.00    -0.050 A 
ATOM     26  C   UNL     1      -1.101  -0.455  -1.639  0.00  0.00    +0.004 A 
ATOM     27  C   UNL     1      -0.928  -1.826  -1.592  0.00  0.00    +0.006 A 
ATOM     28  C   UNL     1      -0.815  -2.467  -0.373  0.00  0.00    -0.023 A 
ATOM     29  C   UNL     1      -0.875  -1.738   0.800  0.00  0.00    +0.006 A 
ATOM     30  C   UNL     1      -1.044  -0.367   0.753  0.00  0.00    +0.004 A 
ENDBRANCH  23  28
BRANCH  23  31
ATOM     31  C   UNL     1       0.829  -4.277  -0.096  0.00  0.00    -0.023 A 
ATOM     32  C   UNL     1       1.362  -4.207   1.177  0.00  0.00    +0.006 A 
ATOM     33  C   UNL     1       2.698  -4.497   1.385  0.00  0.00    +0.000 A 
ATOM     34  C   UNL     1       3.500  -4.857   0.319  0.00  0.00    +0.000 A 
ATOM     35  C   UNL     1       2.967  -4.928  -0.955  0.00  0.00    +0.000 A 
ATOM     36  C   UNL     1       1.631  -4.643  -1.162  0.00  0.00    +0.006 A 
ENDBRANCH  23  31
ENDBRANCH   1  23
TORSDOF 6
