REMARK  Name = ZINC25176659
REMARK  3 active torsions:
REMARK  status: ('A' for Active; 'I' for Inactive)
REMARK    1  A    between atoms: C_6  and  C_7
REMARK    2  A    between atoms: C_10  and  C_12
REMARK    3  A    between atoms: C_10  and  O_16
REMARK                            x       y       z     vdW  Elec       q    Type
REMARK                         _______ _______ _______ _____ _____    ______ ____
ROOT
ATOM      1  C   UNL     1      -1.263  -0.762   0.010  0.00  0.00    +0.071 C 
ATOM      2  N   UNL     1      -2.442  -0.241   0.018  0.00  0.00    -0.178 NA
ATOM      3  N   UNL     1      -3.476  -1.175   0.024  0.00  0.00    -0.149 N 
ATOM      4  C   UNL     1      -2.896  -2.527   0.018  0.00  0.00    +0.257 C 
ATOM      5  C   UNL     1      -1.377  -2.269   0.003  0.00  0.00    +0.124 C 
ATOM      6  C   UNL     1      -4.822  -0.879   0.034  0.00  0.00    +0.260 C 
ATOM      7  N   UNL     1      -5.665  -1.861   0.043  0.00  0.00    -0.135 NA
ATOM      8  N   UNL     1      -7.037  -1.770  -0.061  0.00  0.00    -0.265 N 
ATOM      9  C   UNL     1      -7.810  -0.925   0.543  0.00  0.00    +0.094 C 
ATOM     10  N   UNL     1      -9.169  -0.971   0.324  0.00  0.00    -0.347 N 
ATOM     11  C   UNL     1      -7.240   0.110   1.485  0.00  0.00    +0.146 C 
ATOM     12  C   UNL     1      -6.262   0.951   0.700  0.00  0.00    +0.143 A 
ATOM     13  N   UNL     1      -5.201   0.450   0.038  0.00  0.00    -0.183 N 
ATOM     14  N   UNL     1      -4.587   1.535  -0.597  0.00  0.00    -0.151 NA
ATOM     15  C   UNL     1      -5.265   2.602  -0.255  0.00  0.00    +0.245 A 
ATOM     16  N   UNL     1      -6.274   2.242   0.530  0.00  0.00    -0.218 NA
ATOM     17  H   UNL     1      -9.541  -1.633  -0.280  0.00  0.00    +0.143 HD
ATOM     18  H   UNL     1      -9.754  -0.341   0.773  0.00  0.00    +0.143 HD
ATOM     19  H   UNL     1      -7.470  -2.408  -0.650  0.00  0.00    +0.190 HD
ENDROOT
BRANCH   1  25
ATOM     20  C   UNL     1      -0.017   1.393   0.010  0.00  0.00    +0.011 A 
ATOM     21  C   UNL     1       1.170   2.096   0.002  0.00  0.00    +0.020 A 
ATOM     22  C   UNL     1       2.378   1.419  -0.013  0.00  0.00    +0.041 A 
ATOM     23  C   UNL     1       2.404   0.035  -0.021  0.00  0.00    +0.020 A 
ATOM     24  C   UNL     1       1.225  -0.680  -0.014  0.00  0.00    +0.011 A 
ATOM     25  C   UNL     1       0.002  -0.004   0.002  0.00  0.00    -0.002 A 
ATOM     26 CL   UNL     1       3.868   2.312  -0.023  0.00  0.00    -0.084 Cl
ENDBRANCH   1  25
BRANCH   4  27
ATOM     27  C   UNL     1      -3.305  -3.293   1.278  0.00  0.00    +0.438 C 
ATOM     28  F   UNL     1      -4.697  -3.426   1.312  0.00  0.00    -0.166 F 
ATOM     29  F   UNL     1      -2.715  -4.561   1.264  0.00  0.00    -0.166 F 
ATOM     30  F   UNL     1      -2.876  -2.591   2.410  0.00  0.00    -0.166 F 
ENDBRANCH   4  27
BRANCH   4  31
ATOM     31  O   UNL     1      -3.293  -3.239  -1.155  0.00  0.00    -0.363 OA
ATOM     32  H   UNL     1      -4.248  -3.369  -1.233  0.00  0.00    +0.212 HD
ENDBRANCH   4  31
TORSDOF 3
