REMARK  Name = ZINC37805860
REMARK  8 active torsions:
REMARK  status: ('A' for Active; 'I' for Inactive)
REMARK    1  A    between atoms: C_1  and  C_2
REMARK    2  A    between atoms: C_2  and  C_4
REMARK    3  A    between atoms: C_2  and  N_13
REMARK    4  A    between atoms: N_13  and  C_14
REMARK    5  A    between atoms: C_15  and  C_17
REMARK    6  A    between atoms: C_17  and  N_18
REMARK    7  A    between atoms: C_19  and  C_21
REMARK    8  A    between atoms: C_21  and  N_22
REMARK                            x       y       z     vdW  Elec       q    Type
REMARK                         _______ _______ _______ _____ _____    ______ ____
ROOT
ATOM      1  N   UNL     1      -1.372  -0.511   0.012  0.00  0.00    -0.293 N 
ATOM      2  C   UNL     1      -2.290  -0.164  -1.076  0.00  0.00    +0.133 C 
ATOM      3  C   UNL     1      -1.793  -1.297   1.023  0.00  0.00    +0.233 C 
ATOM      4  O   UNL     1      -1.034  -1.585   1.924  0.00  0.00    -0.274 OA
ENDROOT
BRANCH   1   6
ATOM      5  C   UNL     1      -0.019   1.526   0.010  0.00  0.00    +0.036 C 
ATOM      6  C   UNL     1       0.002  -0.004   0.002  0.00  0.00    +0.139 C 
BRANCH   6   7
ATOM      7  C   UNL     1       0.707  -0.490  -1.238  0.00  0.00    +0.126 A 
ATOM      8  C   UNL     1       1.978  -0.913  -1.282  0.00  0.00    +0.055 A 
ATOM      9  C   UNL     1       2.237  -1.287  -2.677  0.00  0.00    +0.020 A 
ATOM     10  C   UNL     1       3.342  -1.788  -3.363  0.00  0.00    +0.011 A 
ATOM     11  C   UNL     1       3.252  -2.036  -4.705  0.00  0.00    +0.001 A 
ATOM     12  C   UNL     1       2.069  -1.791  -5.386  0.00  0.00    +0.004 A 
ATOM     13  C   UNL     1       0.966  -1.295  -4.725  0.00  0.00    +0.047 A 
ATOM     14  C   UNL     1       1.036  -1.037  -3.362  0.00  0.00    +0.135 A 
ATOM     15  O   UNL     1       0.151  -0.567  -2.459  0.00  0.00    -0.458 OA
ENDBRANCH   6   7
ENDBRANCH   1   6
BRANCH   3  16
ATOM     16  C   UNL     1      -3.207  -1.819   1.034  0.00  0.00    +0.200 C 
BRANCH  16  17
ATOM     17  N   UNL     1      -3.414  -2.642   2.228  0.00  0.00    -0.308 N 
ATOM     18  C   UNL     1      -4.613  -3.218   2.449  0.00  0.00    +0.196 C 
ATOM     19  O   UNL     1      -5.519  -3.054   1.660  0.00  0.00    -0.278 OA
ATOM     20  H   UNL     1      -2.689  -2.773   2.858  0.00  0.00    +0.149 HD
BRANCH  18  21
ATOM     21  C   UNL     1      -4.827  -4.065   3.677  0.00  0.00    +0.011 C 
BRANCH  21  22
ATOM     22  N   UNL     1      -6.205  -4.573   3.688  0.00  0.00    +0.384 N 
ATOM     23  H   UNL     1      -6.849  -3.797   3.698  0.00  0.00    -0.089 HD
ATOM     24  H   UNL     1      -6.364  -5.131   2.862  0.00  0.00    -0.089 HD
ATOM     25  H   UNL     1      -6.348  -5.140   4.510  0.00  0.00    -0.089 HD
ENDBRANCH  21  22
ENDBRANCH  18  21
ENDBRANCH  16  17
ENDBRANCH   3  16
TORSDOF 6
