REMARK  Name = ZINC39777749
REMARK  8 active torsions:
REMARK  status: ('A' for Active; 'I' for Inactive)
REMARK    1  A    between atoms: C_4  and  C_7
REMARK    2  A    between atoms: C_9  and  C_31
REMARK    3  A    between atoms: N_10  and  C_12
REMARK    4  A    between atoms: C_15  and  C_18
REMARK    5  A    between atoms: C_19  and  C_20
REMARK    6  A    between atoms: C_19  and  C_22
REMARK    7  A    between atoms: C_24  and  C_29
REMARK    8  A    between atoms: C_25  and  N_28
REMARK                            x       y       z     vdW  Elec       q    Type
REMARK                         _______ _______ _______ _____ _____    ______ ____
ROOT
ATOM      1  C   UNL     1       7.437  -1.759   0.014  0.00  0.00    +0.066 A 
ATOM      2  C   UNL     1       8.245  -2.466  -0.871  0.00  0.00    +0.028 A 
ATOM      3  C   UNL     1       9.558  -2.096  -1.053  0.00  0.00    +0.010 A 
ATOM      4  C   UNL     1      10.081  -1.007  -0.347  0.00  0.00    -0.024 A 
ATOM      5  C   UNL     1       9.265  -0.299   0.543  0.00  0.00    +0.010 A 
ATOM      6  C   UNL     1       7.951  -0.672   0.714  0.00  0.00    +0.028 A 
ENDROOT
BRANCH   1  10
ATOM      7  C   UNL     1       3.912  -2.001   0.393  0.00  0.00    +0.094 A 
ATOM      8  C   UNL     1       4.295  -3.346   0.533  0.00  0.00    +0.058 A 
ATOM      9  C   UNL     1       5.651  -3.409   0.408  0.00  0.00    +0.075 A 
ATOM     10  N   UNL     1       6.104  -2.137   0.195  0.00  0.00    -0.232 N 
ATOM     11  N   UNL     1       4.996  -1.281   0.185  0.00  0.00    -0.166 NA
BRANCH   7  15
ATOM     12  C   UNL     1      -0.066  -0.510   0.586  0.00  0.00    +0.000 A 
ATOM     13  C   UNL     1       0.986   0.359   0.362  0.00  0.00    +0.001 A 
ATOM     14  C   UNL     1       2.279  -0.119   0.298  0.00  0.00    +0.010 A 
ATOM     15  C   UNL     1       2.524  -1.481   0.460  0.00  0.00    +0.002 A 
ATOM     16  C   UNL     1       1.461  -2.353   0.686  0.00  0.00    +0.010 A 
ATOM     17  C   UNL     1       0.172  -1.864   0.748  0.00  0.00    +0.001 A 
ENDBRANCH   7  15
BRANCH   9  18
ATOM     18  C   UNL     1       6.481  -4.631   0.489  0.00  0.00    +0.000 A 
ATOM     19  C   UNL     1       7.798  -4.555   0.944  0.00  0.00    +0.010 A 
ATOM     20  C   UNL     1       8.566  -5.699   1.017  0.00  0.00    +0.001 A 
ATOM     21  C   UNL     1       8.034  -6.919   0.640  0.00  0.00    +0.000 A 
ATOM     22  C   UNL     1       6.729  -7.001   0.188  0.00  0.00    +0.001 A 
ATOM     23  C   UNL     1       5.949  -5.866   0.115  0.00  0.00    +0.010 A 
ENDBRANCH   9  18
ENDBRANCH   1  10
BRANCH   4  24
ATOM     24  C   UNL     1      11.483  -0.609  -0.537  0.00  0.00    +0.025 C 
ATOM     25  C   UNL     1      12.055  -0.712  -1.756  0.00  0.00    +0.061 C 
BRANCH  25  26
ATOM     26  C   UNL     1      13.531  -0.461  -1.919  0.00  0.00    +0.212 C 
ATOM     27  C   UNL     1      13.774   0.731  -2.829  0.00  0.00    +0.101 C 
ATOM     28  C   UNL     1      14.468   0.199  -3.878  0.00  0.00    +0.154 C 
ATOM     29  N   UNL     1      14.651  -1.132  -3.688  0.00  0.00    -0.137 NA
ATOM     30  N   UNL     1      14.171  -1.574  -2.639  0.00  0.00    -0.171 NA
BRANCH  28  31
ATOM     31  N   UNL     1      14.917   0.911  -4.974  0.00  0.00    -0.341 N 
ATOM     32  H   UNL     1      14.745   1.864  -5.037  0.00  0.00    +0.144 HD
ATOM     33  H   UNL     1      15.404   0.459  -5.680  0.00  0.00    +0.144 HD
ENDBRANCH  28  31
BRANCH  27  34
ATOM     34  C   UNL     1      13.371   2.091  -2.633  0.00  0.00    +0.101 C 
ATOM     35  N   UNL     1      13.051   3.170  -2.478  0.00  0.00    -0.191 NA
ENDBRANCH  27  34
ENDBRANCH  25  26
BRANCH  25  36
ATOM     36  C   UNL     1      11.257  -1.062  -2.893  0.00  0.00    +0.097 C 
ATOM     37  N   UNL     1      10.625  -1.338  -3.795  0.00  0.00    -0.191 NA
ENDBRANCH  25  36
ENDBRANCH   4  24
TORSDOF 8
