REMARK  Name = ZINC08964091
REMARK  8 active torsions:
REMARK  status: ('A' for Active; 'I' for Inactive)
REMARK    1  A    between atoms: C_1  and  N_2
REMARK    2  A    between atoms: C_9  and  C_11
REMARK    3  A    between atoms: C_11  and  C_13
REMARK    4  A    between atoms: C_11  and  N_57
REMARK    5  A    between atoms: C_13  and  N_14
REMARK    6  A    between atoms: C_15  and  C_17
REMARK    7  A    between atoms: N_19  and  C_20
REMARK    8  A    between atoms: C_20  and  C_21
REMARK                            x       y       z     vdW  Elec       q    Type
REMARK                         _______ _______ _______ _____ _____    ______ ____
ROOT
ATOM      1  C   UNL     1      -3.388   6.107  -1.068  0.00  0.00    -0.020 C 
ENDROOT
BRANCH   1  10
ATOM      2  C   UNL     1      -0.622   2.045   3.140  0.00  0.00    +0.129 C 
ATOM      3  N   UNL     1      -1.440   1.725   1.963  0.00  0.00    -0.332 N 
ATOM      4  C   UNL     1      -0.645   1.007   0.944  0.00  0.00    +0.109 C 
ATOM      5  C   UNL     1      -1.300   1.457  -0.382  0.00  0.00    +0.056 C 
ATOM      6  C   UNL     1      -1.906   2.798  -0.020  0.00  0.00    -0.025 A 
ATOM      7  C   UNL     1      -1.948   2.889   1.367  0.00  0.00    +0.033 A 
ATOM      8  C   UNL     1      -2.461   4.044   1.955  0.00  0.00    +0.023 A 
ATOM      9  C   UNL     1      -2.922   5.077   1.167  0.00  0.00    +0.004 A 
ATOM     10  C   UNL     1      -2.880   4.976  -0.211  0.00  0.00    -0.059 A 
ATOM     11  C   UNL     1      -2.371   3.833  -0.803  0.00  0.00    +0.007 A 
ENDBRANCH   1  10
BRANCH   1  16
ATOM     12  C   UNL     1      -1.505   7.486  -0.373  0.00  0.00    -0.078 C 
ATOM     13  C   UNL     1      -1.257   9.010  -0.251  0.00  0.00    -0.020 C 
ATOM     14  C   UNL     1      -2.322   9.610  -1.198  0.00  0.00    -0.020 C 
ATOM     15  C   UNL     1      -3.404   8.523  -1.327  0.00  0.00    -0.078 C 
ATOM     16  N   UNL     1      -2.971   7.414  -0.476  0.00  0.00    +0.385 N 
ATOM     17  H   UNL     1      -3.389   7.509   0.457  0.00  0.00    -0.081 HD
ENDBRANCH   1  16
BRANCH   1  18
ATOM     18  C   UNL     1      -4.914   6.041  -1.148  0.00  0.00    +0.094 C 
BRANCH  18  19
ATOM     19  N   UNL     1      -5.314   4.816  -1.845  0.00  0.00    -0.309 N 
ATOM     20  C   UNL     1      -6.615   4.587  -2.114  0.00  0.00    +0.299 C 
ATOM     21  O   UNL     1      -7.455   5.396  -1.778  0.00  0.00    -0.265 OA
ATOM     22  H   UNL     1      -4.642   4.169  -2.114  0.00  0.00    +0.149 HD
BRANCH  20  23
ATOM     23  C   UNL     1      -7.022   3.337  -2.825  0.00  0.00    +0.299 C 
ATOM     24  O   UNL     1      -6.182   2.529  -3.161  0.00  0.00    -0.265 OA
ATOM     25  N   UNL     1      -8.323   3.109  -3.094  0.00  0.00    -0.303 N 
ATOM     26  H   UNL     1      -8.995   3.755  -2.825  0.00  0.00    +0.149 HD
BRANCH  25  27
ATOM     27  C   UNL     1      -8.723   1.884  -3.791  0.00  0.00    +0.147 C 
BRANCH  27  28
ATOM     28  C   UNL     1     -10.220   1.871  -3.966  0.00  0.00    +0.007 A 
ATOM     29  C   UNL     1     -10.963   2.361  -4.988  0.00  0.00    +0.013 A 
ATOM     30  C   UNL     1     -12.339   2.233  -4.938  0.00  0.00    +0.008 A 
ATOM     31  C   UNL     1     -12.904   1.630  -3.863  0.00  0.00    +0.045 A 
ATOM     32  S   UNL     1     -11.474   1.214  -2.879  0.00  0.00    -0.100 S 
ENDBRANCH  27  28
ENDBRANCH  25  27
ENDBRANCH  20  23
ENDBRANCH  18  19
ENDBRANCH   1  18
TORSDOF 7
