REMARK  Name = ZINC06752897
REMARK  9 active torsions:
REMARK  status: ('A' for Active; 'I' for Inactive)
REMARK    1  A    between atoms: C_1  and  O_2
REMARK    2  A    between atoms: O_2  and  C_3
REMARK    3  A    between atoms: C_6  and  C_9
REMARK    4  A    between atoms: C_12  and  C_24
REMARK    5  A    between atoms: N_19  and  C_20
REMARK    6  A    between atoms: C_20  and  C_21
REMARK    7  A    between atoms: C_21  and  C_22
REMARK    8  A    between atoms: C_22  and  O_23
REMARK    9  A    between atoms: C_29  and  O_30
REMARK                            x       y       z     vdW  Elec       q    Type
REMARK                         _______ _______ _______ _____ _____    ______ ____
ROOT
ATOM      1  C   UNL     1       2.570  -2.556   4.268  0.00  0.00    +0.141 C 
ATOM      2  C   UNL     1       3.889  -3.137   3.838  0.00  0.00    +0.035 A 
ATOM      3  C   UNL     1       5.164  -2.905   3.312  0.00  0.00    +0.102 A 
ATOM      4  N   UNL     1       5.778  -4.069   3.237  0.00  0.00    -0.173 NA
ATOM      5  N   UNL     1       5.017  -5.013   3.663  0.00  0.00    -0.272 N 
ATOM      6  H   UNL     1       5.260  -5.952   3.701  0.00  0.00    +0.189 HD
ATOM      7  C   UNL     1       3.814  -4.499   4.057  0.00  0.00    +0.126 A 
ATOM      8  C   UNL     1       2.492  -4.810   4.612  0.00  0.00    +0.265 C 
ATOM      9  O   UNL     1       2.111  -5.925   4.916  0.00  0.00    -0.268 OA
ATOM     10  N   UNL     1       1.760  -3.687   4.740  0.00  0.00    -0.285 N 
ENDROOT
BRANCH   1  14
ATOM     11  C   UNL     1       0.651  -0.655   0.956  0.00  0.00    +0.120 A 
ATOM     12  C   UNL     1       1.107   0.104   2.024  0.00  0.00    +0.046 A 
ATOM     13  C   UNL     1       1.727  -0.513   3.093  0.00  0.00    +0.009 A 
ATOM     14  C   UNL     1       1.893  -1.886   3.100  0.00  0.00    -0.022 A 
ATOM     15  C   UNL     1       1.440  -2.644   2.037  0.00  0.00    +0.009 A 
ATOM     16  C   UNL     1       0.814  -2.033   0.967  0.00  0.00    +0.046 A 
BRANCH  11  18
ATOM     17  C   UNL     1      -0.092   1.371  -0.041  0.00  0.00    +0.277 C 
ATOM     18  O   UNL     1       0.041  -0.051  -0.097  0.00  0.00    -0.495 OA
ENDBRANCH  11  18
ENDBRANCH   1  14
BRANCH   3  19
ATOM     19  C   UNL     1       5.724  -1.590   2.911  0.00  0.00    +0.044 A 
ATOM     20  C   UNL     1       5.012  -0.420   3.165  0.00  0.00    +0.014 A 
ATOM     21  C   UNL     1       5.536   0.800   2.791  0.00  0.00    +0.001 A 
ATOM     22  C   UNL     1       6.767   0.867   2.163  0.00  0.00    +0.004 A 
ATOM     23  C   UNL     1       7.482  -0.288   1.905  0.00  0.00    +0.046 A 
ATOM     24  C   UNL     1       6.970  -1.519   2.282  0.00  0.00    +0.126 A 
BRANCH  24  25
ATOM     25  O   UNL     1       7.674  -2.655   2.035  0.00  0.00    -0.506 OA
ATOM     26  H   UNL     1       7.484  -3.056   1.176  0.00  0.00    +0.292 HD
ENDBRANCH  24  25
ENDBRANCH   3  19
BRANCH  10  27
ATOM     27  C   UNL     1       0.393  -3.606   5.259  0.00  0.00    +0.111 C 
BRANCH  27  28
ATOM     28  C   UNL     1      -0.601  -3.764   4.107  0.00  0.00    +0.047 C 
BRANCH  28  29
ATOM     29  C   UNL     1      -2.029  -3.679   4.649  0.00  0.00    +0.157 C 
BRANCH  29  30
ATOM     30  O   UNL     1      -2.957  -3.827   3.572  0.00  0.00    -0.395 OA
ATOM     31  H   UNL     1      -3.884  -3.784   3.844  0.00  0.00    +0.209 HD
ENDBRANCH  29  30
ENDBRANCH  28  29
ENDBRANCH  27  28
ENDBRANCH  10  27
TORSDOF 8
