REMARK  Name = ZINC12871418
REMARK  9 active torsions:
REMARK  status: ('A' for Active; 'I' for Inactive)
REMARK    1  A    between atoms: C_1  and  C_2
REMARK    2  A    between atoms: C_6  and  C_32
REMARK    3  A    between atoms: C_7  and  N_8
REMARK    4  A    between atoms: N_8  and  C_9
REMARK    5  A    between atoms: C_9  and  C_11
REMARK    6  A    between atoms: C_9  and  C_17
REMARK    7  A    between atoms: C_14  and  C_16
REMARK    8  A    between atoms: N_19  and  C_20
REMARK    9  A    between atoms: C_25  and  C_27
REMARK                            x       y       z     vdW  Elec       q    Type
REMARK                         _______ _______ _______ _____ _____    ______ ____
ROOT
ATOM      1  N   UNL     1       0.841  -2.648  -0.908  0.00  0.00    -0.246 N 
ATOM      2  C   UNL     1      -0.481  -2.716  -0.655  0.00  0.00    +0.273 C 
ATOM      3  O   UNL     1      -0.947  -2.136   0.307  0.00  0.00    -0.268 OA
ENDROOT
BRANCH   1  10
ATOM      4  C   UNL     1       0.968  -1.253  -3.385  0.00  0.00    +0.045 C 
ATOM      5  C   UNL     1       1.456  -2.672  -3.243  0.00  0.00    -0.029 A 
ATOM      6  C   UNL     1       1.990  -3.332  -4.333  0.00  0.00    +0.005 A 
ATOM      7  C   UNL     1       2.433  -4.635  -4.205  0.00  0.00    +0.001 A 
ATOM      8  C   UNL     1       2.349  -5.280  -2.984  0.00  0.00    +0.005 A 
ATOM      9  C   UNL     1       1.822  -4.624  -1.889  0.00  0.00    -0.029 A 
ATOM     10  C   UNL     1       1.375  -3.315  -2.015  0.00  0.00    +0.044 A 
ATOM     11  C   UNL     1       1.731  -5.328  -0.560  0.00  0.00    +0.045 C 
ENDBRANCH   1  10
BRANCH   2  12
ATOM     12  C   UNL     1      -1.363  -3.493  -1.544  0.00  0.00    +0.157 A 
ATOM     13  C   UNL     1      -2.732  -3.611  -1.349  0.00  0.00    +0.101 A 
ATOM     14  S   UNL     1      -3.171  -4.618  -2.689  0.00  0.00    +0.029 S 
ATOM     15  N   UNL     1      -1.750  -4.810  -3.345  0.00  0.00    -0.110 NA
ATOM     16  N   UNL     1      -0.929  -4.147  -2.615  0.00  0.00    -0.136 NA
ENDBRANCH   2  12
BRANCH   1  17
ATOM     17  C   UNL     1       1.717  -1.875  -0.025  0.00  0.00    +0.233 C 
BRANCH  17  18
ATOM     18  C   UNL     1       1.274  -0.435  -0.012  0.00  0.00    +0.135 A 
ATOM     19  C   UNL     1       2.086   0.638  -0.014  0.00  0.00    +0.047 A 
ATOM     20  C   UNL     1       1.254   1.781  -0.000  0.00  0.00    +0.045 A 
ATOM     21  C   UNL     1      -0.016   1.339   0.009  0.00  0.00    +0.102 A 
ATOM     22  O   UNL     1       0.002  -0.004   0.002  0.00  0.00    -0.462 OA
ATOM     23  C   UNL     1      -1.250   2.203   0.020  0.00  0.00    +0.086 C 
ENDBRANCH  17  18
BRANCH  17  24
ATOM     24  C   UNL     1       1.643  -2.436   1.372  0.00  0.00    +0.242 C 
ATOM     25  O   UNL     1       0.928  -3.387   1.607  0.00  0.00    -0.273 OA
ATOM     26  N   UNL     1       2.370  -1.880   2.361  0.00  0.00    -0.311 N 
ATOM     27  H   UNL     1       2.942  -1.119   2.173  0.00  0.00    +0.149 HD
BRANCH  26  28
ATOM     28  C   UNL     1       2.298  -2.424   3.719  0.00  0.00    +0.073 C 
ATOM     29  C   UNL     1       1.141  -1.761   4.493  0.00  0.00    +0.022 C 
ATOM     30  C   UNL     1       1.685  -1.613   5.936  0.00  0.00    +0.002 C 
ATOM     31  C   UNL     1       3.170  -1.241   5.705  0.00  0.00    +0.002 C 
ATOM     32  C   UNL     1       3.589  -2.094   4.489  0.00  0.00    +0.022 C 
ENDBRANCH  26  28
ENDBRANCH  17  24
ENDBRANCH   1  17
TORSDOF 6
