REMARK  Name = ZINC14270328
REMARK  5 active torsions:
REMARK  status: ('A' for Active; 'I' for Inactive)
REMARK    1  A    between atoms: C_6  and  C_7
REMARK    2  A    between atoms: N_9  and  C_10
REMARK    3  A    between atoms: C_10  and  N_12
REMARK    4  A    between atoms: N_12  and  C_13
REMARK    5  A    between atoms: C_18  and  O_19
REMARK                            x       y       z     vdW  Elec       q    Type
REMARK                         _______ _______ _______ _____ _____    ______ ____
ROOT
ATOM      1  C   UNL     1      -2.374  -0.071   0.127  0.00  0.00    +0.141 C 
ATOM      2  S   UNL     1      -2.405   1.641   0.137  0.00  0.00    -0.018 S 
ENDROOT
BRANCH   1   5
ATOM      3  C   UNL     1      -4.697  -0.114   0.353  0.00  0.00    +0.250 C 
ATOM      4  O   UNL     1      -4.719   1.101   0.360  0.00  0.00    -0.270 OA
ATOM      5  N   UNL     1      -3.523  -0.766   0.236  0.00  0.00    -0.264 N 
ATOM      6  H   UNL     1      -3.506  -1.736   0.231  0.00  0.00    +0.157 HD
BRANCH   3  12
ATOM      7  C   UNL     1      -5.936  -2.273   0.460  0.00  0.00    +0.014 A 
ATOM      8  C   UNL     1      -7.115  -2.978   0.578  0.00  0.00    +0.015 A 
ATOM      9  C   UNL     1      -8.319  -2.306   0.697  0.00  0.00    +0.013 A 
ATOM     10  C   UNL     1      -8.347  -0.922   0.706  0.00  0.00    +0.015 A 
ATOM     11  C   UNL     1      -7.175  -0.204   0.594  0.00  0.00    +0.014 A 
ATOM     12  C   UNL     1      -5.957  -0.876   0.473  0.00  0.00    +0.037 A 
ATOM     13  I   UNL     1     -10.105  -3.387   0.867  0.00  0.00    -0.044 I 
ENDBRANCH   3  12
ENDBRANCH   1   5
BRANCH   1  14
ATOM     14  N   UNL     1      -1.200  -0.723   0.010  0.00  0.00    -0.294 N 
ATOM     15  H   UNL     1      -1.189  -1.689  -0.075  0.00  0.00    +0.154 HD
BRANCH  14  16
ATOM     16  C   UNL     1       0.003  -0.005   0.012  0.00  0.00    +0.077 A 
ATOM     17  C   UNL     1       0.204   1.012   0.934  0.00  0.00    +0.047 A 
ATOM     18  C   UNL     1       1.393   1.719   0.934  0.00  0.00    +0.044 A 
ATOM     19  C   UNL     1       2.383   1.415   0.017  0.00  0.00    +0.043 A 
ATOM     20  C   UNL     1       2.188   0.402  -0.905  0.00  0.00    +0.086 A 
ATOM     21  C   UNL     1       0.999  -0.311  -0.911  0.00  0.00    +0.156 A 
ATOM     22 CL   UNL     1       3.433   0.024  -2.055  0.00  0.00    -0.080 Cl
ATOM     23 CL   UNL     1       1.643   2.992   2.088  0.00  0.00    -0.083 Cl
BRANCH  21  24
ATOM     24  O   UNL     1       0.806  -1.307  -1.817  0.00  0.00    -0.504 OA
ATOM     25  H   UNL     1       0.404  -1.013  -2.646  0.00  0.00    +0.292 HD
ENDBRANCH  21  24
ENDBRANCH  14  16
ENDBRANCH   1  14
TORSDOF 5
