REMARK  Name = ZINC48999605
REMARK  10 active torsions:
REMARK  status: ('A' for Active; 'I' for Inactive)
REMARK    1  A    between atoms: C_1  and  C_2
REMARK    2  A    between atoms: C_4  and  O_21
REMARK    3  A    between atoms: N_8  and  C_9
REMARK    4  A    between atoms: C_9  and  C_10
REMARK    5  A    between atoms: C_14  and  C_16
REMARK    6  A    between atoms: C_16  and  N_17
REMARK    7  A    between atoms: N_17  and  C_18
REMARK    8  A    between atoms: N_17  and  C_19
REMARK    9  A    between atoms: O_21  and  C_22
REMARK   10  A    between atoms: C_22  and  C_23
REMARK                            x       y       z     vdW  Elec       q    Type
REMARK                         _______ _______ _______ _____ _____    ______ ____
ROOT
ATOM      1  C   UNL     1       0.011   1.199  -0.134  0.00  0.00    +0.064 C 
ATOM      2  C   UNL     1       0.060  -0.297   0.043  0.00  0.00    +0.023 A 
ATOM      3  C   UNL     1       0.001  -1.099  -1.042  0.00  0.00    +0.068 A 
ATOM      4  C   UNL     1       0.046  -2.498  -0.882  0.00  0.00    +0.142 A 
ATOM      5  C   UNL     1       0.150  -3.024   0.393  0.00  0.00    +0.124 A 
ATOM      6  C   UNL     1       0.207  -2.152   1.487  0.00  0.00    +0.269 A 
ATOM      7  O   UNL     1       0.300  -2.600   2.619  0.00  0.00    -0.266 OA
ATOM      8  N   UNL     1       0.167  -0.821   1.293  0.00  0.00    -0.307 N 
ATOM      9 BR   UNL     1       0.212  -4.896   0.655  0.00  0.00    -0.041 Br
ENDROOT
BRANCH   8  10
ATOM     10  C   UNL     1       0.235   0.078   2.448  0.00  0.00    +0.160 C 
BRANCH  10  11
ATOM     11  C   UNL     1       1.677   0.367   2.775  0.00  0.00    -0.027 A 
ATOM     12  C   UNL     1       2.381  -0.482   3.608  0.00  0.00    +0.005 A 
ATOM     13  C   UNL     1       3.704  -0.217   3.909  0.00  0.00    +0.001 A 
ATOM     14  C   UNL     1       4.324   0.898   3.375  0.00  0.00    +0.002 A 
ATOM     15  C   UNL     1       3.621   1.747   2.542  0.00  0.00    -0.064 A 
ATOM     16  C   UNL     1       2.299   1.479   2.238  0.00  0.00    +0.007 A 
BRANCH  15  17
ATOM     17  C   UNL     1       4.296   2.962   1.961  0.00  0.00    -0.044 C 
BRANCH  17  18
ATOM     18  N   UNL     1       4.915   2.611   0.675  0.00  0.00    +0.379 N 
ATOM     19  C   UNL     1       3.868   2.250  -0.290  0.00  0.00    -0.096 C 
ATOM     20  C   UNL     1       5.674   3.761   0.167  0.00  0.00    -0.096 C 
ATOM     21  H   UNL     1       5.538   1.828   0.805  0.00  0.00    -0.082 HD
ENDBRANCH  17  18
ENDBRANCH  15  17
ENDBRANCH  10  11
ENDBRANCH   8  10
BRANCH   4  22
ATOM     22  O   UNL     1      -0.013  -3.316  -1.961  0.00  0.00    -0.486 OA
BRANCH  22  23
ATOM     23  C   UNL     1      -1.220  -3.295  -2.725  0.00  0.00    +0.267 C 
BRANCH  23  24
ATOM     24  C   UNL     1      -1.150  -4.348  -3.801  0.00  0.00    +0.025 A 
ATOM     25  C   UNL     1      -0.029  -5.149  -3.914  0.00  0.00    +0.012 A 
ATOM     26  C   UNL     1       0.036  -6.115  -4.899  0.00  0.00    +0.039 A 
ATOM     27  C   UNL     1      -1.022  -6.282  -5.777  0.00  0.00    +0.126 A 
ATOM     28  C   UNL     1      -2.146  -5.481  -5.665  0.00  0.00    +0.077 A 
ATOM     29  C   UNL     1      -2.212  -4.518  -4.673  0.00  0.00    +0.132 A 
ATOM     30  F   UNL     1      -3.310  -3.739  -4.560  0.00  0.00    -0.205 F 
ATOM     31  F   UNL     1      -0.958  -7.226  -6.741  0.00  0.00    -0.205 F 
ENDBRANCH  23  24
ENDBRANCH  22  23
ENDBRANCH   4  22
TORSDOF 7
