REMARK  Name = ZINC39638157
REMARK  11 active torsions:
REMARK  status: ('A' for Active; 'I' for Inactive)
REMARK    1  A    between atoms: C_1  and  C_2
REMARK    2  A    between atoms: C_2  and  C_3
REMARK    3  A    between atoms: C_3  and  C_5
REMARK    4  A    between atoms: C_3  and  N_8
REMARK    5  A    between atoms: C_5  and  O_6
REMARK    6  A    between atoms: O_6  and  C_7
REMARK    7  A    between atoms: C_9  and  C_11
REMARK    8  A    between atoms: C_22  and  C_24
REMARK    9  A    between atoms: C_25  and  C_35
REMARK   10  A    between atoms: C_28  and  C_29
REMARK   11  A    between atoms: C_31  and  C_34
REMARK                            x       y       z     vdW  Elec       q    Type
REMARK                         _______ _______ _______ _____ _____    ______ ____
ROOT
ATOM      1  C   UNL     1      -3.265   1.433   2.841  0.00  0.00    +0.100 C 
ATOM      2  C   UNL     1      -2.152   1.754   3.864  0.00  0.00    +0.121 C 
ATOM      3  N   UNL     1      -1.958   3.219   3.758  0.00  0.00    -0.296 N 
ATOM      4  C   UNL     1      -3.327   3.762   3.593  0.00  0.00    +0.115 C 
ATOM      5  C   UNL     1      -4.036   2.752   2.669  0.00  0.00    -0.004 C 
ATOM      6  C   UNL     1      -3.961   3.222   1.219  0.00  0.00    -0.010 C 
ATOM      7  C   UNL     1      -4.781   4.505   1.061  0.00  0.00    -0.082 C 
ATOM      8  N   UNL     1      -6.176   4.246   1.440  0.00  0.00    +0.379 N 
ATOM      9  C   UNL     1      -6.249   3.884   2.861  0.00  0.00    -0.082 C 
ATOM     10  C   UNL     1      -5.490   2.575   3.096  0.00  0.00    -0.010 C 
ATOM     11  C   UNL     1      -0.797   3.904   3.801  0.00  0.00    +0.252 C 
ATOM     12  O   UNL     1      -0.808   5.120   3.787  0.00  0.00    -0.270 OA
ATOM     13  H   UNL     1      -6.727   5.076   1.277  0.00  0.00    -0.086 HD
ATOM     14  H   UNL     1      -6.540   3.489   0.882  0.00  0.00    -0.086 HD
ENDROOT
BRANCH  11  15
ATOM     15  C   UNL     1       0.483   3.179   3.864  0.00  0.00    +0.108 A 
ATOM     16  C   UNL     1       1.327   2.866   2.769  0.00  0.00    +0.093 A 
ATOM     17  N   UNL     1       2.360   2.222   3.225  0.00  0.00    -0.082 NA
ATOM     18  O   UNL     1       2.235   2.090   4.628  0.00  0.00    -0.352 OA
ATOM     19  C   UNL     1       1.091   2.681   5.008  0.00  0.00    +0.201 A 
ATOM     20  C   UNL     1       1.070   3.218   1.327  0.00  0.00    +0.070 C 
BRANCH  19  21
ATOM     21  C   UNL     1       0.573   2.780   6.389  0.00  0.00    +0.152 A 
ATOM     22  C   UNL     1       1.200   2.275   7.555  0.00  0.00    +0.079 A 
ATOM     23  C   UNL     1       0.417   2.566   8.608  0.00  0.00    +0.135 A 
ATOM     24  O   UNL     1      -0.663   3.225   8.161  0.00  0.00    -0.359 OA
ATOM     25  N   UNL     1      -0.548   3.357   6.756  0.00  0.00    -0.075 NA
ATOM     26  C   UNL     1       0.703   2.212  10.045  0.00  0.00    +0.089 C 
ENDBRANCH  19  21
ENDBRANCH  11  15
BRANCH   1  28
ATOM     27  N   UNL     1      -3.378   0.240   0.677  0.00  0.00    -0.310 N 
ATOM     28  C   UNL     1      -2.663   1.001   1.529  0.00  0.00    +0.218 C 
ATOM     29  O   UNL     1      -1.534   1.339   1.240  0.00  0.00    -0.275 OA
ATOM     30  H   UNL     1      -4.249  -0.095   0.941  0.00  0.00    +0.149 HD
BRANCH  27  31
ATOM     31  C   UNL     1      -2.839  -0.081  -0.647  0.00  0.00    +0.098 C 
BRANCH  31  33
ATOM     32  C   UNL     1      -1.122  -1.622   0.311  0.00  0.00    +0.006 C 
ATOM     33  C   UNL     1      -2.310  -1.516  -0.648  0.00  0.00    +0.021 C 
ENDBRANCH  31  33
BRANCH  31  34
ATOM     34  C   UNL     1      -3.946   0.055  -1.694  0.00  0.00    +0.181 C 
BRANCH  34  35
ATOM     35  O   UNL     1      -4.957  -0.925  -1.449  0.00  0.00    -0.381 OA
ATOM     36  C   UNL     1      -6.043  -0.885  -2.377  0.00  0.00    +0.194 C 
ENDBRANCH  34  35
ENDBRANCH  31  34
ENDBRANCH  27  31
ENDBRANCH   1  28
TORSDOF 7
