REMARK  Name = ZINC51386081
REMARK  7 active torsions:
REMARK  status: ('A' for Active; 'I' for Inactive)
REMARK    1  A    between atoms: C_4  and  C_7
REMARK    2  A    between atoms: N_10  and  C_13
REMARK    3  A    between atoms: C_13  and  C_14
REMARK    4  A    between atoms: N_19  and  C_20
REMARK    5  A    between atoms: C_20  and  C_22
REMARK    6  A    between atoms: C_22  and  C_23
REMARK    7  A    between atoms: C_22  and  C_29
REMARK                            x       y       z     vdW  Elec       q    Type
REMARK                         _______ _______ _______ _____ _____    ______ ____
ROOT
ATOM      1  C   UNL     1       6.488  -5.491   0.820  0.00  0.00    -0.008 A 
ATOM      2  C   UNL     1       6.411  -6.822   0.926  0.00  0.00    +0.093 A 
ATOM      3  N   UNL     1       6.361  -7.347   2.179  0.00  0.00    -0.342 N 
ATOM      4  C   UNL     1       6.392  -6.503   3.245  0.00  0.00    +0.163 A 
ATOM      5  S   UNL     1       6.497  -4.985   2.530  0.00  0.00    -0.059 S 
ATOM      6  N   UNL     1       6.354  -6.807   4.545  0.00  0.00    -0.156 NA
ATOM      7  H   UNL     1       6.304  -8.306   2.311  0.00  0.00    +0.167 HD
ENDROOT
BRANCH   6   8
ATOM      8  C   UNL     1       6.276  -8.075   4.928  0.00  0.00    +0.250 C 
ATOM      9  O   UNL     1       6.239  -8.960   4.095  0.00  0.00    -0.273 OA
BRANCH   8  10
ATOM     10  C   UNL     1       6.234  -8.418   6.394  0.00  0.00    +0.137 C 
BRANCH  10  11
ATOM     11  C   UNL     1       6.146  -9.913   6.558  0.00  0.00    -0.031 A 
ATOM     12  C   UNL     1       5.129 -10.467   7.312  0.00  0.00    +0.005 A 
ATOM     13  C   UNL     1       5.049 -11.839   7.463  0.00  0.00    +0.000 A 
ATOM     14  C   UNL     1       5.986 -12.657   6.859  0.00  0.00    +0.000 A 
ATOM     15  C   UNL     1       7.003 -12.102   6.104  0.00  0.00    +0.000 A 
ATOM     16  C   UNL     1       7.080 -10.731   5.950  0.00  0.00    +0.005 A 
ENDBRANCH  10  11
BRANCH  10  17
ATOM     17  C   UNL     1       7.484  -7.911   7.065  0.00  0.00    -0.031 A 
ATOM     18  C   UNL     1       8.725  -8.219   6.539  0.00  0.00    +0.005 A 
ATOM     19  C   UNL     1       9.872  -7.754   7.154  0.00  0.00    +0.000 A 
ATOM     20  C   UNL     1       9.778  -6.981   8.296  0.00  0.00    +0.000 A 
ATOM     21  C   UNL     1       8.538  -6.671   8.822  0.00  0.00    +0.000 A 
ATOM     22  C   UNL     1       7.391  -7.133   8.204  0.00  0.00    +0.005 A 
ENDBRANCH  10  17
ENDBRANCH   8  10
ENDBRANCH   6   8
BRANCH   1  23
ATOM     23  C   UNL     1       6.556  -4.640  -0.421  0.00  0.00    -0.034 C 
BRANCH  23  27
ATOM     24  C   UNL     1       3.967  -1.270  -0.745  0.00  0.00    +0.016 C 
ATOM     25  C   UNL     1       4.069  -2.257  -1.912  0.00  0.00    -0.011 C 
ATOM     26  C   UNL     1       5.361  -3.066  -1.778  0.00  0.00    -0.078 C 
ATOM     27  N   UNL     1       5.351  -3.805  -0.510  0.00  0.00    +0.383 N 
ATOM     28  C   UNL     1       5.326  -2.863   0.616  0.00  0.00    -0.078 C 
ATOM     29  C   UNL     1       4.032  -2.047   0.574  0.00  0.00    -0.011 C 
ATOM     30  H   UNL     1       4.533  -4.394  -0.472  0.00  0.00    -0.081 HD
BRANCH  24  34
ATOM     31  C   UNL     1       0.262   0.842  -0.981  0.00  0.00    +0.000 A 
ATOM     32  C   UNL     1       1.457   1.536  -1.016  0.00  0.00    +0.000 A 
ATOM     33  C   UNL     1       2.656   0.853  -0.940  0.00  0.00    +0.004 A 
ATOM     34  C   UNL     1       2.660  -0.525  -0.827  0.00  0.00    -0.044 A 
ATOM     35  C   UNL     1       1.465  -1.220  -0.791  0.00  0.00    +0.004 A 
ATOM     36  C   UNL     1       0.266  -0.536  -0.869  0.00  0.00    +0.000 A 
ENDBRANCH  24  34
ENDBRANCH  23  27
ENDBRANCH   1  23
TORSDOF 7
