REMARK  Name = ZINC67504076
REMARK  4 active torsions:
REMARK  status: ('A' for Active; 'I' for Inactive)
REMARK    1  A    between atoms: C_3  and  N_22
REMARK    2  A    between atoms: C_6  and  C_7
REMARK    3  A    between atoms: C_7  and  N_8
REMARK    4  A    between atoms: N_8  and  C_9
REMARK                            x       y       z     vdW  Elec       q    Type
REMARK                         _______ _______ _______ _____ _____    ______ ____
ROOT
ATOM      1  N   UNL     1      -1.728  -1.016  -1.371  0.00  0.00    +0.386 N 
ATOM      2  H   UNL     1      -1.922  -0.167  -1.880  0.00  0.00    -0.085 HD
ATOM      3  H   UNL     1      -0.968  -1.508  -1.816  0.00  0.00    -0.085 HD
ENDROOT
BRANCH   1   4
ATOM      4  C   UNL     1      -2.925  -1.868  -1.366  0.00  0.00    -0.039 C 
ATOM      5  C   UNL     1      -4.100  -1.080  -0.790  0.00  0.00    -0.011 C 
ATOM      6  C   UNL     1      -5.378  -1.901  -1.004  0.00  0.00    +0.005 C 
ATOM      7  C   UNL     1      -5.684  -1.928  -2.499  0.00  0.00    +0.053 C 
ATOM      8  C   UNL     1      -4.469  -2.349  -3.285  0.00  0.00    +0.021 A 
ATOM      9  C   UNL     1      -3.223  -2.315  -2.773  0.00  0.00    -0.042 A 
ATOM     10  C   UNL     1      -2.131  -2.712  -3.571  0.00  0.00    +0.009 A 
ATOM     11  C   UNL     1      -2.340  -3.130  -4.849  0.00  0.00    +0.070 A 
ATOM     12  C   UNL     1      -3.653  -3.159  -5.349  0.00  0.00    +0.249 A 
ATOM     13  O   UNL     1      -3.865  -3.534  -6.492  0.00  0.00    -0.268 OA
ATOM     14  N   UNL     1      -4.672  -2.776  -4.567  0.00  0.00    -0.326 N 
ATOM     15  H   UNL     1      -5.575  -2.802  -4.920  0.00  0.00    +0.169 HD
ENDBRANCH   1   4
BRANCH   1  16
ATOM     16  C   UNL     1      -1.356  -0.685   0.011  0.00  0.00    -0.046 C 
BRANCH  16  22
ATOM     17  C   UNL     1      -0.071   1.460  -0.070  0.00  0.00    +0.004 A 
ATOM     18  C   UNL     1       1.117   2.165  -0.069  0.00  0.00    +0.028 A 
ATOM     19  C   UNL     1       2.325   1.486   0.015  0.00  0.00    +0.067 A 
ATOM     20  C   UNL     1       2.334   0.100   0.098  0.00  0.00    +0.028 A 
ATOM     21  C   UNL     1       1.143  -0.599   0.096  0.00  0.00    +0.004 A 
ATOM     22  C   UNL     1      -0.058   0.080   0.012  0.00  0.00    -0.064 A 
BRANCH  19  23
ATOM     23  N   UNL     1       3.532   2.199   0.017  0.00  0.00    -0.220 N 
ATOM     24  C   UNL     1       4.774   1.682   0.087  0.00  0.00    +0.225 A 
ATOM     25  N   UNL     1       5.627   2.674   0.060  0.00  0.00    -0.222 NA
ATOM     26  C   UNL     1       4.973   3.832  -0.026  0.00  0.00    +0.245 A 
ATOM     27  N   UNL     1       3.688   3.592  -0.062  0.00  0.00    -0.154 NA
ENDBRANCH  19  23
ENDBRANCH  16  22
ENDBRANCH   1  16
TORSDOF 4
