REMARK  Name = ZINC11538435
REMARK  10 active torsions:
REMARK  status: ('A' for Active; 'I' for Inactive)
REMARK    1  A    between atoms: C_1  and  C_2
REMARK    2  A    between atoms: C_2  and  C_3
REMARK    3  A    between atoms: C_3  and  C_5
REMARK    4  A    between atoms: C_3  and  C_6
REMARK    5  A    between atoms: C_9  and  N_12
REMARK    6  A    between atoms: C_22  and  S_23
REMARK    7  A    between atoms: S_23  and  C_24
REMARK    8  A    between atoms: C_24  and  C_25
REMARK    9  A    between atoms: N_27  and  C_28
REMARK   10  A    between atoms: C_28  and  C_35
REMARK                            x       y       z     vdW  Elec       q    Type
REMARK                         _______ _______ _______ _____ _____    ______ ____
ROOT
ATOM      1  N   UNL     1      -2.991   4.946   6.154  0.00  0.00    -0.255 N 
ATOM      2  C   UNL     1      -2.223   5.639   7.027  0.00  0.00    +0.267 A 
ATOM      3  O   UNL     1      -1.054   5.879   6.786  0.00  0.00    -0.267 OA
ATOM      4  C   UNL     1      -2.853   6.096   8.272  0.00  0.00    +0.065 A 
ATOM      5  C   UNL     1      -2.148   6.821   9.232  0.00  0.00    +0.015 A 
ATOM      6  C   UNL     1      -2.782   7.218  10.377  0.00  0.00    +0.001 A 
ATOM      7  C   UNL     1      -4.118   6.907  10.593  0.00  0.00    +0.002 A 
ATOM      8  C   UNL     1      -4.833   6.198   9.669  0.00  0.00    +0.028 A 
ATOM      9  C   UNL     1      -4.213   5.778   8.489  0.00  0.00    +0.079 A 
ATOM     10  N   UNL     1      -4.884   5.073   7.547  0.00  0.00    -0.223 NA
ATOM     11  C   UNL     1      -4.301   4.680   6.442  0.00  0.00    +0.177 A 
ENDROOT
BRANCH   1  15
ATOM     12  C   UNL     1      -1.345   3.595   2.572  0.00  0.00    -0.044 A 
ATOM     13  C   UNL     1      -1.299   2.793   3.697  0.00  0.00    +0.006 A 
ATOM     14  C   UNL     1      -1.839   3.240   4.888  0.00  0.00    +0.026 A 
ATOM     15  C   UNL     1      -2.437   4.492   4.950  0.00  0.00    +0.052 A 
ATOM     16  C   UNL     1      -2.486   5.292   3.817  0.00  0.00    +0.026 A 
ATOM     17  C   UNL     1      -1.940   4.841   2.631  0.00  0.00    +0.006 A 
BRANCH  12  18
ATOM     18  C   UNL     1      -0.751   3.106   1.276  0.00  0.00    +0.016 C 
ATOM     19  C   UNL     1      -1.453   1.815   0.848  0.00  0.00    +0.012 C 
BRANCH  18  21
ATOM     20  C   UNL     1       1.371   2.457   0.127  0.00  0.00    +0.004 C 
ATOM     21  C   UNL     1       0.742   2.833   1.470  0.00  0.00    +0.004 C 
ENDBRANCH  18  21
ENDBRANCH  12  18
ENDBRANCH   1  15
BRANCH  11  22
ATOM     22  S   UNL     1      -5.250   3.767   5.271  0.00  0.00    -0.078 S 
BRANCH  22  23
ATOM     23  C   UNL     1      -6.841   3.711   6.131  0.00  0.00    +0.173 C 
BRANCH  23  24
ATOM     24  C   UNL     1      -7.839   2.955   5.292  0.00  0.00    +0.224 C 
ATOM     25  O   UNL     1      -7.507   2.499   4.218  0.00  0.00    -0.275 OA
ATOM     26  N   UNL     1      -9.101   2.786   5.734  0.00  0.00    -0.308 N 
ATOM     27  H   UNL     1      -9.367   3.150   6.593  0.00  0.00    +0.149 HD
BRANCH  26  28
ATOM     28  C   UNL     1     -10.071   2.051   4.918  0.00  0.00    +0.052 C 
ATOM     29  C   UNL     1     -10.156   2.713   3.544  0.00  0.00    +0.049 C 
ATOM     30  C   UNL     1     -11.563   2.488   2.923  0.00  0.00    +0.168 C 
ATOM     31  S   UNL     1     -12.603   2.698   4.434  0.00  0.00    -0.029 S 
ATOM     32  O   UNL     1     -13.733   1.840   4.347  0.00  0.00    -0.174 OA
ATOM     33  O   UNL     1     -12.791   4.084   4.685  0.00  0.00    -0.174 OA
ATOM     34  C   UNL     1     -11.418   2.014   5.667  0.00  0.00    +0.191 C 
ATOM     35  C   UNL     1      -9.571   0.617   4.738  0.00  0.00    +0.033 C 
ENDBRANCH  26  28
ENDBRANCH  23  24
ENDBRANCH  22  23
ENDBRANCH  11  22
TORSDOF 7
