REMARK  Name = ZINC01426267
REMARK  8 active torsions:
REMARK  status: ('A' for Active; 'I' for Inactive)
REMARK    1  A    between atoms: C_1  and  N_2
REMARK    2  A    between atoms: C_9  and  C_12
REMARK    3  A    between atoms: C_9  and  O_31
REMARK    4  A    between atoms: C_12  and  C_13
REMARK    5  A    between atoms: C_13  and  C_15
REMARK    6  A    between atoms: C_18  and  O_21
REMARK    7  A    between atoms: O_21  and  C_22
REMARK    8  A    between atoms: C_22  and  C_23
REMARK                            x       y       z     vdW  Elec       q    Type
REMARK                         _______ _______ _______ _____ _____    ______ ____
ROOT
ATOM      1  C   UNL     1       4.322   4.918   1.219  0.00  0.00    +0.167 C 
ATOM      2  O   UNL     1       5.030   4.619   0.281  0.00  0.00    -0.292 OA
ENDROOT
BRANCH   1   3
ATOM      3  C   UNL     1       4.864   5.723   2.321  0.00  0.00    +0.018 A 
ATOM      4  C   UNL     1       4.046   6.074   3.402  0.00  0.00    +0.015 A 
ATOM      5  C   UNL     1       4.559   6.823   4.431  0.00  0.00    +0.046 A 
ATOM      6  C   UNL     1       5.884   7.242   4.396  0.00  0.00    +0.121 A 
ATOM      7  C   UNL     1       6.699   6.901   3.322  0.00  0.00    +0.046 A 
ATOM      8  C   UNL     1       6.198   6.149   2.291  0.00  0.00    +0.015 A 
BRANCH   6   9
ATOM      9  O   UNL     1       6.385   7.986   5.414  0.00  0.00    -0.483 OA
BRANCH   9  10
ATOM     10  C   UNL     1       5.494   8.301   6.486  0.00  0.00    +0.324 C 
BRANCH  10  11
ATOM     11  C   UNL     1       6.220   9.127   7.517  0.00  0.00    +0.253 C 
ATOM     12  O   UNL     1       7.386   9.418   7.349  0.00  0.00    -0.272 OA
ATOM     13  N   UNL     1       5.575   9.543   8.624  0.00  0.00    -0.299 N 
ATOM     14  C   UNL     1       4.161   9.204   8.838  0.00  0.00    +0.108 C 
ATOM     15  C   UNL     1       4.022   8.537  10.215  0.00  0.00    +0.019 C 
ATOM     16  C   UNL     1       4.616   9.457  11.284  0.00  0.00    +0.003 C 
ATOM     17  C   UNL     1       6.105   9.673  11.002  0.00  0.00    +0.019 C 
ATOM     18  C   UNL     1       6.269  10.349   9.637  0.00  0.00    +0.108 C 
ENDBRANCH  10  11
ENDBRANCH   9  10
ENDBRANCH   6   9
ENDBRANCH   1   3
BRANCH   1  19
ATOM     19  C   UNL     1       2.886   4.462   1.254  0.00  0.00    +0.129 C 
BRANCH  19  28
ATOM     20  C   UNL     1       2.898  -0.067  -0.024  0.00  0.00    +0.138 C 
ATOM     21  N   UNL     1       2.509   1.346  -0.014  0.00  0.00    -0.271 N 
ATOM     22  C   UNL     1       1.186   1.788   0.000  0.00  0.00    +0.042 A 
ATOM     23  C   UNL     1      -0.013   1.076   0.008  0.00  0.00    +0.024 A 
ATOM     24  C   UNL     1      -1.217   1.748   0.017  0.00  0.00    +0.002 A 
ATOM     25  C   UNL     1      -1.246   3.131   0.029  0.00  0.00    +0.000 A 
ATOM     26  C   UNL     1      -0.061   3.844   0.022  0.00  0.00    +0.009 A 
ATOM     27  C   UNL     1       1.143   3.176   0.008  0.00  0.00    +0.015 A 
ATOM     28  C   UNL     1       2.579   3.646  -0.003  0.00  0.00    +0.175 C 
ATOM     29  C   UNL     1       3.385   2.364  -0.017  0.00  0.00    +0.256 C 
ATOM     30  O   UNL     1       4.595   2.274  -0.029  0.00  0.00    -0.272 OA
BRANCH  28  31
ATOM     31  O   UNL     1       2.845   4.417  -1.177  0.00  0.00    -0.374 OA
ATOM     32  H   UNL     1       3.753   4.744  -1.235  0.00  0.00    +0.211 HD
ENDBRANCH  28  31
ENDBRANCH  19  28
ENDBRANCH   1  19
TORSDOF 7
