REMARK  Name = ZINC39684028
REMARK  8 active torsions:
REMARK  status: ('A' for Active; 'I' for Inactive)
REMARK    1  A    between atoms: C_1  and  C_2
REMARK    2  A    between atoms: C_7  and  C_8
REMARK    3  A    between atoms: C_8  and  C_9
REMARK    4  A    between atoms: C_13  and  C_22
REMARK    5  A    between atoms: N_24  and  C_25
REMARK    6  A    between atoms: C_25  and  C_27
REMARK    7  A    between atoms: C_25  and  C_28
REMARK    8  A    between atoms: N_30  and  C_31
REMARK                            x       y       z     vdW  Elec       q    Type
REMARK                         _______ _______ _______ _____ _____    ______ ____
ROOT
ATOM      1  C   UNL     1      -1.088   0.277   2.995  0.00  0.00    +0.220 C 
ATOM      2  O   UNL     1      -1.940  -0.130   2.234  0.00  0.00    -0.275 OA
ATOM      3  N   UNL     1      -1.443   0.979   4.089  0.00  0.00    -0.300 N 
ATOM      4  C   UNL     1      -0.554   1.560   5.123  0.00  0.00    +0.121 C 
ATOM      5  C   UNL     1      -1.190   2.928   5.460  0.00  0.00    +0.100 C 
ATOM      6  C   UNL     1      -2.670   2.779   5.071  0.00  0.00    -0.004 C 
ATOM      7  C   UNL     1      -2.810   1.350   4.527  0.00  0.00    +0.115 C 
ATOM      8  C   UNL     1      -3.035   3.788   3.986  0.00  0.00    -0.010 C 
ATOM      9  C   UNL     1      -4.525   3.659   3.657  0.00  0.00    -0.082 C 
ATOM     10  N   UNL     1      -5.318   3.904   4.867  0.00  0.00    +0.379 N 
ATOM     11  C   UNL     1      -5.029   2.874   5.873  0.00  0.00    -0.082 C 
ATOM     12  C   UNL     1      -3.560   2.969   6.295  0.00  0.00    -0.010 C 
ATOM     13  H   UNL     1      -5.087   4.812   5.242  0.00  0.00    -0.086 HD
ATOM     14  H   UNL     1      -6.300   3.879   4.635  0.00  0.00    -0.086 HD
ENDROOT
BRANCH   5  15
ATOM     15  C   UNL     1      -0.540   4.022   4.653  0.00  0.00    +0.219 C 
ATOM     16  O   UNL     1      -0.094   3.779   3.551  0.00  0.00    -0.275 OA
ATOM     17  N   UNL     1      -0.454   5.270   5.155  0.00  0.00    -0.304 N 
ATOM     18  H   UNL     1      -0.810   5.463   6.036  0.00  0.00    +0.149 HD
BRANCH  17  19
ATOM     19  C   UNL     1       0.178   6.333   4.370  0.00  0.00    +0.156 C 
ATOM     20  C   UNL     1      -0.852   6.945   3.418  0.00  0.00    +0.038 C 
BRANCH  19  21
ATOM     21  C   UNL     1       0.701   7.399   5.298  0.00  0.00    +0.233 C 
ATOM     22  O   UNL     1       0.559   7.283   6.497  0.00  0.00    -0.274 OA
ATOM     23  N   UNL     1       1.325   8.483   4.796  0.00  0.00    -0.317 N 
ATOM     24  C   UNL     1       1.833   9.520   5.698  0.00  0.00    +0.128 C 
ATOM     25  H   UNL     1       1.438   8.576   3.837  0.00  0.00    +0.148 HD
ENDBRANCH  19  21
ENDBRANCH  17  19
ENDBRANCH   5  15
BRANCH   1  26
ATOM     26  C   UNL     1       0.367  -0.001   2.717  0.00  0.00    +0.131 C 
BRANCH  26  33
ATOM     27  C   UNL     1       0.424   1.355   0.166  0.00  0.00    +0.044 C 
ATOM     28  C   UNL     1       0.519  -0.148   0.223  0.00  0.00    -0.047 A 
ATOM     29  C   UNL     1       0.639  -0.878  -0.945  0.00  0.00    +0.003 A 
ATOM     30  C   UNL     1       0.726  -2.256  -0.893  0.00  0.00    +0.000 A 
ATOM     31  C   UNL     1       0.693  -2.905   0.327  0.00  0.00    +0.000 A 
ATOM     32  C   UNL     1       0.574  -2.176   1.495  0.00  0.00    +0.004 A 
ATOM     33  C   UNL     1       0.491  -0.797   1.443  0.00  0.00    -0.036 A 
ENDBRANCH  26  33
ENDBRANCH   1  26
TORSDOF 5
