REMARK  Name = ZINC58177637
REMARK  3 active torsions:
REMARK  status: ('A' for Active; 'I' for Inactive)
REMARK    1  A    between atoms: C_5  and  N_8
REMARK    2  A    between atoms: N_11  and  C_12
REMARK    3  A    between atoms: C_18  and  O_20
REMARK                            x       y       z     vdW  Elec       q    Type
REMARK                         _______ _______ _______ _____ _____    ______ ____
ROOT
ATOM      1  N   UNL     1       1.229  -2.086  -0.021  0.00  0.00    -0.268 N 
ATOM      2  C   UNL     1       2.398  -2.747  -0.137  0.00  0.00    +0.304 C 
ATOM      3  O   UNL     1       3.446  -2.131  -0.144  0.00  0.00    -0.252 OA
ATOM      4  N   UNL     1       2.405  -4.090  -0.246  0.00  0.00    -0.294 N 
ATOM      5  H   UNL     1       0.397  -2.580   0.051  0.00  0.00    +0.156 HD
ATOM      6  H   UNL     1       1.568  -4.581  -0.240  0.00  0.00    +0.151 HD
ENDROOT
BRANCH   1  11
ATOM      7  C   UNL     1       0.142   1.389  -0.569  0.00  0.00    +0.048 A 
ATOM      8  C   UNL     1       1.179   2.085   0.029  0.00  0.00    +0.077 A 
ATOM      9  C   UNL     1       2.240   1.395   0.614  0.00  0.00    +0.144 A 
ATOM     10  C   UNL     1       2.256   0.011   0.598  0.00  0.00    +0.072 A 
ATOM     11  C   UNL     1       1.214  -0.685  -0.002  0.00  0.00    +0.057 A 
ATOM     12  C   UNL     1       0.159   0.006  -0.585  0.00  0.00    +0.064 A 
ATOM     13 CL   UNL     1      -1.140  -0.868  -1.334  0.00  0.00    -0.082 Cl
ATOM     14  O   UNL     1       3.252   2.092   1.196  0.00  0.00    -0.481 OA
ATOM     15  C   UNL     1       3.584   3.353   0.609  0.00  0.00    +0.325 C 
ATOM     16  C   UNL     1       2.324   4.139   0.352  0.00  0.00    +0.255 C 
ATOM     17  O   UNL     1       2.340   5.351   0.409  0.00  0.00    -0.272 OA
ATOM     18  N   UNL     1       1.178   3.489   0.056  0.00  0.00    -0.280 N 
ATOM     19  H   UNL     1       0.366   3.984  -0.135  0.00  0.00    +0.155 HD
ENDBRANCH   1  11
BRANCH   4  20
ATOM     20  C   UNL     1       3.675  -4.808  -0.373  0.00  0.00    +0.103 C 
ATOM     21  C   UNL     1       4.102  -4.833  -1.842  0.00  0.00    +0.025 C 
ATOM     22  C   UNL     1       5.429  -5.583  -1.974  0.00  0.00    +0.002 C 
ATOM     23  C   UNL     1       5.258  -7.017  -1.468  0.00  0.00    +0.003 C 
ATOM     24  C   UNL     1       4.831  -6.992   0.001  0.00  0.00    +0.033 C 
ATOM     25  C   UNL     1       3.504  -6.242   0.133  0.00  0.00    +0.135 C 
BRANCH  25  26
ATOM     26  O   UNL     1       3.105  -6.218   1.505  0.00  0.00    -0.390 OA
ATOM     27  H   UNL     1       2.977  -7.095   1.893  0.00  0.00    +0.210 HD
ENDBRANCH  25  26
ENDBRANCH   4  20
TORSDOF 3
