REMARK  Name = ZINC44028952
REMARK  17 active torsions:
REMARK  status: ('A' for Active; 'I' for Inactive)
REMARK    1  A    between atoms: C_1  and  C_2
REMARK    2  A    between atoms: C_2  and  N_3
REMARK    3  A    between atoms: N_3  and  C_4
REMARK    4  A    between atoms: N_3  and  C_6
REMARK    5  A    between atoms: C_4  and  C_5
REMARK    6  A    between atoms: C_6  and  C_7
REMARK    7  A    between atoms: C_7  and  S_8
REMARK    8  A    between atoms: S_8  and  C_9
REMARK    9  A    between atoms: C_9  and  C_10
REMARK   10  A    between atoms: C_10  and  O_12
REMARK   11  A    between atoms: O_12  and  C_13
REMARK   12  A    between atoms: C_16  and  C_37
REMARK   13  A    between atoms: C_16  and  C_38
REMARK   14  A    between atoms: C_17  and  O_36
REMARK   15  A    between atoms: C_19  and  C_35
REMARK   16  A    between atoms: C_24  and  C_34
REMARK   17  A    between atoms: C_26  and  C_33
REMARK                            x       y       z     vdW  Elec       q    Type
REMARK                         _______ _______ _______ _____ _____    ______ ____
ROOT
ATOM      1  C   UNL     1       5.360  -7.977   5.607  0.00  0.00    +0.184 C 
ATOM      2  C   UNL     1       4.787  -8.993   6.657  0.00  0.00    +0.058 C 
ATOM      3  C   UNL     1       4.209  -8.435   7.909  0.00  0.00    +0.015 C 
ATOM      4  C   UNL     1       4.946  -7.820   9.107  0.00  0.00    +0.128 C 
ATOM      5  C   UNL     1       6.387  -8.084   9.464  0.00  0.00    +0.022 C 
ATOM      6  C   UNL     1       7.511  -7.890   8.474  0.00  0.00    -0.014 C 
ATOM      7  C   UNL     1       8.201  -6.554   8.290  0.00  0.00    +0.008 C 
ATOM      8  C   UNL     1       8.440  -5.991   6.909  0.00  0.00    +0.004 C 
ATOM      9  C   UNL     1       7.707  -6.598   5.690  0.00  0.00    -0.004 C 
ATOM     10  C   UNL     1       6.572  -7.388   6.281  0.00  0.00    +0.018 C 
ATOM     11  C   UNL     1       7.205  -8.489   7.113  0.00  0.00    +0.071 C 
ATOM     12  C   UNL     1       8.540  -8.938   6.524  0.00  0.00    +0.138 C 
ATOM     13  O   UNL     1       8.729  -9.309   5.390  0.00  0.00    -0.297 OA
ATOM     14  C   UNL     1       9.556  -8.840   7.652  0.00  0.00    +0.075 C 
ATOM     15  C   UNL     1       8.692  -8.830   8.939  0.00  0.00    +0.015 C 
ATOM     16  C   UNL     1       5.918  -6.277   7.067  0.00  0.00    +0.016 C 
ATOM     17  C   UNL     1       7.158  -5.489   4.782  0.00  0.00    +0.008 C 
ATOM     18  C   UNL     1       6.731  -7.334  10.766  0.00  0.00    +0.011 C 
ATOM     19  C   UNL     1       3.525  -9.683   8.543  0.00  0.00    +0.018 C 
ENDROOT
BRANCH   4  20
ATOM     20  O   UNL     1       4.169  -8.259  10.264  0.00  0.00    -0.391 OA
ATOM     21  H   UNL     1       3.284  -7.874  10.313  0.00  0.00    +0.210 HD
ENDBRANCH   4  20
BRANCH   3  22
ATOM     22  C   UNL     1       3.034  -7.556   7.581  0.00  0.00    -0.025 C 
ATOM     23  C   UNL     1       1.874  -7.777   8.147  0.00  0.00    +0.004 C 
ENDBRANCH   3  22
BRANCH   1  24
ATOM     24  O   UNL     1       4.423  -6.974   5.215  0.00  0.00    -0.460 OA
BRANCH  24  25
ATOM     25  C   UNL     1       3.608  -7.268   4.190  0.00  0.00    +0.317 C 
ATOM     26  O   UNL     1       3.689  -8.342   3.643  0.00  0.00    -0.250 OA
BRANCH  25  27
ATOM     27  C   UNL     1       2.594  -6.257   3.721  0.00  0.00    +0.189 C 
BRANCH  27  28
ATOM     28  S   UNL     1       1.653  -6.946   2.331  0.00  0.00    -0.151 S 
BRANCH  28  29
ATOM     29  C   UNL     1       0.490  -5.625   1.890  0.00  0.00    +0.051 C 
BRANCH  29  30
ATOM     30  C   UNL     1      -0.377  -6.080   0.715  0.00  0.00    -0.068 C 
BRANCH  30  31
ATOM     31  N   UNL     1      -1.361  -5.035   0.399  0.00  0.00    +0.380 N 
ATOM     32  H   UNL     1      -1.893  -4.813   1.227  0.00  0.00    -0.082 HD
BRANCH  31  34
ATOM     33  C   UNL     1      -1.675  -2.704  -0.282  0.00  0.00    -0.017 C 
ATOM     34  C   UNL     1      -0.663  -3.832  -0.072  0.00  0.00    -0.082 C 
ENDBRANCH  31  34
BRANCH  31  35
ATOM     35  C   UNL     1      -2.268  -5.518  -0.651  0.00  0.00    -0.082 C 
ATOM     36  C   UNL     1      -3.100  -6.682  -0.110  0.00  0.00    -0.017 C 
ENDBRANCH  31  35
ENDBRANCH  30  31
ENDBRANCH  29  30
ENDBRANCH  28  29
ENDBRANCH  27  28
ENDBRANCH  25  27
ENDBRANCH  24  25
ENDBRANCH   1  24
TORSDOF 11
