REMARK  Name = ZINC65241614
REMARK  8 active torsions:
REMARK  status: ('A' for Active; 'I' for Inactive)
REMARK    1  A    between atoms: C_1  and  C_2
REMARK    2  A    between atoms: C_2  and  C_3
REMARK    3  A    between atoms: C_3  and  N_4
REMARK    4  A    between atoms: C_15  and  S_20
REMARK    5  A    between atoms: S_20  and  N_23
REMARK    6  A    between atoms: N_23  and  C_24
REMARK    7  A    between atoms: C_24  and  C_25
REMARK    8  A    between atoms: C_28  and  C_30
REMARK                            x       y       z     vdW  Elec       q    Type
REMARK                         _______ _______ _______ _____ _____    ______ ____
ROOT
ATOM      1  N   UNL     1       0.738  -1.962  -1.265  0.00  0.00    -0.249 N 
ATOM      2  C   UNL     1       1.823  -2.579  -0.654  0.00  0.00    +0.171 A 
ATOM      3  C   UNL     1       1.665  -3.727   0.116  0.00  0.00    +0.169 A 
ATOM      4  C   UNL     1       2.772  -4.284   0.742  0.00  0.00    +0.051 A 
ATOM      5  C   UNL     1       4.011  -3.684   0.557  0.00  0.00    +0.023 A 
ATOM      6  C   UNL     1       4.101  -2.561  -0.239  0.00  0.00    +0.113 A 
ATOM      7  N   UNL     1       3.030  -2.047  -0.811  0.00  0.00    -0.236 NA
ATOM      8  O   UNL     1       0.461  -4.337   0.239  0.00  0.00    -0.452 OA
ATOM      9  C   UNL     1      -0.110  -4.856  -0.872  0.00  0.00    +0.141 A 
ATOM     10  C   UNL     1      -0.350  -6.221  -0.951  0.00  0.00    +0.049 A 
ATOM     11  C   UNL     1      -0.905  -6.762  -2.093  0.00  0.00    +0.032 A 
ATOM     12  C   UNL     1      -1.224  -5.949  -3.169  0.00  0.00    +0.106 A 
ATOM     13  C   UNL     1      -1.003  -4.591  -3.102  0.00  0.00    +0.045 A 
ATOM     14  C   UNL     1      -0.454  -4.028  -1.946  0.00  0.00    +0.081 A 
ATOM     15  C   UNL     1      -0.283  -2.572  -1.850  0.00  0.00    +0.256 C 
ATOM     16  O   UNL     1      -1.143  -1.873  -2.349  0.00  0.00    -0.269 OA
ENDROOT
BRANCH  12  17
ATOM     17  S   UNL     1      -1.915  -6.656  -4.628  0.00  0.00    +0.059 S 
ATOM     18  O   UNL     1      -1.618  -5.761  -5.691  0.00  0.00    -0.153 OA
ATOM     19  O   UNL     1      -1.518  -8.020  -4.646  0.00  0.00    -0.153 OA
BRANCH  17  20
ATOM     20  N   UNL     1      -3.561  -6.644  -4.445  0.00  0.00    -0.183 NA
ATOM     21  H   UNL     1      -4.049  -7.481  -4.391  0.00  0.00    +0.148 HD
BRANCH  20  22
ATOM     22  C   UNL     1      -4.280  -5.370  -4.363  0.00  0.00    +0.180 C 
BRANCH  22  23
ATOM     23  C   UNL     1      -5.753  -5.611  -4.570  0.00  0.00    +0.121 A 
ATOM     24  C   UNL     1      -6.651  -5.873  -3.603  0.00  0.00    +0.046 A 
ATOM     25  C   UNL     1      -7.904  -6.029  -4.238  0.00  0.00    +0.044 A 
ATOM     26  C   UNL     1      -7.697  -5.855  -5.556  0.00  0.00    +0.102 A 
ATOM     27  O   UNL     1      -6.394  -5.596  -5.750  0.00  0.00    -0.464 OA
ATOM     28  C   UNL     1      -8.751  -5.931  -6.631  0.00  0.00    +0.086 C 
ENDBRANCH  22  23
ENDBRANCH  20  22
ENDBRANCH  17  20
ENDBRANCH  12  17
BRANCH   1  29
ATOM     29  C   UNL     1       0.718  -0.497  -1.257  0.00  0.00    +0.115 C 
BRANCH  29  31
ATOM     30  C   UNL     1      -0.019   1.526   0.010  0.00  0.00    +0.005 C 
ATOM     31  C   UNL     1       0.002  -0.004   0.002  0.00  0.00    +0.016 C 
ENDBRANCH  29  31
ENDBRANCH   1  29
TORSDOF 6
