REMARK  Name = ZINC45884622
REMARK  9 active torsions:
REMARK  status: ('A' for Active; 'I' for Inactive)
REMARK    1  A    between atoms: C_1  and  C_2
REMARK    2  A    between atoms: C_3  and  C_14
REMARK    3  A    between atoms: N_6  and  C_7
REMARK    4  A    between atoms: N_16  and  C_17
REMARK    5  A    between atoms: C_17  and  C_19
REMARK    6  A    between atoms: C_17  and  C_23
REMARK    7  A    between atoms: C_19  and  C_20
REMARK    8  A    between atoms: C_20  and  C_21
REMARK    9  A    between atoms: C_20  and  C_22
REMARK                            x       y       z     vdW  Elec       q    Type
REMARK                         _______ _______ _______ _____ _____    ______ ____
ROOT
ATOM      1  C   UNL     1      -0.031  -0.021  -2.510  0.00  0.00    +0.267 C 
ATOM      2  O   UNL     1      -0.062   1.137  -2.877  0.00  0.00    -0.268 OA
ATOM      3  N   UNL     1      -0.004  -1.016  -3.420  0.00  0.00    -0.300 N 
ATOM      4  H   UNL     1       0.095  -1.936  -3.130  0.00  0.00    +0.150 HD
ENDROOT
BRANCH   1   7
ATOM      5  C   UNL     1      -0.090   2.071  -0.187  0.00  0.00    +0.068 C 
ATOM      6  C   UNL     1      -0.050   0.570  -0.051  0.00  0.00    +0.074 A 
ATOM      7  C   UNL     1      -0.025  -0.340  -1.070  0.00  0.00    +0.170 A 
ATOM      8  N   UNL     1       0.008  -1.573  -0.538  0.00  0.00    -0.124 NA
ATOM      9  N   UNL     1       0.004  -1.490   0.747  0.00  0.00    -0.060 NA
ATOM     10  N   UNL     1      -0.027  -0.134   1.102  0.00  0.00    -0.216 N 
BRANCH  10  11
ATOM     11  C   UNL     1      -0.035   0.391   2.403  0.00  0.00    +0.067 A 
ATOM     12  C   UNL     1       0.621   1.584   2.675  0.00  0.00    +0.030 A 
ATOM     13  C   UNL     1       0.612   2.099   3.956  0.00  0.00    +0.040 A 
ATOM     14  C   UNL     1      -0.050   1.426   4.970  0.00  0.00    +0.124 A 
ATOM     15  C   UNL     1      -0.704   0.235   4.700  0.00  0.00    +0.040 A 
ATOM     16  C   UNL     1      -0.703  -0.279   3.418  0.00  0.00    +0.030 A 
ATOM     17  F   UNL     1      -0.056   1.930   6.223  0.00  0.00    -0.205 F 
ENDBRANCH  10  11
ENDBRANCH   1   7
BRANCH   3  18
ATOM     18  C   UNL     1      -0.123  -0.706  -4.847  0.00  0.00    +0.139 C 
BRANCH  18  19
ATOM     19  C   UNL     1       0.460  -1.836  -5.656  0.00  0.00    +0.129 A 
ATOM     20  N   UNL     1       1.563  -1.740  -6.446  0.00  0.00    -0.340 N 
ATOM     21  H   UNL     1       2.104  -0.947  -6.584  0.00  0.00    +0.167 HD
ATOM     22  C   UNL     1       1.771  -2.981  -7.013  0.00  0.00    +0.066 A 
ATOM     23  C   UNL     1       2.717  -3.498  -7.889  0.00  0.00    +0.028 A 
ATOM     24  C   UNL     1       2.641  -4.820  -8.273  0.00  0.00    +0.002 A 
ATOM     25  C   UNL     1       1.628  -5.636  -7.790  0.00  0.00    +0.002 A 
ATOM     26  C   UNL     1       0.689  -5.144  -6.928  0.00  0.00    +0.030 A 
ATOM     27  C   UNL     1       0.746  -3.808  -6.524  0.00  0.00    +0.089 A 
ATOM     28  N   UNL     1      -0.016  -3.046  -5.697  0.00  0.00    -0.231 NA
ENDBRANCH  18  19
BRANCH  18  29
ATOM     29  C   UNL     1      -1.599  -0.528  -5.208  0.00  0.00    +0.033 C 
BRANCH  29  30
ATOM     30  C   UNL     1      -1.716  -0.068  -6.662  0.00  0.00    -0.015 C 
ATOM     31  C   UNL     1      -3.191  -0.028  -7.068  0.00  0.00    +0.007 C 
ATOM     32  C   UNL     1      -1.111   1.330  -6.805  0.00  0.00    +0.007 C 
ENDBRANCH  29  30
ENDBRANCH  18  29
ENDBRANCH   3  18
TORSDOF 6
