REMARK  Name = ZINC39210415
REMARK  10 active torsions:
REMARK  status: ('A' for Active; 'I' for Inactive)
REMARK    1  A    between atoms: C_1  and  C_2
REMARK    2  A    between atoms: C_2  and  C_3
REMARK    3  A    between atoms: C_3  and  C_4
REMARK    4  A    between atoms: C_4  and  O_5
REMARK    5  A    between atoms: O_5  and  C_6
REMARK    6  A    between atoms: C_9  and  C_12
REMARK    7  A    between atoms: C_19  and  C_27
REMARK    8  A    between atoms: C_21  and  C_25
REMARK    9  A    between atoms: C_22  and  N_24
REMARK   10  A    between atoms: C_32  and  C_33
REMARK                            x       y       z     vdW  Elec       q    Type
REMARK                         _______ _______ _______ _____ _____    ______ ____
ROOT
ATOM      1  C   UNL     1      -3.768  -8.595  -0.141  0.00  0.00    +0.075 C 
ATOM      2  N   UNL     1      -2.907  -9.548  -0.327  0.00  0.00    -0.188 NA
ATOM      3  N   UNL     1      -3.399 -10.810   0.039  0.00  0.00    -0.230 N 
ATOM      4  C   UNL     1      -4.522 -10.560   0.994  0.00  0.00    +0.286 C 
ATOM      5  C   UNL     1      -5.002  -9.202   0.461  0.00  0.00    +0.110 C 
ATOM      6  C   UNL     1      -5.713  -8.354   1.476  0.00  0.00    +0.063 C 
ATOM      7  C   UNL     1      -5.123  -8.488   2.850  0.00  0.00    +0.091 C 
ATOM      8  C   UNL     1      -4.292  -9.507   3.156  0.00  0.00    +0.194 C 
ATOM      9  O   UNL     1      -3.892 -10.430   2.269  0.00  0.00    -0.455 OA
ATOM     10  H   UNL     1      -3.075 -11.672  -0.266  0.00  0.00    +0.172 HD
ENDROOT
BRANCH   1  14
ATOM     11  C   UNL     1      -3.193  -4.488  -1.053  0.00  0.00    +0.121 A 
ATOM     12  C   UNL     1      -4.409  -5.095  -1.334  0.00  0.00    +0.046 A 
ATOM     13  C   UNL     1      -4.601  -6.428  -1.040  0.00  0.00    +0.013 A 
ATOM     14  C   UNL     1      -3.568  -7.168  -0.458  0.00  0.00    -0.002 A 
ATOM     15  C   UNL     1      -2.346  -6.553  -0.176  0.00  0.00    +0.013 A 
ATOM     16  C   UNL     1      -2.162  -5.221  -0.479  0.00  0.00    +0.046 A 
BRANCH  11  17
ATOM     17  O   UNL     1      -3.009  -3.174  -1.344  0.00  0.00    -0.492 OA
BRANCH  17  18
ATOM     18  C   UNL     1      -4.110  -2.479  -1.933  0.00  0.00    +0.229 C 
BRANCH  18  19
ATOM     19  C   UNL     1      -3.717  -1.022  -2.188  0.00  0.00    +0.041 C 
BRANCH  19  21
ATOM     20  C   UNL     1      -4.504   1.178  -3.073  0.00  0.00    +0.004 C 
ATOM     21  C   UNL     1      -4.897  -0.279  -2.818  0.00  0.00    -0.000 C 
ENDBRANCH  19  21
ENDBRANCH  18  19
ENDBRANCH  17  18
ENDBRANCH  11  17
ENDBRANCH   1  14
BRANCH   6  22
ATOM     22  C   UNL     1      -5.626  -6.888   1.043  0.00  0.00    +0.092 C 
ATOM     23  C   UNL     1      -4.265  -6.312   1.377  0.00  0.00    +0.118 C 
ATOM     24  N   UNL     1      -4.478  -5.344   2.207  0.00  0.00    -0.161 NA
ATOM     25  N   UNL     1      -5.829  -5.175   2.493  0.00  0.00    -0.153 NA
ATOM     26  C   UNL     1      -6.581  -6.035   1.854  0.00  0.00    +0.080 C 
BRANCH  26  27
ATOM     27  C   UNL     1      -8.046  -6.152   1.911  0.00  0.00    -0.001 A 
ATOM     28  C   UNL     1      -8.713  -7.041   1.062  0.00  0.00    +0.012 A 
ATOM     29  C   UNL     1     -10.086  -7.146   1.120  0.00  0.00    +0.039 A 
ATOM     30  C   UNL     1     -10.806  -6.372   2.017  0.00  0.00    +0.123 A 
ATOM     31  C   UNL     1     -10.151  -5.488   2.861  0.00  0.00    +0.039 A 
ATOM     32  C   UNL     1      -8.778  -5.378   2.817  0.00  0.00    +0.012 A 
ATOM     33  F   UNL     1     -12.152  -6.479   2.068  0.00  0.00    -0.205 F 
ENDBRANCH  26  27
ENDBRANCH   6  22
BRANCH   8  34
ATOM     34  N   UNL     1      -3.848  -9.618   4.450  0.00  0.00    -0.329 N 
ATOM     35  H   UNL     1      -4.131  -8.975   5.117  0.00  0.00    +0.145 HD
ATOM     36  H   UNL     1      -3.249 -10.341   4.697  0.00  0.00    +0.145 HD
ENDBRANCH   8  34
BRANCH   7  37
ATOM     37  C   UNL     1      -5.448  -7.519   3.853  0.00  0.00    +0.100 C 
ATOM     38  N   UNL     1      -5.706  -6.750   4.648  0.00  0.00    -0.191 NA
ENDBRANCH   7  37
TORSDOF 9
