REMARK  Name = ZINC40052174
REMARK  6 active torsions:
REMARK  status: ('A' for Active; 'I' for Inactive)
REMARK    1  A    between atoms: C_1  and  C_2
REMARK    2  A    between atoms: C_4  and  N_14
REMARK    3  A    between atoms: C_7  and  N_8
REMARK    4  A    between atoms: N_14  and  C_15
REMARK    5  A    between atoms: C_15  and  C_16
REMARK    6  A    between atoms: N_18  and  C_19
REMARK                            x       y       z     vdW  Elec       q    Type
REMARK                         _______ _______ _______ _____ _____    ______ ____
ROOT
ATOM      1  N   UNL     1       0.028  -2.769  -2.420  0.00  0.00    -0.335 N 
ATOM      2  H   UNL     1       0.017  -2.280  -3.258  0.00  0.00    +0.147 HD
ENDROOT
BRANCH   1   6
ATOM      3  C   UNL     1      -0.018   1.503   0.010  0.00  0.00    +0.046 C 
ATOM      4  C   UNL     1       0.002  -0.004   0.002  0.00  0.00    -0.027 A 
ATOM      5  C   UNL     1       0.006  -0.688  -1.198  0.00  0.00    +0.028 A 
ATOM      6  C   UNL     1       0.025  -2.076  -1.205  0.00  0.00    +0.028 A 
ATOM      7  C   UNL     1       0.040  -2.777  -0.006  0.00  0.00    +0.025 A 
ATOM      8  C   UNL     1       0.036  -2.093   1.193  0.00  0.00    +0.025 A 
ATOM      9  C   UNL     1       0.023  -0.705   1.200  0.00  0.00    +0.039 A 
BRANCH   9  10
ATOM     10  N   UNL     1       0.025  -0.010   2.418  0.00  0.00    -0.271 N 
ATOM     11  C   UNL     1      -1.185   0.379   3.152  0.00  0.00    +0.114 C 
ATOM     12  C   UNL     1      -0.711   0.706   4.585  0.00  0.00    +0.029 C 
ATOM     13  C   UNL     1       0.766   1.096   4.347  0.00  0.00    +0.098 C 
ATOM     14  C   UNL     1       1.136   0.380   3.067  0.00  0.00    +0.220 C 
ATOM     15  O   UNL     1       2.269   0.189   2.680  0.00  0.00    -0.275 OA
ENDBRANCH   9  10
ENDBRANCH   1   6
BRANCH   1  16
ATOM     16  C   UNL     1       0.048  -4.234  -2.428  0.00  0.00    +0.197 C 
BRANCH  16  17
ATOM     17  C   UNL     1       0.047  -4.729  -3.852  0.00  0.00    +0.231 C 
ATOM     18  O   UNL     1       0.032  -3.936  -4.769  0.00  0.00    -0.274 OA
ATOM     19  N   UNL     1       0.064  -6.053  -4.105  0.00  0.00    -0.307 N 
ATOM     20  H   UNL     1       0.076  -6.687  -3.371  0.00  0.00    +0.149 HD
BRANCH  19  21
ATOM     21  C   UNL     1       0.063  -6.534  -5.489  0.00  0.00    +0.103 C 
ATOM     22  C   UNL     1       0.704  -7.919  -5.541  0.00  0.00    +0.027 C 
ATOM     23  C   UNL     1       0.498  -8.494  -6.947  0.00  0.00    +0.007 C 
ATOM     24  C   UNL     1      -0.984  -8.820  -7.123  0.00  0.00    +0.035 C 
ATOM     25  C   UNL     1      -1.834  -7.633  -6.750  0.00  0.00    -0.042 A 
ATOM     26  C   UNL     1      -1.354  -6.586  -5.996  0.00  0.00    -0.024 A 
ATOM     27  C   UNL     1      -2.193  -5.526  -5.681  0.00  0.00    +0.006 A 
ATOM     28  C   UNL     1      -3.502  -5.512  -6.120  0.00  0.00    +0.000 A 
ATOM     29  C   UNL     1      -3.981  -6.563  -6.879  0.00  0.00    +0.000 A 
ATOM     30  C   UNL     1      -3.150  -7.616  -7.192  0.00  0.00    +0.004 A 
ENDBRANCH  19  21
ENDBRANCH  16  17
ENDBRANCH   1  16
TORSDOF 5
