REMARK  Name = ZINC16309856
REMARK  2 active torsions:
REMARK  status: ('A' for Active; 'I' for Inactive)
REMARK    1  A    between atoms: C_9  and  C_12
REMARK    2  A    between atoms: N_14  and  N_15
REMARK                            x       y       z     vdW  Elec       q    Type
REMARK                         _______ _______ _______ _____ _____    ______ ____
ROOT
ATOM      1  C   UNL     1       4.898  -2.639  -0.071  0.00  0.00    +0.276 C 
ATOM      2  O   UNL     1       5.727  -1.999  -0.682  0.00  0.00    -0.270 OA
ATOM      3  N   UNL     1       5.143  -3.925   0.251  0.00  0.00    -0.203 N 
ATOM      4  H   UNL     1       4.479  -4.437   0.740  0.00  0.00    +0.177 HD
ENDROOT
BRANCH   3   5
ATOM      5  N   UNL     1       6.355  -4.522  -0.120  0.00  0.00    -0.174 NA
ATOM      6  C   UNL     1       6.592  -5.772   0.194  0.00  0.00    +0.153 C 
ATOM      7  C   UNL     1       7.809  -6.562  -0.107  0.00  0.00    +0.030 A 
ATOM      8  C   UNL     1       8.999  -6.265  -0.764  0.00  0.00    +0.027 A 
ATOM      9  C   UNL     1       9.973  -7.236  -0.889  0.00  0.00    +0.020 A 
ATOM     10  C   UNL     1       9.765  -8.500  -0.362  0.00  0.00    +0.032 A 
ATOM     11  C   UNL     1       8.587  -8.804   0.291  0.00  0.00    +0.041 A 
ATOM     12  C   UNL     1       7.595  -7.838   0.428  0.00  0.00    +0.057 A 
ATOM     13  N   UNL     1       6.341  -7.880   1.028  0.00  0.00    -0.279 N 
ATOM     14  C   UNL     1       5.708  -6.699   0.929  0.00  0.00    +0.269 C 
ATOM     15  O   UNL     1       4.602  -6.440   1.365  0.00  0.00    -0.268 OA
ATOM     16 BR   UNL     1       8.322 -10.536   1.002  0.00  0.00    -0.048 Br
ATOM     17 BR   UNL     1      11.592  -6.839  -1.782  0.00  0.00    -0.050 Br
ATOM     18  H   UNL     1       5.971  -8.663   1.467  0.00  0.00    +0.155 HD
ENDBRANCH   3   5
BRANCH   1  27
ATOM     19  C   UNL     1      -0.017   1.378   0.010  0.00  0.00    +0.004 A 
ATOM     20  C   UNL     1       1.170   2.088   0.002  0.00  0.00    +0.004 A 
ATOM     21  C   UNL     1       2.378   1.418  -0.014  0.00  0.00    +0.049 A 
ATOM     22  C   UNL     1       2.404   0.031  -0.023  0.00  0.00    +0.163 A 
ATOM     23  C   UNL     1       1.212  -0.683  -0.013  0.00  0.00    +0.162 A 
ATOM     24  C   UNL     1       0.002  -0.004   0.002  0.00  0.00    +0.049 A 
ATOM     25  O   UNL     1       1.214  -2.044  -0.013  0.00  0.00    -0.484 OA
ATOM     26  C   UNL     1       2.434  -2.685  -0.404  0.00  0.00    +0.283 C 
ATOM     27  C   UNL     1       3.594  -1.997   0.328  0.00  0.00    +0.297 C 
ATOM     28  O   UNL     1       3.602  -0.615  -0.043  0.00  0.00    -0.472 OA
ENDBRANCH   1  27
TORSDOF 2
