REMARK  Name = ZINC13417627
REMARK  7 active torsions:
REMARK  status: ('A' for Active; 'I' for Inactive)
REMARK    1  A    between atoms: C_2  and  C_3
REMARK    2  A    between atoms: C_3  and  N_4
REMARK    3  A    between atoms: C_5  and  C_22
REMARK    4  A    between atoms: C_8  and  S_9
REMARK    5  A    between atoms: S_9  and  C_10
REMARK    6  A    between atoms: C_10  and  C_11
REMARK    7  A    between atoms: C_19  and  C_20
REMARK                            x       y       z     vdW  Elec       q    Type
REMARK                         _______ _______ _______ _____ _____    ______ ____
ROOT
ATOM      1  N   UNL     1       0.075  -3.339   2.349  0.00  0.00    -0.299 N 
ATOM      2  C   UNL     1       0.079  -4.517   1.654  0.00  0.00    +0.179 A 
ATOM      3  N   UNL     1       0.063  -4.219   0.386  0.00  0.00    -0.129 NA
ATOM      4  N   UNL     1       0.045  -2.943   0.233  0.00  0.00    -0.122 NA
ATOM      5  C   UNL     1       0.047  -2.353   1.406  0.00  0.00    +0.192 A 
ENDROOT
BRANCH   2   6
ATOM      6  C   UNL     1       0.103  -5.903   2.245  0.00  0.00    +0.278 C 
ATOM      7  C   UNL     1      -1.285  -6.544   2.118  0.00  0.00    +0.281 C 
ATOM      8  O   UNL     1      -1.224  -7.861   2.675  0.00  0.00    -0.484 OA
ATOM      9  C   UNL     1      -0.163  -8.631   2.310  0.00  0.00    +0.162 A 
ATOM     10  C   UNL     1      -0.216 -10.003   2.510  0.00  0.00    +0.049 A 
ATOM     11  C   UNL     1       0.855 -10.797   2.147  0.00  0.00    +0.004 A 
ATOM     12  C   UNL     1       1.982 -10.228   1.585  0.00  0.00    +0.004 A 
ATOM     13  C   UNL     1       2.042  -8.862   1.382  0.00  0.00    +0.049 A 
ATOM     14  C   UNL     1       0.970  -8.059   1.743  0.00  0.00    +0.163 A 
ATOM     15  O   UNL     1       1.040  -6.716   1.531  0.00  0.00    -0.474 OA
ENDBRANCH   2   6
BRANCH   1  16
ATOM     16  C   UNL     1       0.094  -3.171   3.804  0.00  0.00    +0.152 C 
BRANCH  16  18
ATOM     17  C   UNL     1      -1.695  -3.968   5.263  0.00  0.00    +0.005 C 
ATOM     18  C   UNL     1      -1.321  -3.134   4.324  0.00  0.00    -0.013 C 
ENDBRANCH  16  18
ENDBRANCH   1  16
BRANCH   5  19
ATOM     19  S   UNL     1       0.026  -0.617   1.705  0.00  0.00    -0.081 S 
BRANCH  19  20
ATOM     20  C   UNL     1       0.002  -0.004   0.002  0.00  0.00    +0.117 C 
BRANCH  20  21
ATOM     21  C   UNL     1      -0.018   1.503   0.010  0.00  0.00    +0.023 A 
ATOM     22  C   UNL     1       1.138   2.398   0.004  0.00  0.00    +0.025 A 
ATOM     23  C   UNL     1       2.521   2.201  -0.011  0.00  0.00    +0.012 A 
ATOM     24  C   UNL     1       3.358   3.281  -0.013  0.00  0.00    +0.001 A 
ATOM     25  C   UNL     1       2.843   4.571  -0.001  0.00  0.00    +0.004 A 
ATOM     26  C   UNL     1       1.482   4.786   0.014  0.00  0.00    +0.047 A 
ATOM     27  C   UNL     1       0.611   3.703   0.016  0.00  0.00    +0.136 A 
ATOM     28  O   UNL     1      -0.733   3.599   0.028  0.00  0.00    -0.448 OA
ATOM     29  C   UNL     1      -1.115   2.305   0.019  0.00  0.00    +0.221 A 
BRANCH  29  30
ATOM     30  C   UNL     1      -2.506   1.835   0.022  0.00  0.00    +0.421 C 
ATOM     31  O   UNL     1      -2.745   0.643   0.017  0.00  0.00    -0.237 OA
ATOM     32  O   UNL     1      -3.519   2.725   0.031  0.00  0.00    -0.237 OA
ENDBRANCH  29  30
ENDBRANCH  20  21
ENDBRANCH  19  20
ENDBRANCH   5  19
TORSDOF 7
