REMARK  Name = ZINC32766114
REMARK  11 active torsions:
REMARK  status: ('A' for Active; 'I' for Inactive)
REMARK    1  A    between atoms: C_1  and  C_2
REMARK    2  A    between atoms: N_16  and  C_17
REMARK    3  A    between atoms: C_17  and  C_18
REMARK    4  A    between atoms: C_18  and  C_19
REMARK    5  A    between atoms: N_21  and  C_22
REMARK    6  A    between atoms: C_22  and  C_23
REMARK    7  A    between atoms: C_23  and  C_24
REMARK    8  A    between atoms: C_24  and  N_25
REMARK    9  A    between atoms: N_25  and  C_26
REMARK   10  A    between atoms: N_25  and  C_27
REMARK   11  A    between atoms: C_27  and  C_28
REMARK                            x       y       z     vdW  Elec       q    Type
REMARK                         _______ _______ _______ _____ _____    ______ ____
ROOT
ATOM      1  C   UNL     1       6.609  -0.094   3.305  0.00  0.00    +0.115 C 
ENDROOT
BRANCH   1   2
ATOM      2  C   UNL     1       5.131  -0.345   3.456  0.00  0.00    +0.215 C 
ATOM      3  O   UNL     1       4.726  -1.067   4.343  0.00  0.00    -0.276 OA
ATOM      4  N   UNL     1       4.259   0.233   2.607  0.00  0.00    -0.315 N 
ATOM      5  H   UNL     1       4.626   0.888   1.802  0.00  0.00    +0.149 HD
BRANCH   4   6
ATOM      6  C   UNL     1       2.822  -0.011   2.754  0.00  0.00    +0.102 C 
BRANCH   6   7
ATOM      7  C   UNL     1       2.061   0.757   1.671  0.00  0.00    +0.000 C 
BRANCH   7   8
ATOM      8  C   UNL     1       0.560   0.502   1.825  0.00  0.00    -0.077 C 
BRANCH   8   9
ATOM      9  N   UNL     1      -0.171   1.240   0.785  0.00  0.00    +0.381 N 
ATOM     10  C   UNL     1      -0.041   2.690   0.979  0.00  0.00    -0.096 C 
ATOM     11  H   UNL     1       0.278   0.987  -0.187  0.00  0.00    -0.082 HD
BRANCH   9  12
ATOM     12  C   UNL     1      -1.583   0.838   0.749  0.00  0.00    -0.043 C 
BRANCH  12  13
ATOM     13  C   UNL     1      -2.241   1.423  -0.474  0.00  0.00    -0.064 A 
ATOM     14  C   UNL     1      -2.841   2.666  -0.408  0.00  0.00    +0.002 A 
ATOM     15  C   UNL     1      -3.441   3.205  -1.531  0.00  0.00    +0.000 A 
ATOM     16  C   UNL     1      -3.448   2.496  -2.718  0.00  0.00    +0.000 A 
ATOM     17  C   UNL     1      -2.852   1.250  -2.782  0.00  0.00    +0.000 A 
ATOM     18  C   UNL     1      -2.249   0.714  -1.661  0.00  0.00    +0.002 A 
ENDBRANCH  12  13
ENDBRANCH   9  12
ENDBRANCH   8   9
ENDBRANCH   7   8
ENDBRANCH   6   7
ENDBRANCH   4   6
ENDBRANCH   1   2
BRANCH   1  19
ATOM     19  C   UNL     1       7.370  -0.862   4.388  0.00  0.00    +0.119 C 
BRANCH  19  35
ATOM     20  C   UNL     1       9.678  -1.131   2.033  0.00  0.00    +0.054 C 
ATOM     21  C   UNL     1       9.646  -1.531   3.509  0.00  0.00    +0.109 C 
ATOM     22  C   UNL     1       9.145  -2.971   3.644  0.00  0.00    +0.055 C 
ATOM     23  C   UNL     1      10.383  -3.754   4.120  0.00  0.00    +0.100 C 
ATOM     24  C   UNL     1      11.477  -2.729   4.288  0.00  0.00    +0.222 C 
ATOM     25  O   UNL     1      12.624  -2.987   4.587  0.00  0.00    -0.275 OA
ATOM     26  N   UNL     1      11.011  -1.499   4.063  0.00  0.00    -0.249 N 
ATOM     27  C   UNL     1      11.636  -0.281   4.346  0.00  0.00    +0.050 A 
ATOM     28  C   UNL     1      12.997  -0.087   4.265  0.00  0.00    +0.024 A 
ATOM     29  C   UNL     1      13.524   1.161   4.551  0.00  0.00    +0.002 A 
ATOM     30  C   UNL     1      12.691   2.207   4.916  0.00  0.00    +0.001 A 
ATOM     31  C   UNL     1      11.326   2.024   5.007  0.00  0.00    +0.015 A 
ATOM     32  C   UNL     1      10.783   0.774   4.728  0.00  0.00    +0.058 A 
ATOM     33  C   UNL     1       9.336   0.509   4.822  0.00  0.00    +0.250 C 
ATOM     34  O   UNL     1       8.616   1.288   5.416  0.00  0.00    -0.270 OA
ATOM     35  N   UNL     1       8.805  -0.598   4.256  0.00  0.00    -0.275 N 
ENDBRANCH  19  35
ENDBRANCH   1  19
TORSDOF 9
