REMARK  Name = ZINC60392607
REMARK  5 active torsions:
REMARK  status: ('A' for Active; 'I' for Inactive)
REMARK    1  A    between atoms: C_1  and  C_2
REMARK    2  A    between atoms: C_7  and  C_8
REMARK    3  A    between atoms: C_7  and  C_9
REMARK    4  A    between atoms: N_12  and  N_13
REMARK    5  A    between atoms: C_14  and  C_16
REMARK                            x       y       z     vdW  Elec       q    Type
REMARK                         _______ _______ _______ _____ _____    ______ ____
ROOT
ATOM      1  C   UNL     1      -0.019   1.526   0.010  0.00  0.00    +0.018 C 
ATOM      2  C   UNL     1       0.002  -0.004   0.002  0.00  0.00    +0.013 C 
ATOM      3  C   UNL     1       0.746  -0.667  -1.197  0.00  0.00    +0.013 C 
ATOM      4  C   UNL     1       1.065  -2.101  -0.713  0.00  0.00    +0.005 C 
ATOM      5  C   UNL     1       0.474  -2.165   0.729  0.00  0.00    +0.001 C 
ATOM      6  C   UNL     1       0.727  -0.692   1.212  0.00  0.00    -0.021 C 
ATOM      7  C   UNL     1       2.218  -0.351   1.258  0.00  0.00    +0.012 C 
ATOM      8  C   UNL     1       0.034  -0.396   2.543  0.00  0.00    +0.012 C 
ATOM      9  C   UNL     1      -1.071  -2.146   0.514  0.00  0.00    +0.057 C 
ATOM     10  C   UNL     1      -1.369  -0.692   0.058  0.00  0.00    +0.044 C 
ATOM     11  N   UNL     1      -2.506  -0.182  -0.233  0.00  0.00    -0.188 NA
ENDROOT
BRANCH  11  12
ATOM     12  N   UNL     1      -3.670  -0.955  -0.127  0.00  0.00    -0.203 N 
ATOM     13  C   UNL     1      -4.867  -0.418  -0.433  0.00  0.00    +0.264 C 
ATOM     14  O   UNL     1      -4.937   0.738  -0.803  0.00  0.00    -0.268 OA
ATOM     15  H   UNL     1      -3.613  -1.878   0.168  0.00  0.00    +0.178 HD
BRANCH  13  16
ATOM     16  C   UNL     1      -6.094  -1.234  -0.321  0.00  0.00    +0.051 A 
ATOM     17  C   UNL     1      -6.017  -2.560   0.109  0.00  0.00    +0.014 A 
ATOM     18  C   UNL     1      -7.166  -3.316   0.212  0.00  0.00    +0.001 A 
ATOM     19  C   UNL     1      -8.393  -2.763  -0.110  0.00  0.00    +0.001 A 
ATOM     20  C   UNL     1      -8.477  -1.450  -0.536  0.00  0.00    +0.015 A 
ATOM     21  C   UNL     1      -7.336  -0.680  -0.638  0.00  0.00    +0.026 A 
ATOM     22  I   UNL     1      -7.466   1.311  -1.275  0.00  0.00    -0.043 I 
ENDBRANCH  13  16
ENDBRANCH  11  12
TORSDOF 2
