REMARK  Name = ZINC40984657
REMARK  10 active torsions:
REMARK  status: ('A' for Active; 'I' for Inactive)
REMARK    1  A    between atoms: C_1  and  C_2
REMARK    2  A    between atoms: C_3  and  C_15
REMARK    3  A    between atoms: C_5  and  C_7
REMARK    4  A    between atoms: C_10  and  O_13
REMARK    5  A    between atoms: O_13  and  C_14
REMARK    6  A    between atoms: C_15  and  N_16
REMARK    7  A    between atoms: C_19  and  C_22
REMARK    8  A    between atoms: N_24  and  C_25
REMARK    9  A    between atoms: C_25  and  C_26
REMARK   10  A    between atoms: C_26  and  C_27
REMARK                            x       y       z     vdW  Elec       q    Type
REMARK                         _______ _______ _______ _____ _____    ______ ____
ROOT
ATOM      1  N   UNL     1      -2.988  -0.231  -1.370  0.00  0.00    +0.383 N 
ATOM      2  C   UNL     1      -2.250   0.855  -2.025  0.00  0.00    -0.078 C 
ATOM      3  C   UNL     1      -2.684   0.962  -3.489  0.00  0.00    -0.006 C 
ATOM      4  C   UNL     1      -4.186   1.253  -3.550  0.00  0.00    +0.071 C 
ATOM      5  C   UNL     1      -4.941   0.152  -2.800  0.00  0.00    -0.006 C 
ATOM      6  C   UNL     1      -4.424   0.076  -1.362  0.00  0.00    -0.078 C 
ATOM      7  H   UNL     1      -2.832  -1.092  -1.873  0.00  0.00    -0.081 HD
ENDROOT
BRANCH   4   8
ATOM      8  C   UNL     1      -4.636   1.282  -4.988  0.00  0.00    +0.216 C 
ATOM      9  O   UNL     1      -3.834   1.089  -5.878  0.00  0.00    -0.276 OA
ATOM     10  N   UNL     1      -5.928   1.523  -5.286  0.00  0.00    -0.315 N 
ATOM     11  H   UNL     1      -6.569   1.677  -4.574  0.00  0.00    +0.149 HD
BRANCH  10  12
ATOM     12  C   UNL     1      -6.365   1.551  -6.684  0.00  0.00    +0.108 C 
BRANCH  12  13
ATOM     13  C   UNL     1      -7.866   1.842  -6.743  0.00  0.00    +0.049 C 
BRANCH  13  14
ATOM     14  C   UNL     1      -8.315   1.871  -8.182  0.00  0.00    -0.072 C 
ATOM     15  C   UNL     1      -8.812   0.787  -8.684  0.00  0.00    -0.028 C 
ATOM     16  C   UNL     1      -9.292   0.659 -10.100  0.00  0.00    +0.027 C 
ATOM     17  C   UNL     1      -9.507   2.045 -10.711  0.00  0.00    +0.004 C 
ATOM     18  C   UNL     1      -8.256   2.892 -10.446  0.00  0.00    +0.005 C 
ATOM     19  C   UNL     1      -8.163   3.157  -8.941  0.00  0.00    +0.030 C 
ENDBRANCH  13  14
ENDBRANCH  12  13
ENDBRANCH  10  12
ENDBRANCH   4   8
BRANCH   1  20
ATOM     20  C   UNL     1      -2.513  -0.381   0.012  0.00  0.00    -0.019 C 
BRANCH  20  23
ATOM     21  C   UNL     1      -0.018   1.503   0.010  0.00  0.00    +0.088 C 
ATOM     22  C   UNL     1       0.002  -0.004   0.002  0.00  0.00    +0.124 A 
ATOM     23  C   UNL     1      -1.070  -0.816   0.003  0.00  0.00    +0.066 A 
ATOM     24  N   UNL     1      -0.627  -2.083  -0.006  0.00  0.00    -0.216 NA
ATOM     25  C   UNL     1       0.686  -2.068  -0.012  0.00  0.00    +0.228 A 
ATOM     26  O   UNL     1       1.099  -0.788  -0.013  0.00  0.00    -0.440 OA
BRANCH  25  27
ATOM     27  C   UNL     1       1.562  -3.257  -0.022  0.00  0.00    +0.037 A 
ATOM     28  C   UNL     1       1.004  -4.537  -0.032  0.00  0.00    +0.017 A 
ATOM     29  C   UNL     1       1.825  -5.644  -0.041  0.00  0.00    +0.046 A 
ATOM     30  C   UNL     1       3.205  -5.488  -0.041  0.00  0.00    +0.120 A 
ATOM     31  C   UNL     1       3.764  -4.216  -0.031  0.00  0.00    +0.046 A 
ATOM     32  C   UNL     1       2.950  -3.104  -0.028  0.00  0.00    +0.017 A 
BRANCH  30  33
ATOM     33  O   UNL     1       4.011  -6.582  -0.050  0.00  0.00    -0.495 OA
ATOM     34  C   UNL     1       5.421  -6.349  -0.049  0.00  0.00    +0.277 C 
ENDBRANCH  30  33
ENDBRANCH  25  27
ENDBRANCH  20  23
ENDBRANCH   1  20
TORSDOF 8
