REMARK  Name = ZINC16956621
REMARK  9 active torsions:
REMARK  status: ('A' for Active; 'I' for Inactive)
REMARK    1  A    between atoms: C_1  and  C_2
REMARK    2  A    between atoms: N_4  and  C_5
REMARK    3  A    between atoms: C_9  and  C_38
REMARK    4  A    between atoms: C_21  and  C_37
REMARK    5  A    between atoms: C_25  and  N_33
REMARK    6  A    between atoms: C_27  and  O_29
REMARK    7  A    between atoms: O_29  and  C_30
REMARK    8  A    between atoms: C_30  and  C_32
REMARK    9  A    between atoms: C_34  and  C_36
REMARK                            x       y       z     vdW  Elec       q    Type
REMARK                         _______ _______ _______ _____ _____    ______ ____
ROOT
ATOM      1  C   UNL     1       2.160  -2.138  -4.189  0.00  0.00    +0.073 C 
ATOM      2  C   UNL     1       2.080  -2.729  -2.785  0.00  0.00    +0.023 C 
ATOM      3  C   UNL     1       3.162  -2.187  -1.874  0.00  0.00    +0.009 C 
ATOM      4  C   UNL     1       3.307  -0.666  -1.871  0.00  0.00    -0.026 C 
ATOM      5  C   UNL     1       3.264  -0.093  -3.274  0.00  0.00    -0.003 C 
ATOM      6  C   UNL     1       2.095  -0.616  -4.101  0.00  0.00    +0.026 C 
ATOM      7  C   UNL     1       3.241   1.435  -3.281  0.00  0.00    +0.004 C 
ATOM      8  C   UNL     1       2.074   1.934  -2.421  0.00  0.00    +0.004 C 
ATOM      9  C   UNL     1       2.334   1.488  -0.984  0.00  0.00    -0.004 C 
ATOM     10  C   UNL     1       2.319  -0.032  -0.901  0.00  0.00    -0.001 C 
ATOM     11  C   UNL     1       0.902  -0.560  -1.102  0.00  0.00    +0.005 C 
ATOM     12  C   UNL     1       0.002  -0.004   0.002  0.00  0.00    +0.011 C 
ATOM     13  C   UNL     1      -0.018   1.505   0.010  0.00  0.00    +0.010 C 
ATOM     14  C   UNL     1       1.376   2.142   0.000  0.00  0.00    +0.004 C 
ATOM     15  C   UNL     1       1.096   3.591  -0.482  0.00  0.00    +0.030 C 
ATOM     16  C   UNL     1      -0.111   3.483  -1.435  0.00  0.00    +0.114 C 
ATOM     17  C   UNL     1      -0.754   2.103  -1.194  0.00  0.00    +0.203 C 
ATOM     18  C   UNL     1      -0.748   1.957   1.287  0.00  0.00    +0.015 C 
ATOM     19  C   UNL     1       4.730  -0.387  -1.311  0.00  0.00    +0.012 C 
ENDROOT
BRANCH   1  23
ATOM     20  C   UNL     1       4.732  -4.170  -6.162  0.00  0.00    +0.109 C 
ATOM     21  C   UNL     1       3.456  -3.739  -5.488  0.00  0.00    +0.210 C 
ATOM     22  O   UNL     1       2.479  -4.457  -5.524  0.00  0.00    -0.276 OA
ATOM     23  N   UNL     1       3.399  -2.557  -4.844  0.00  0.00    -0.313 N 
ATOM     24  H   UNL     1       4.181  -1.982  -4.815  0.00  0.00    +0.149 HD
ENDBRANCH   1  23
BRANCH  16  25
ATOM     25  N   UNL     1      -1.080   4.545  -1.142  0.00  0.00    -0.309 N 
ATOM     26  C   UNL     1      -0.945   5.757  -1.716  0.00  0.00    +0.210 C 
ATOM     27  O   UNL     1      -0.022   5.970  -2.474  0.00  0.00    -0.276 OA
ATOM     28  C   UNL     1      -1.940   6.848  -1.416  0.00  0.00    +0.109 C 
ATOM     29  H   UNL     1      -1.818   4.375  -0.536  0.00  0.00    +0.149 HD
ENDBRANCH  16  25
BRANCH  17  30
ATOM     30  O   UNL     1      -2.167   2.258  -0.890  0.00  0.00    -0.459 OA
BRANCH  30  31
ATOM     31  C   UNL     1      -3.026   2.162  -1.918  0.00  0.00    +0.304 C 
ATOM     32  O   UNL     1      -2.611   1.956  -3.034  0.00  0.00    -0.251 OA
ATOM     33  C   UNL     1      -4.506   2.312  -1.680  0.00  0.00    +0.136 C 
ENDBRANCH  30  31
ENDBRANCH  17  30
TORSDOF 4
