REMARK  Name = ZINC23222488
REMARK  9 active torsions:
REMARK  status: ('A' for Active; 'I' for Inactive)
REMARK    1  A    between atoms: C_1  and  C_2
REMARK    2  A    between atoms: C_2  and  O_3
REMARK    3  A    between atoms: O_3  and  C_4
REMARK    4  A    between atoms: C_9  and  N_10
REMARK    5  A    between atoms: C_14  and  S_16
REMARK    6  A    between atoms: S_16  and  C_17
REMARK    7  A    between atoms: C_17  and  C_18
REMARK    8  A    between atoms: C_21  and  C_31
REMARK    9  A    between atoms: C_24  and  C_26
REMARK                            x       y       z     vdW  Elec       q    Type
REMARK                         _______ _______ _______ _____ _____    ______ ____
ROOT
ATOM      1  C   UNL     1      -0.821   8.756   0.535  0.00  0.00    +0.174 C 
ENDROOT
BRANCH   1   2
ATOM      2  C   UNL     1      -1.191  10.210   0.670  0.00  0.00    +0.246 C 
ATOM      3  O   UNL     1      -2.357  10.534   0.753  0.00  0.00    -0.273 OA
ATOM      4  N   UNL     1      -0.227  11.152   0.698  0.00  0.00    -0.181 N 
ATOM      5  C   UNL     1      -0.450  12.601   0.825  0.00  0.00    +0.173 C 
ATOM      6  C   UNL     1       0.975  13.190   0.804  0.00  0.00    +0.093 C 
ATOM      7  C   UNL     1       1.869  11.978   0.663  0.00  0.00    +0.104 C 
ATOM      8  N   UNL     1       1.143  10.911   0.618  0.00  0.00    -0.178 NA
BRANCH   7   9
ATOM      9  C   UNL     1       3.333  12.010   0.595  0.00  0.00    +0.150 A 
ATOM     10  C   UNL     1       4.153  10.927   0.468  0.00  0.00    +0.051 A 
ATOM     11  C   UNL     1       5.471  11.418   0.443  0.00  0.00    +0.042 A 
ATOM     12  C   UNL     1       5.396  12.760   0.554  0.00  0.00    +0.196 A 
ATOM     13  O   UNL     1       4.104  13.115   0.640  0.00  0.00    -0.462 OA
ENDBRANCH   7   9
BRANCH   5  14
ATOM     14  C   UNL     1      -1.139  12.919   2.127  0.00  0.00    +0.128 A 
ATOM     15  C   UNL     1      -2.094  13.849   2.305  0.00  0.00    +0.046 A 
ATOM     16  C   UNL     1      -2.455  13.810   3.671  0.00  0.00    +0.041 A 
ATOM     17  C   UNL     1      -1.698  12.858   4.247  0.00  0.00    +0.195 A 
ATOM     18  O   UNL     1      -0.907  12.318   3.306  0.00  0.00    -0.466 OA
ENDBRANCH   5  14
ENDBRANCH   1   2
BRANCH   1  19
ATOM     19  S   UNL     1      -2.327   7.746   0.528  0.00  0.00    -0.088 S 
BRANCH  19  24
ATOM     20  N   UNL     1      -1.237   2.074   0.019  0.00  0.00    -0.289 N 
ATOM     21  C   UNL     1      -1.256   3.460   0.132  0.00  0.00    +0.187 A 
ATOM     22  N   UNL     1      -0.248   4.310   0.150  0.00  0.00    -0.125 NA
ATOM     23  N   UNL     1      -0.492   5.659   0.270  0.00  0.00    -0.133 NA
ATOM     24  C   UNL     1      -1.733   6.095   0.366  0.00  0.00    +0.160 A 
ATOM     25  S   UNL     1      -2.651   4.565   0.282  0.00  0.00    -0.024 S 
ATOM     26  H   UNL     1      -2.171   1.502   0.118  0.00  0.00    +0.154 HD
BRANCH  20  32
ATOM     27  C   UNL     1       0.026   0.017  -0.149  0.00  0.00    +0.142 A 
ATOM     28  C   UNL     1       1.222  -0.638  -0.392  0.00  0.00    +0.047 A 
ATOM     29  C   UNL     1       2.357   0.088  -0.703  0.00  0.00    +0.004 A 
ATOM     30  C   UNL     1       2.303   1.468  -0.773  0.00  0.00    +0.002 A 
ATOM     31  C   UNL     1       1.113   2.129  -0.532  0.00  0.00    +0.027 A 
ATOM     32  C   UNL     1      -0.030   1.408  -0.220  0.00  0.00    +0.075 A 
BRANCH  27  33
ATOM     33  O   UNL     1      -1.092  -0.695   0.156  0.00  0.00    -0.490 OA
BRANCH  33  35
ATOM     34  C   UNL     1      -2.311  -2.742   0.565  0.00  0.00    +0.048 C 
ATOM     35  C   UNL     1      -0.960  -2.117   0.210  0.00  0.00    +0.226 C 
ENDBRANCH  33  35
ENDBRANCH  27  33
ENDBRANCH  20  32
ENDBRANCH  19  24
ENDBRANCH   1  19
TORSDOF 8
