REMARK  Name = ZINC58551584
REMARK  4 active torsions:
REMARK  status: ('A' for Active; 'I' for Inactive)
REMARK    1  A    between atoms: C_6  and  N_7
REMARK    2  A    between atoms: C_8  and  C_10
REMARK    3  A    between atoms: N_20  and  S_23
REMARK    4  A    between atoms: S_23  and  N_26
REMARK                            x       y       z     vdW  Elec       q    Type
REMARK                         _______ _______ _______ _____ _____    ______ ____
ROOT
ATOM      1  C   UNL     1       0.122   1.154   0.765  0.00  0.00    +0.024 A 
ATOM      2  C   UNL     1       1.312   1.856   0.760  0.00  0.00    +0.007 A 
ATOM      3  C   UNL     1       2.381   1.410   0.005  0.00  0.00    -0.023 A 
ATOM      4  C   UNL     1       2.274   0.255  -0.755  0.00  0.00    +0.057 A 
ATOM      5  C   UNL     1       1.072  -0.453  -0.749  0.00  0.00    +0.048 A 
ATOM      6  C   UNL     1       0.002  -0.004   0.008  0.00  0.00    +0.036 A 
ATOM      7  N   UNL     1       3.459  -0.022  -1.439  0.00  0.00    -0.193 N 
ATOM      8  C   UNL     1       4.463   1.003  -1.142  0.00  0.00    +0.137 C 
ATOM      9  C   UNL     1       3.771   1.978  -0.176  0.00  0.00    +0.058 C 
ENDROOT
BRANCH   6  10
ATOM     10  N   UNL     1      -1.200  -0.719   0.010  0.00  0.00    -0.281 N 
ATOM     11  C   UNL     1      -2.372  -0.065   0.127  0.00  0.00    +0.255 C 
ATOM     12  O   UNL     1      -2.392   1.152   0.134  0.00  0.00    -0.269 OA
ATOM     13  H   UNL     1      -1.190  -1.685  -0.072  0.00  0.00    +0.155 HD
BRANCH  11  14
ATOM     14  C   UNL     1      -3.623  -0.818   0.246  0.00  0.00    +0.075 A 
ATOM     15  C   UNL     1      -4.916  -0.348   0.368  0.00  0.00    +0.024 A 
ATOM     16  C   UNL     1      -5.928  -1.299   0.466  0.00  0.00    -0.036 A 
ATOM     17  C   UNL     1      -5.541  -2.601   0.432  0.00  0.00    -0.006 A 
ATOM     18  S   UNL     1      -3.877  -2.582   0.263  0.00  0.00    -0.088 S 
ATOM     19  C   UNL     1      -6.410  -3.821   0.525  0.00  0.00    +0.043 C 
ATOM     20  C   UNL     1      -7.801  -3.500  -0.032  0.00  0.00    +0.005 C 
ATOM     21  C   UNL     1      -8.671  -2.972   1.104  0.00  0.00    +0.001 C 
ATOM     22  C   UNL     1      -8.073  -1.696   1.690  0.00  0.00    +0.005 C 
ATOM     23  C   UNL     1      -7.388  -0.879   0.599  0.00  0.00    +0.036 C 
ENDBRANCH  11  14
ENDBRANCH   6  10
BRANCH   7  24
ATOM     24  S   UNL     1       3.696  -1.319  -2.441  0.00  0.00    +0.109 S 
ATOM     25  O   UNL     1       5.096  -1.554  -2.477  0.00  0.00    -0.138 OA
ATOM     26  O   UNL     1       2.766  -2.316  -2.040  0.00  0.00    -0.138 OA
BRANCH  24  27
ATOM     27  N   UNL     1       3.255  -0.847  -3.966  0.00  0.00    -0.190 NA
ATOM     28  H   UNL     1       2.932   0.054  -4.120  0.00  0.00    +0.146 HD
ATOM     29  H   UNL     1       3.321  -1.472  -4.705  0.00  0.00    +0.146 HD
ENDBRANCH  24  27
ENDBRANCH   7  24
TORSDOF 4
