REMARK  Name = ZINC36663189
REMARK  7 active torsions:
REMARK  status: ('A' for Active; 'I' for Inactive)
REMARK    1  A    between atoms: C_1  and  C_2
REMARK    2  A    between atoms: C_9  and  C_13
REMARK    3  A    between atoms: C_13  and  S_14
REMARK    4  A    between atoms: S_14  and  C_15
REMARK    5  A    between atoms: C_18  and  S_20
REMARK    6  A    between atoms: S_20  and  C_21
REMARK    7  A    between atoms: C_21  and  C_22
REMARK                            x       y       z     vdW  Elec       q    Type
REMARK                         _______ _______ _______ _____ _____    ______ ____
ROOT
ATOM      1  C   UNL     1       0.088  -4.841   3.627  0.00  0.00    +0.132 C 
ENDROOT
BRANCH   1  10
ATOM      2  C   UNL     1      -0.018   1.503   0.010  0.00  0.00    +0.044 C 
ATOM      3  C   UNL     1       0.002  -0.004   0.002  0.00  0.00    -0.046 A 
ATOM      4  C   UNL     1       0.006  -0.703  -1.213  0.00  0.00    +0.021 A 
ATOM      5  C   UNL     1       0.025  -2.055  -1.219  0.00  0.00    +0.096 A 
ATOM      6  N   UNL     1       0.040  -2.756  -0.052  0.00  0.00    -0.268 N 
ATOM      7  C   UNL     1       0.037  -2.103   1.149  0.00  0.00    +0.141 A 
ATOM      8  C   UNL     1       0.023  -0.696   1.176  0.00  0.00    +0.050 A 
ATOM      9  N   UNL     1       0.053  -2.781   2.295  0.00  0.00    -0.233 NA
ATOM     10  C   UNL     1       0.071  -4.105   2.312  0.00  0.00    +0.059 A 
ATOM     11  C   UNL     1       0.075  -4.811   1.125  0.00  0.00    +0.094 A 
ATOM     12  C   UNL     1       0.059  -4.106  -0.083  0.00  0.00    +0.259 A 
ATOM     13  O   UNL     1       0.061  -4.701  -1.149  0.00  0.00    -0.267 OA
ENDBRANCH   1  10
BRANCH   1  14
ATOM     14  S   UNL     1       1.743  -4.727   4.362  0.00  0.00    -0.091 S 
BRANCH  14  15
ATOM     15  C   UNL     1       1.601  -5.623   5.872  0.00  0.00    +0.160 A 
ATOM     16  N   UNL     1       0.555  -6.250   6.378  0.00  0.00    -0.134 NA
ATOM     17  N   UNL     1       0.664  -6.896   7.587  0.00  0.00    -0.134 NA
ATOM     18  C   UNL     1       1.812  -6.887   8.236  0.00  0.00    +0.160 A 
ATOM     19  S   UNL     1       2.836  -5.935   7.124  0.00  0.00    -0.033 S 
BRANCH  18  20
ATOM     20  S   UNL     1       2.228  -7.624   9.781  0.00  0.00    -0.088 S 
BRANCH  20  21
ATOM     21  C   UNL     1       0.690  -8.426  10.313  0.00  0.00    +0.171 C 
BRANCH  21  22
ATOM     22  C   UNL     1       0.909  -9.103  11.641  0.00  0.00    +0.221 C 
ATOM     23  O   UNL     1       1.996  -9.050  12.176  0.00  0.00    -0.275 OA
ATOM     24  N   UNL     1      -0.102  -9.768  12.233  0.00  0.00    -0.329 N 
ATOM     25  H   UNL     1      -0.972  -9.810  11.805  0.00  0.00    +0.145 HD
ATOM     26  H   UNL     1       0.039 -10.204  13.088  0.00  0.00    +0.145 HD
ENDBRANCH  21  22
ENDBRANCH  20  21
ENDBRANCH  18  20
ENDBRANCH  14  15
ENDBRANCH   1  14
TORSDOF 6
