REMARK  Name = ZINC10334065
REMARK  7 active torsions:
REMARK  status: ('A' for Active; 'I' for Inactive)
REMARK    1  A    between atoms: C_10  and  C_11
REMARK    2  A    between atoms: C_11  and  C_13
REMARK    3  A    between atoms: C_11  and  N_55
REMARK    4  A    between atoms: C_13  and  N_14
REMARK    5  A    between atoms: C_15  and  C_17
REMARK    6  A    between atoms: N_19  and  C_20
REMARK    7  A    between atoms: C_25  and  C_26
REMARK                            x       y       z     vdW  Elec       q    Type
REMARK                         _______ _______ _______ _____ _____    ______ ____
ROOT
ATOM      1  C   UNL     1       4.816   8.144  -0.586  0.00  0.00    +0.094 C 
ENDROOT
BRANCH   1   2
ATOM      2  N   UNL     1       3.585   7.365  -0.427  0.00  0.00    -0.309 N 
ATOM      3  C   UNL     1       3.631   6.019  -0.459  0.00  0.00    +0.299 C 
ATOM      4  O   UNL     1       4.692   5.452  -0.620  0.00  0.00    -0.265 OA
ATOM      5  H   UNL     1       2.737   7.819  -0.298  0.00  0.00    +0.149 HD
BRANCH   3   6
ATOM      6  C   UNL     1       2.377   5.224  -0.297  0.00  0.00    +0.303 C 
ATOM      7  O   UNL     1       1.316   5.792  -0.136  0.00  0.00    -0.265 OA
ATOM      8  N   UNL     1       2.423   3.878  -0.329  0.00  0.00    -0.277 N 
ATOM      9  H   UNL     1       3.278   3.423  -0.388  0.00  0.00    +0.155 HD
BRANCH   8  10
ATOM     10  C   UNL     1       1.244   3.140  -0.278  0.00  0.00    +0.053 A 
ATOM     11  C   UNL     1       0.161   3.606   0.454  0.00  0.00    +0.044 A 
ATOM     12  C   UNL     1      -1.009   2.871   0.504  0.00  0.00    +0.043 A 
ATOM     13  C   UNL     1      -1.111   1.668  -0.180  0.00  0.00    +0.021 A 
ATOM     14  C   UNL     1      -0.043   1.188  -0.906  0.00  0.00    +0.022 A 
ATOM     15  C   UNL     1       1.145   1.920  -0.966  0.00  0.00    +0.073 A 
ATOM     16 CL   UNL     1      -2.360   3.460   1.421  0.00  0.00    -0.083 Cl
BRANCH  15  17
ATOM     17  C   UNL     1       2.256   1.429  -1.724  0.00  0.00    +0.101 C 
ATOM     18  N   UNL     1       3.137   1.039  -2.326  0.00  0.00    -0.191 NA
ENDBRANCH  15  17
ENDBRANCH   8  10
ENDBRANCH   3   6
ENDBRANCH   1   2
BRANCH   1  19
ATOM     19  C   UNL     1       4.508   9.630  -0.390  0.00  0.00    -0.020 C 
BRANCH  19  29
ATOM     20  C   UNL     1       8.661  11.065   2.235  0.00  0.00    +0.001 A 
ATOM     21  C   UNL     1       7.527  10.310   2.530  0.00  0.00    +0.001 A 
ATOM     22  C   UNL     1       6.565  10.096   1.592  0.00  0.00    +0.009 A 
ATOM     23  C   UNL     1       6.713  10.642   0.305  0.00  0.00    -0.016 A 
ATOM     24  C   UNL     1       7.869  11.405   0.004  0.00  0.00    -0.018 A 
ATOM     25  C   UNL     1       8.844  11.601   0.997  0.00  0.00    +0.008 A 
ATOM     26  C   UNL     1       8.015  11.957  -1.280  0.00  0.00    +0.008 A 
ATOM     27  C   UNL     1       7.050  11.747  -2.217  0.00  0.00    +0.001 A 
ATOM     28  C   UNL     1       5.916  10.992  -1.922  0.00  0.00    +0.003 A 
ATOM     29  C   UNL     1       5.741  10.443  -0.689  0.00  0.00    -0.052 A 
ENDBRANCH  19  29
BRANCH  19  34
ATOM     30  C   UNL     1       3.350  11.508  -1.420  0.00  0.00    -0.078 C 
ATOM     31  C   UNL     1       2.576  11.717  -2.745  0.00  0.00    -0.020 C 
ATOM     32  C   UNL     1       3.116  10.581  -3.644  0.00  0.00    -0.020 C 
ATOM     33  C   UNL     1       3.670   9.526  -2.668  0.00  0.00    -0.078 C 
ATOM     34  N   UNL     1       3.415  10.042  -1.323  0.00  0.00    +0.385 N 
ATOM     35  H   UNL     1       2.521   9.677  -0.975  0.00  0.00    -0.081 HD
ENDBRANCH  19  34
ENDBRANCH   1  19
TORSDOF 7
