REMARK  Name = ZINC04847814
REMARK  11 active torsions:
REMARK  status: ('A' for Active; 'I' for Inactive)
REMARK    1  A    between atoms: C_1  and  C_2
REMARK    2  A    between atoms: C_2  and  C_3
REMARK    3  A    between atoms: C_3  and  C_4
REMARK    4  A    between atoms: C_3  and  C_5
REMARK    5  A    between atoms: C_3  and  N_6
REMARK    6  A    between atoms: C_7  and  C_11
REMARK    7  A    between atoms: C_11  and  C_13
REMARK    8  A    between atoms: C_11  and  N_59
REMARK    9  A    between atoms: C_16  and  O_21
REMARK   10  A    between atoms: C_17  and  O_19
REMARK   11  A    between atoms: O_19  and  C_20
REMARK                            x       y       z     vdW  Elec       q    Type
REMARK                         _______ _______ _______ _____ _____    ______ ____
ROOT
ATOM      1  C   UNL     1      -0.743   1.921  -1.108  0.00  0.00    +0.034 C 
ENDROOT
BRANCH   1  11
ATOM      2  C   UNL     1       1.264   2.176   0.225  0.00  0.00    -0.072 C 
ATOM      3  C   UNL     1       1.777   2.008   1.656  0.00  0.00    +0.017 C 
ATOM      4  C   UNL     1       1.702   0.558   2.062  0.00  0.00    -0.048 A 
ATOM      5  C   UNL     1       2.432   0.142   3.165  0.00  0.00    +0.004 A 
ATOM      6  C   UNL     1       2.385  -1.175   3.576  0.00  0.00    +0.000 A 
ATOM      7  C   UNL     1       1.607  -2.084   2.884  0.00  0.00    +0.000 A 
ATOM      8  C   UNL     1       0.882  -1.671   1.784  0.00  0.00    +0.002 A 
ATOM      9  C   UNL     1       0.929  -0.348   1.369  0.00  0.00    -0.061 A 
ATOM     10  C   UNL     1       0.124   0.053   0.161  0.00  0.00    -0.041 C 
ATOM     11  N   UNL     1      -0.053   1.515   0.137  0.00  0.00    +0.392 N 
ATOM     12  H   UNL     1      -0.624   1.797   0.943  0.00  0.00    -0.080 HD
ENDBRANCH   1  11
BRANCH   1  13
ATOM     13  C   UNL     1      -0.098   1.263  -2.301  0.00  0.00    -0.050 A 
ATOM     14  C   UNL     1      -0.591   0.063  -2.777  0.00  0.00    +0.006 A 
ATOM     15  C   UNL     1      -0.004  -0.544  -3.871  0.00  0.00    +0.049 A 
ATOM     16  C   UNL     1       1.082   0.051  -4.494  0.00  0.00    +0.158 A 
ATOM     17  C   UNL     1       1.578   1.259  -4.014  0.00  0.00    +0.161 A 
ATOM     18  C   UNL     1       0.981   1.865  -2.921  0.00  0.00    +0.051 A 
BRANCH  17  19
ATOM     19  O   UNL     1       2.644   1.847  -4.622  0.00  0.00    -0.491 OA
ATOM     20  C   UNL     1       3.100   3.086  -4.075  0.00  0.00    +0.277 C 
ENDBRANCH  17  19
BRANCH  16  21
ATOM     21  O   UNL     1       1.660  -0.545  -5.571  0.00  0.00    -0.503 OA
ATOM     22  H   UNL     1       1.280  -0.279  -6.419  0.00  0.00    +0.292 HD
ENDBRANCH  16  21
ENDBRANCH   1  13
BRANCH   1  24
ATOM     23  N   UNL     1      -3.260   2.246  -1.361  0.00  0.00    -0.225 N 
ATOM     24  C   UNL     1      -2.189   1.504  -1.025  0.00  0.00    +0.143 A 
ATOM     25  N   UNL     1      -2.647   0.346  -0.616  0.00  0.00    -0.115 NA
ATOM     26  N   UNL     1      -3.932   0.378  -0.690  0.00  0.00    -0.023 NA
ATOM     27  N   UNL     1      -4.306   1.524  -1.143  0.00  0.00    -0.043 NA
BRANCH  23  28
ATOM     28  C   UNL     1      -3.241   3.616  -1.880  0.00  0.00    +0.061 C 
ATOM     29  C   UNL     1      -2.670   4.556  -0.816  0.00  0.00    +0.036 C 
ATOM     30  C   UNL     1      -2.368   3.675  -3.134  0.00  0.00    +0.036 C 
BRANCH  28  32
ATOM     31  C   UNL     1      -4.647   5.479  -2.771  0.00  0.00    +0.006 C 
ATOM     32  C   UNL     1      -4.667   4.048  -2.230  0.00  0.00    +0.026 C 
ENDBRANCH  28  32
ENDBRANCH  23  28
ENDBRANCH   1  24
TORSDOF 7
