REMARK  Name = ZINC02093396
REMARK  12 active torsions:
REMARK  status: ('A' for Active; 'I' for Inactive)
REMARK    1  A    between atoms: C_1  and  C_2
REMARK    2  A    between atoms: C_4  and  C_13
REMARK    3  A    between atoms: N_14  and  N_15
REMARK    4  A    between atoms: C_16  and  C_18
REMARK    5  A    between atoms: C_18  and  C_20
REMARK    6  A    between atoms: C_18  and  N_31
REMARK    7  A    between atoms: C_20  and  C_21
REMARK    8  A    between atoms: C_32  and  O_34
REMARK    9  A    between atoms: O_34  and  C_35
REMARK   10  A    between atoms: C_35  and  C_36
REMARK   11  A    between atoms: C_35  and  C_37
REMARK   12  A    between atoms: C_35  and  C_38
REMARK                            x       y       z     vdW  Elec       q    Type
REMARK                         _______ _______ _______ _____ _____    ______ ____
ROOT
ATOM      1  C   UNL     1       6.601   2.959  -4.941  0.00  0.00    +0.168 C 
ENDROOT
BRANCH   1   3
ATOM      2  N   UNL     1       4.795   2.596  -3.290  0.00  0.00    -0.205 N 
ATOM      3  C   UNL     1       5.595   2.079  -4.244  0.00  0.00    +0.253 C 
ATOM      4  O   UNL     1       5.506   0.907  -4.541  0.00  0.00    -0.272 OA
ATOM      5  H   UNL     1       4.866   3.534  -3.053  0.00  0.00    +0.177 HD
BRANCH   2   7
ATOM      6  C   UNL     1       3.087   2.278  -1.721  0.00  0.00    +0.137 C 
ATOM      7  N   UNL     1       3.860   1.778  -2.642  0.00  0.00    -0.188 NA
BRANCH   6  10
ATOM      8  C   UNL     1       1.021   3.513  -0.273  0.00  0.00    +0.057 C 
ATOM      9  C   UNL     1       1.244   2.025   0.001  0.00  0.00    +0.202 C 
ATOM     10  C   UNL     1       2.140   1.450  -1.065  0.00  0.00    +0.013 C 
ATOM     11  C   UNL     1       2.038   0.140  -1.394  0.00  0.00    +0.020 C 
ATOM     12  C   UNL     1       1.024  -0.668  -0.697  0.00  0.00    +0.017 A 
ATOM     13  C   UNL     1       1.063  -2.061  -0.718  0.00  0.00    +0.011 A 
ATOM     14  C   UNL     1       0.093  -2.779  -0.048  0.00  0.00    +0.001 A 
ATOM     15  C   UNL     1      -0.914  -2.122   0.639  0.00  0.00    +0.004 A 
ATOM     16  C   UNL     1      -0.962  -0.739   0.666  0.00  0.00    +0.046 A 
ATOM     17  C   UNL     1       0.002  -0.004   0.002  0.00  0.00    +0.128 A 
ATOM     18  O   UNL     1      -0.016   1.353   0.009  0.00  0.00    -0.484 OA
ENDBRANCH   6  10
ENDBRANCH   2   7
ENDBRANCH   1   3
BRANCH   1  19
ATOM     19  N   UNL     1       7.639   2.124  -5.552  0.00  0.00    -0.269 N 
ATOM     20  C   UNL     1       7.306   1.209  -6.483  0.00  0.00    +0.401 C 
ATOM     21  O   UNL     1       6.145   1.076  -6.816  0.00  0.00    -0.226 OA
ATOM     22  H   UNL     1       8.566   2.231  -5.286  0.00  0.00    +0.153 HD
BRANCH  20  23
ATOM     23  O   UNL     1       8.259   0.442  -7.045  0.00  0.00    -0.445 OA
BRANCH  23  24
ATOM     24  C   UNL     1       7.828  -0.522  -8.041  0.00  0.00    +0.107 C 
ATOM     25  C   UNL     1       7.153   0.210  -9.202  0.00  0.00    +0.055 C 
ATOM     26  C   UNL     1       9.042  -1.295  -8.562  0.00  0.00    +0.055 C 
ATOM     27  C   UNL     1       6.835  -1.499  -7.408  0.00  0.00    +0.055 C 
ENDBRANCH  23  24
ENDBRANCH  20  23
ENDBRANCH   1  19
BRANCH   1  28
ATOM     28  C   UNL     1       5.898   3.776  -6.027  0.00  0.00    +0.069 C 
BRANCH  28  29
ATOM     29  C   UNL     1       6.878   4.743  -6.641  0.00  0.00    -0.020 A 
ATOM     30  C   UNL     1       7.053   6.028  -6.296  0.00  0.00    +0.087 A 
ATOM     31  N   UNL     1       8.032   6.590  -7.070  0.00  0.00    -0.360 N 
ATOM     32  H   UNL     1       8.337   7.508  -7.003  0.00  0.00    +0.165 HD
ATOM     33  C   UNL     1       8.516   5.658  -7.961  0.00  0.00    +0.047 A 
ATOM     34  C   UNL     1       7.814   4.460  -7.732  0.00  0.00    +0.003 A 
ATOM     35  C   UNL     1       8.097   3.329  -8.499  0.00  0.00    +0.010 A 
ATOM     36  C   UNL     1       9.056   3.391  -9.471  0.00  0.00    +0.001 A 
ATOM     37  C   UNL     1       9.751   4.570  -9.701  0.00  0.00    +0.002 A 
ATOM     38  C   UNL     1       9.487   5.699  -8.956  0.00  0.00    +0.026 A 
ENDBRANCH  28  29
ENDBRANCH   1  28
TORSDOF 8
