REMARK  Name = ZINC33487626
REMARK  10 active torsions:
REMARK  status: ('A' for Active; 'I' for Inactive)
REMARK    1  A    between atoms: C_1  and  C_2
REMARK    2  A    between atoms: C_2  and  O_3
REMARK    3  A    between atoms: O_3  and  C_4
REMARK    4  A    between atoms: C_4  and  C_6
REMARK    5  A    between atoms: N_11  and  C_13
REMARK    6  A    between atoms: C_13  and  C_14
REMARK    7  A    between atoms: C_14  and  C_16
REMARK    8  A    between atoms: C_18  and  C_27
REMARK    9  A    between atoms: C_18  and  C_28
REMARK   10  A    between atoms: N_25  and  C_26
REMARK                            x       y       z     vdW  Elec       q    Type
REMARK                         _______ _______ _______ _____ _____    ______ ____
ROOT
ATOM      1  C   UNL     1      -5.619  -6.603   0.747  0.00  0.00    +0.141 C 
ATOM      2  O   UNL     1      -5.621  -6.019  -0.319  0.00  0.00    -0.295 OA
ENDROOT
BRANCH   1   3
ATOM      3  C   UNL     1      -5.830  -7.988   0.789  0.00  0.00    +0.064 C 
ATOM      4  C   UNL     1      -6.937  -8.522   0.216  0.00  0.00    +0.024 C 
ATOM      5  C   UNL     1      -7.236  -9.995   0.033  0.00  0.00    +0.030 C 
ATOM      6  C   UNL     1      -8.583 -10.017  -0.651  0.00  0.00    -0.015 A 
ATOM      7  C   UNL     1      -9.393 -11.043  -1.084  0.00  0.00    +0.006 A 
ATOM      8  C   UNL     1     -10.603 -10.758  -1.693  0.00  0.00    +0.000 A 
ATOM      9  C   UNL     1     -10.995  -9.443  -1.864  0.00  0.00    +0.002 A 
ATOM     10  C   UNL     1     -10.185  -8.413  -1.432  0.00  0.00    +0.024 A 
ATOM     11  C   UNL     1      -8.965  -8.691  -0.817  0.00  0.00    +0.038 A 
ATOM     12  N   UNL     1      -7.993  -7.838  -0.299  0.00  0.00    -0.305 N 
ATOM     13  C   UNL     1      -8.095  -6.376  -0.312  0.00  0.00    +0.135 C 
ATOM     14  C   UNL     1      -6.175 -10.651  -0.853  0.00  0.00    +0.022 C 
ATOM     15  C   UNL     1      -7.313 -10.698   1.390  0.00  0.00    +0.022 C 
ENDBRANCH   1   3
BRANCH   1  16
ATOM     16  C   UNL     1      -5.388  -5.838   2.025  0.00  0.00    +0.002 C 
BRANCH  16  21
ATOM     17  C   UNL     1      -4.560  -2.225   2.613  0.00  0.00    +0.081 C 
ATOM     18  C   UNL     1      -5.811  -1.598   1.990  0.00  0.00    +0.011 C 
ATOM     19  C   UNL     1      -6.212  -2.405   0.751  0.00  0.00    -0.018 C 
ATOM     20  C   UNL     1      -6.433  -3.865   1.151  0.00  0.00    -0.078 C 
ATOM     21  N   UNL     1      -5.194  -4.415   1.715  0.00  0.00    +0.385 N 
ATOM     22  C   UNL     1      -4.841  -3.692   2.943  0.00  0.00    -0.064 C 
ATOM     23  H   UNL     1      -4.447  -4.318   1.043  0.00  0.00    -0.081 HD
BRANCH  17  24
ATOM     24  C   UNL     1      -4.202  -1.484   3.875  0.00  0.00    +0.308 C 
ATOM     25  O   UNL     1      -4.173  -2.070   4.932  0.00  0.00    -0.251 OA
BRANCH  24  26
ATOM     26  O   UNL     1      -3.915  -0.174   3.827  0.00  0.00    -0.465 OA
BRANCH  26  28
ATOM     27  C   UNL     1      -3.291   1.944   4.809  0.00  0.00    +0.048 C 
ATOM     28  C   UNL     1      -3.584   0.464   5.062  0.00  0.00    +0.229 C 
ENDBRANCH  26  28
ENDBRANCH  24  26
ENDBRANCH  17  24
ENDBRANCH  16  21
ENDBRANCH   1  16
TORSDOF 6
