REMARK  Name = ZINC41006660
REMARK  7 active torsions:
REMARK  status: ('A' for Active; 'I' for Inactive)
REMARK    1  A    between atoms: C_1  and  C_2
REMARK    2  A    between atoms: C_2  and  O_35
REMARK    3  A    between atoms: C_6  and  C_26
REMARK    4  A    between atoms: C_8  and  C_21
REMARK    5  A    between atoms: C_10  and  C_12
REMARK    6  A    between atoms: N_14  and  C_15
REMARK    7  A    between atoms: N_28  and  C_29
REMARK                            x       y       z     vdW  Elec       q    Type
REMARK                         _______ _______ _______ _____ _____    ______ ____
ROOT
ATOM      1  C   UNL     1       0.849   1.810   0.056  0.00  0.00    +0.042 C 
ATOM      2  C   UNL     1       0.533   0.330  -0.171  0.00  0.00    +0.082 C 
ATOM      3  C   UNL     1       0.920  -0.062  -1.600  0.00  0.00    +0.110 C 
ATOM      4  C   UNL     1       0.725  -1.554  -1.759  0.00  0.00    +0.149 C 
ATOM      5  O   UNL     1       0.083  -2.000  -2.679  0.00  0.00    -0.296 OA
ATOM      6  C   UNL     1       1.354  -2.472  -0.735  0.00  0.00    +0.152 C 
ATOM      7  C   UNL     1       0.952  -1.992   0.663  0.00  0.00    +0.089 C 
ATOM      8  C   UNL     1       1.328  -0.518   0.823  0.00  0.00    +0.118 C 
ENDROOT
BRANCH   7   9
ATOM      9  C   UNL     1      -0.536  -2.153   0.841  0.00  0.00    +0.110 A 
ATOM     10  C   UNL     1      -1.177  -2.301   2.014  0.00  0.00    +0.045 A 
ATOM     11  C   UNL     1      -2.555  -2.417   1.717  0.00  0.00    +0.041 A 
ATOM     12  C   UNL     1      -2.673  -2.333   0.380  0.00  0.00    +0.195 A 
ATOM     13  O   UNL     1      -1.448  -2.168  -0.145  0.00  0.00    -0.467 OA
ENDBRANCH   7   9
BRANCH   8  14
ATOM     14  C   UNL     1       1.016  -0.070   2.227  0.00  0.00    +0.224 C 
ATOM     15  O   UNL     1      -0.092   0.340   2.501  0.00  0.00    -0.275 OA
ATOM     16  N   UNL     1       1.968  -0.126   3.180  0.00  0.00    -0.285 N 
ATOM     17  H   UNL     1       2.821  -0.546   2.989  0.00  0.00    +0.155 HD
BRANCH  16  18
ATOM     18  C   UNL     1       1.725   0.422   4.444  0.00  0.00    +0.033 A 
ATOM     19  C   UNL     1       0.421   0.582   4.895  0.00  0.00    +0.023 A 
ATOM     20  C   UNL     1       0.185   1.123   6.143  0.00  0.00    +0.002 A 
ATOM     21  C   UNL     1       1.245   1.507   6.944  0.00  0.00    +0.000 A 
ATOM     22  C   UNL     1       2.545   1.350   6.498  0.00  0.00    +0.002 A 
ATOM     23  C   UNL     1       2.788   0.803   5.253  0.00  0.00    +0.023 A 
ENDBRANCH  16  18
ENDBRANCH   8  14
BRANCH   6  24
ATOM     24  C   UNL     1       2.854  -2.434  -0.875  0.00  0.00    +0.228 C 
ATOM     25  O   UNL     1       3.541  -2.074   0.057  0.00  0.00    -0.275 OA
ATOM     26  N   UNL     1       3.432  -2.800  -2.036  0.00  0.00    -0.285 N 
ATOM     27  H   UNL     1       2.884  -2.968  -2.819  0.00  0.00    +0.155 HD
BRANCH  26  28
ATOM     28  C   UNL     1       4.823  -2.937  -2.113  0.00  0.00    +0.033 A 
ATOM     29  C   UNL     1       5.544  -3.350  -1.001  0.00  0.00    +0.023 A 
ATOM     30  C   UNL     1       6.916  -3.485  -1.080  0.00  0.00    +0.002 A 
ATOM     31  C   UNL     1       7.572  -3.208  -2.265  0.00  0.00    +0.000 A 
ATOM     32  C   UNL     1       6.857  -2.795  -3.374  0.00  0.00    +0.002 A 
ATOM     33  C   UNL     1       5.484  -2.665  -3.304  0.00  0.00    +0.023 A 
ENDBRANCH  26  28
ENDBRANCH   6  24
BRANCH   2  34
ATOM     34  O   UNL     1      -0.865   0.106   0.024  0.00  0.00    -0.388 OA
ATOM     35  H   UNL     1      -1.431   0.613  -0.574  0.00  0.00    +0.210 HD
ENDBRANCH   2  34
TORSDOF 6
