REMARK  Name = ZINC64870789
REMARK  6 active torsions:
REMARK  status: ('A' for Active; 'I' for Inactive)
REMARK    1  A    between atoms: C_1  and  C_2
REMARK    2  A    between atoms: C_2  and  C_3
REMARK    3  A    between atoms: C_2  and  C_4
REMARK    4  A    between atoms: C_4  and  N_5
REMARK    5  A    between atoms: C_11  and  C_18
REMARK    6  A    between atoms: C_21  and  C_25
REMARK                            x       y       z     vdW  Elec       q    Type
REMARK                         _______ _______ _______ _____ _____    ______ ____
ROOT
ATOM      1  N   UNL     1      -1.416  -1.993  -0.116  0.00  0.00    -0.260 N 
ATOM      2  C   UNL     1      -1.450  -2.550  -1.345  0.00  0.00    +0.264 A 
ATOM      3  O   UNL     1      -1.494  -1.857  -2.343  0.00  0.00    -0.267 OA
ATOM      4  C   UNL     1      -1.431  -4.020  -1.447  0.00  0.00    +0.063 A 
ATOM      5  C   UNL     1      -1.463  -4.670  -2.678  0.00  0.00    +0.016 A 
ATOM      6  C   UNL     1      -1.444  -6.049  -2.720  0.00  0.00    +0.008 A 
ATOM      7  C   UNL     1      -1.393  -6.785  -1.546  0.00  0.00    -0.000 A 
ATOM      8  C   UNL     1      -1.361  -6.153  -0.319  0.00  0.00    +0.034 A 
ATOM      9  C   UNL     1      -1.380  -4.768  -0.258  0.00  0.00    +0.056 A 
ATOM     10  N   UNL     1      -1.349  -4.094   0.954  0.00  0.00    -0.307 N 
ATOM     11  H   UNL     1      -1.313  -4.597   1.783  0.00  0.00    +0.170 HD
ATOM     12  C   UNL     1      -1.362  -2.750   0.991  0.00  0.00    +0.330 A 
ATOM     13  O   UNL     1      -1.329  -2.198   2.074  0.00  0.00    -0.246 OA
ENDROOT
BRANCH   7  14
ATOM     14  C   UNL     1      -1.373  -8.291  -1.611  0.00  0.00    +0.242 C 
ATOM     15  N   UNL     1      -0.722  -8.732  -2.860  0.00  0.00    -0.265 NA
ATOM     16  C   UNL     1      -1.732  -9.527  -3.598  0.00  0.00    +0.182 C 
ATOM     17  N   UNL     1      -2.673  -9.969  -2.535  0.00  0.00    -0.177 NA
ATOM     18  O   UNL     1      -2.720  -8.798  -1.627  0.00  0.00    -0.274 OA
ATOM     19  H   UNL     1      -0.414  -7.941  -3.407  0.00  0.00    +0.127 HD
ATOM     20  H   UNL     1      -3.585 -10.166  -2.919  0.00  0.00    +0.156 HD
BRANCH  16  21
ATOM     21  C   UNL     1      -1.087 -10.714  -4.267  0.00  0.00    +0.004 A 
ATOM     22  C   UNL     1       0.258 -10.681  -4.587  0.00  0.00    +0.008 A 
ATOM     23  C   UNL     1       0.849 -11.770  -5.200  0.00  0.00    +0.000 A 
ATOM     24  C   UNL     1       0.096 -12.891  -5.494  0.00  0.00    +0.001 A 
ATOM     25  C   UNL     1      -1.248 -12.925  -5.175  0.00  0.00    +0.020 A 
ATOM     26  C   UNL     1      -1.839 -11.838  -4.556  0.00  0.00    +0.047 A 
ATOM     27 CL   UNL     1      -3.527 -11.882  -4.149  0.00  0.00    -0.083 Cl
ENDBRANCH  16  21
ENDBRANCH   7  14
BRANCH   1  28
ATOM     28  C   UNL     1      -1.433  -0.534   0.013  0.00  0.00    +0.133 C 
BRANCH  28  30
ATOM     29  C   UNL     1      -0.019   1.526   0.010  0.00  0.00    +0.009 C 
ATOM     30  C   UNL     1       0.002  -0.004   0.002  0.00  0.00    +0.003 C 
ATOM     31  C   UNL     1       0.742  -0.511   1.242  0.00  0.00    +0.009 C 
ENDBRANCH  28  30
ENDBRANCH   1  28
TORSDOF 4
