REMARK  Name = ZINC65429842
REMARK  7 active torsions:
REMARK  status: ('A' for Active; 'I' for Inactive)
REMARK    1  A    between atoms: C_1  and  C_2
REMARK    2  A    between atoms: C_2  and  C_3
REMARK    3  A    between atoms: C_2  and  C_4
REMARK    4  A    between atoms: C_7  and  C_10
REMARK    5  A    between atoms: C_12  and  C_16
REMARK    6  A    between atoms: N_20  and  C_22
REMARK    7  A    between atoms: C_22  and  C_23
REMARK                            x       y       z     vdW  Elec       q    Type
REMARK                         _______ _______ _______ _____ _____    ______ ____
ROOT
ATOM      1  C   UNL     1       2.788  -1.912   4.667  0.00  0.00    +0.071 A 
ATOM      2  C   UNL     1       2.128  -2.736   5.577  0.00  0.00    +0.032 A 
ATOM      3  C   UNL     1       2.811  -3.187   6.693  0.00  0.00    -0.040 A 
ATOM      4  C   UNL     1       4.132  -2.799   6.864  0.00  0.00    +0.023 A 
ATOM      5  C   UNL     1       4.725  -1.979   5.921  0.00  0.00    +0.111 A 
ATOM      6  N   UNL     1       4.053  -1.568   4.864  0.00  0.00    -0.255 NA
ENDROOT
BRANCH   1  10
ATOM      7  C   UNL     1       0.731  -0.503   1.223  0.00  0.00    -0.045 A 
ATOM      8  C   UNL     1       2.051  -0.146   1.431  0.00  0.00    +0.004 A 
ATOM      9  C   UNL     1       2.723  -0.600   2.548  0.00  0.00    +0.010 A 
ATOM     10  C   UNL     1       2.070  -1.420   3.466  0.00  0.00    +0.000 A 
ATOM     11  C   UNL     1       0.740  -1.777   3.251  0.00  0.00    +0.010 A 
ATOM     12  C   UNL     1       0.076  -1.312   2.134  0.00  0.00    +0.004 A 
BRANCH   7  14
ATOM     13  C   UNL     1      -0.019   1.526   0.010  0.00  0.00    +0.012 C 
ATOM     14  C   UNL     1       0.002  -0.004   0.002  0.00  0.00    +0.013 C 
ATOM     15  C   UNL     1       0.718  -0.497  -1.257  0.00  0.00    +0.012 C 
ENDBRANCH   7  14
ENDBRANCH   1  10
BRANCH   3  16
ATOM     16  C   UNL     1       2.134  -4.080   7.702  0.00  0.00    +0.034 C 
ATOM     17  C   UNL     1       2.928  -5.392   7.891  0.00  0.00    +0.025 C 
ATOM     18  C   UNL     1       2.867  -5.686   9.401  0.00  0.00    +0.085 C 
ATOM     19  N   UNL     1       2.056  -4.614  10.018  0.00  0.00    -0.295 NA
ATOM     20  C   UNL     1       2.172  -3.441   9.113  0.00  0.00    +0.093 C 
BRANCH  19  21
ATOM     21  C   UNL     1       2.547  -4.292  11.365  0.00  0.00    +0.156 C 
BRANCH  21  22
ATOM     22  C   UNL     1       2.247  -5.438  12.297  0.00  0.00    +0.099 A 
ATOM     23  N   UNL     1       1.342  -6.381  12.091  0.00  0.00    -0.349 N 
ATOM     24  C   UNL     1       1.367  -7.227  13.142  0.00  0.00    +0.101 A 
ATOM     25  C   UNL     1       2.308  -6.778  13.996  0.00  0.00    +0.101 A 
ATOM     26  N   UNL     1       2.848  -5.668  13.453  0.00  0.00    -0.349 N 
ATOM     27  H   UNL     1       3.555  -5.130  13.843  0.00  0.00    +0.166 HD
ATOM     28  H   UNL     1       0.762  -6.453  11.317  0.00  0.00    +0.166 HD
ENDBRANCH  21  22
ENDBRANCH  19  21
ENDBRANCH   3  16
TORSDOF 5
