REMARK  Name = ZINC28932982
REMARK  9 active torsions:
REMARK  status: ('A' for Active; 'I' for Inactive)
REMARK    1  A    between atoms: C_1  and  C_2
REMARK    2  A    between atoms: C_9  and  C_16
REMARK    3  A    between atoms: C_11  and  O_12
REMARK    4  A    between atoms: C_16  and  O_17
REMARK    5  A    between atoms: O_17  and  C_18
REMARK    6  A    between atoms: C_18  and  C_20
REMARK    7  A    between atoms: C_20  and  C_21
REMARK    8  A    between atoms: C_21  and  C_22
REMARK    9  A    between atoms: C_21  and  C_28
REMARK                            x       y       z     vdW  Elec       q    Type
REMARK                         _______ _______ _______ _____ _____    ______ ____
ROOT
ATOM      1  C   UNL     1       1.972  -6.564   0.638  0.00  0.00    +0.268 C 
ENDROOT
BRANCH   1  10
ATOM      2  C   UNL     1       2.222   2.319   1.034  0.00  0.00    +0.109 C 
ATOM      3  C   UNL     1       1.765   0.883   1.061  0.00  0.00    +0.214 C 
ATOM      4  O   UNL     1       0.807   0.564   1.733  0.00  0.00    -0.276 OA
ATOM      5  N   UNL     1       2.421  -0.046   0.339  0.00  0.00    -0.286 N 
ATOM      6  C   UNL     1       2.054  -1.389   0.431  0.00  0.00    +0.037 A 
ATOM      7  C   UNL     1       3.031  -2.381   0.354  0.00  0.00    +0.024 A 
ATOM      8  C   UNL     1       2.687  -3.698   0.449  0.00  0.00    +0.014 A 
ATOM      9  C   UNL     1       1.344  -4.057   0.612  0.00  0.00    +0.024 A 
ATOM     10  C   UNL     1       0.946  -5.463   0.711  0.00  0.00    +0.007 A 
ATOM     11  C   UNL     1      -0.373  -5.747   0.869  0.00  0.00    +0.095 A 
ATOM     12  C   UNL     1      -1.313  -4.699   0.934  0.00  0.00    +0.285 A 
ATOM     13  O   UNL     1      -0.942  -3.412   0.843  0.00  0.00    -0.425 OA
ATOM     14  C   UNL     1       0.352  -3.061   0.685  0.00  0.00    +0.141 A 
ATOM     15  C   UNL     1       0.719  -1.727   0.593  0.00  0.00    +0.070 A 
ATOM     16  H   UNL     1       3.247   0.253  -0.323  0.00  0.00    +0.155 HD
BRANCH  12  17
ATOM     17  O   UNL     1      -2.493  -4.967   1.076  0.00  0.00    -0.480 OA
ATOM     18  H   UNL     1      -3.238  -4.160   1.128  0.00  0.00    +0.295 HD
ENDBRANCH  12  17
ENDBRANCH   1  10
BRANCH   1  19
ATOM     19  O   UNL     1       1.310  -7.851   0.761  0.00  0.00    -0.460 OA
BRANCH  19  20
ATOM     20  C   UNL     1       2.089  -8.943   0.716  0.00  0.00    +0.308 C 
ATOM     21  O   UNL     1       3.284  -8.829   0.578  0.00  0.00    -0.251 OA
BRANCH  20  22
ATOM     22  C   UNL     1       1.473 -10.313   0.837  0.00  0.00    +0.133 C 
BRANCH  22  23
ATOM     23  C   UNL     1       2.571 -11.376   0.755  0.00  0.00    +0.060 C 
BRANCH  23  24
ATOM     24  C   UNL     1       3.487 -11.244   1.944  0.00  0.00    -0.039 A 
ATOM     25  C   UNL     1       4.852 -11.132   1.755  0.00  0.00    +0.004 A 
ATOM     26  C   UNL     1       5.692 -11.006   2.846  0.00  0.00    +0.000 A 
ATOM     27  C   UNL     1       5.168 -11.003   4.125  0.00  0.00    +0.000 A 
ATOM     28  C   UNL     1       3.804 -11.120   4.314  0.00  0.00    +0.000 A 
ATOM     29  C   UNL     1       2.963 -11.241   3.223  0.00  0.00    +0.004 A 
ENDBRANCH  23  24
BRANCH  23  30
ATOM     30  C   UNL     1       1.944 -12.746   0.753  0.00  0.00    -0.039 A 
ATOM     31  C   UNL     1       1.032 -13.091   1.732  0.00  0.00    +0.004 A 
ATOM     32  C   UNL     1       0.454 -14.347   1.728  0.00  0.00    +0.000 A 
ATOM     33  C   UNL     1       0.796 -15.261   0.749  0.00  0.00    +0.000 A 
ATOM     34  C   UNL     1       1.712 -14.918  -0.228  0.00  0.00    +0.000 A 
ATOM     35  C   UNL     1       2.287 -13.661  -0.226  0.00  0.00    +0.004 A 
ENDBRANCH  23  30
ENDBRANCH  22  23
ENDBRANCH  20  22
ENDBRANCH  19  20
ENDBRANCH   1  19
TORSDOF 8
