REMARK  Name = ZINC39895032
REMARK  6 active torsions:
REMARK  status: ('A' for Active; 'I' for Inactive)
REMARK    1  A    between atoms: C_1  and  C_2
REMARK    2  A    between atoms: C_7  and  S_10
REMARK    3  A    between atoms: S_10  and  C_11
REMARK    4  A    between atoms: C_11  and  C_12
REMARK    5  A    between atoms: C_18  and  C_20
REMARK    6  A    between atoms: C_20  and  C_21
REMARK                            x       y       z     vdW  Elec       q    Type
REMARK                         _______ _______ _______ _____ _____    ______ ____
ROOT
ATOM      1  C   UNL     1      -3.533   5.596  -5.844  0.00  0.00    +0.229 C 
ATOM      2  O   UNL     1      -4.032   4.898  -6.701  0.00  0.00    -0.275 OA
ATOM      3  N   UNL     1      -3.607   6.938  -5.941  0.00  0.00    -0.264 N 
ATOM      4  C   UNL     1      -4.255   7.522  -7.024  0.00  0.00    +0.165 A 
ATOM      5  N   UNL     1      -4.854   6.931  -8.034  0.00  0.00    -0.233 NA
ATOM      6  C   UNL     1      -5.429   7.633  -8.993  0.00  0.00    +0.124 A 
ATOM      7  C   UNL     1      -5.373   8.983  -8.885  0.00  0.00    +0.015 A 
ATOM      8  S   UNL     1      -4.471   9.158  -7.355  0.00  0.00    -0.057 S 
ATOM      9  H   UNL     1      -3.207   7.497  -5.256  0.00  0.00    +0.157 HD
ENDROOT
BRANCH   1  10
ATOM     10  C   UNL     1      -2.830   4.963  -4.671  0.00  0.00    +0.173 C 
BRANCH  10  11
ATOM     11  S   UNL     1      -2.901   3.157  -4.827  0.00  0.00    -0.077 S 
BRANCH  11  18
ATOM     12  C   UNL     1      -0.013   1.086   0.008  0.00  0.00    +0.073 C 
ATOM     13  C   UNL     1      -0.742   1.585  -1.213  0.00  0.00    +0.124 A 
ATOM     14  C   UNL     1      -0.899   3.022  -1.451  0.00  0.00    +0.295 A 
ATOM     15  O   UNL     1      -0.439   3.831  -0.659  0.00  0.00    -0.264 OA
ATOM     16  N   UNL     1      -1.550   3.441  -2.542  0.00  0.00    -0.182 NA
ATOM     17  H   UNL     1      -2.291   0.614  -3.848  0.00  0.00    +0.191 HD
ATOM     18  C   UNL     1      -2.049   2.572  -3.400  0.00  0.00    +0.187 A 
ATOM     19  N   UNL     1      -1.916   1.235  -3.203  0.00  0.00    -0.255 N 
ATOM     20  N   UNL     1      -1.239   0.744  -2.079  0.00  0.00    -0.172 NA
ENDBRANCH  11  18
ENDBRANCH  10  11
ENDBRANCH   1  10
BRANCH   7  21
ATOM     21  C   UNL     1      -5.925  10.044  -9.803  0.00  0.00    +0.080 C 
BRANCH  21  22
ATOM     22  C   UNL     1      -7.330  10.390  -9.382  0.00  0.00    -0.023 A 
ATOM     23  C   UNL     1      -8.406   9.768  -9.986  0.00  0.00    +0.025 A 
ATOM     24  C   UNL     1      -9.695  10.086  -9.600  0.00  0.00    +0.041 A 
ATOM     25  C   UNL     1      -9.908  11.027  -8.608  0.00  0.00    +0.021 A 
ATOM     26  C   UNL     1      -8.833  11.650  -8.004  0.00  0.00    +0.022 A 
ATOM     27  C   UNL     1      -7.543  11.328  -8.387  0.00  0.00    +0.045 A 
ATOM     28 CL   UNL     1      -6.191  12.105  -7.623  0.00  0.00    -0.083 Cl
ATOM     29 CL   UNL     1     -11.046   9.304 -10.359  0.00  0.00    -0.084 Cl
ENDBRANCH  21  22
ENDBRANCH   7  21
TORSDOF 5
