REMARK  Name = ZINC15104244
REMARK  10 active torsions:
REMARK  status: ('A' for Active; 'I' for Inactive)
REMARK    1  A    between atoms: C_1  and  C_2
REMARK    2  A    between atoms: C_4  and  C_15
REMARK    3  A    between atoms: C_5  and  C_14
REMARK    4  A    between atoms: N_6  and  C_7
REMARK    5  A    between atoms: C_15  and  C_17
REMARK    6  A    between atoms: C_17  and  N_18
REMARK    7  A    between atoms: N_21  and  S_24
REMARK    8  A    between atoms: S_24  and  C_27
REMARK    9  A    between atoms: C_28  and  C_33
REMARK   10  A    between atoms: C_31  and  C_32
REMARK                            x       y       z     vdW  Elec       q    Type
REMARK                         _______ _______ _______ _____ _____    ______ ____
ROOT
ATOM      1  C   UNL     1       0.035  -3.267  -2.953  0.00  0.00    +0.164 C 
ENDROOT
BRANCH   1   2
ATOM      2  N   UNL     1       0.051  -4.611  -3.544  0.00  0.00    -0.293 NA
ATOM      3  C   UNL     1       1.312  -5.303  -3.244  0.00  0.00    +0.102 C 
ATOM      4  C   UNL     1       1.218  -6.757  -3.719  0.00  0.00    +0.125 C 
ATOM      5  N   UNL     1       0.828  -6.762  -5.137  0.00  0.00    -0.174 NA
ATOM      6  C   UNL     1      -0.349  -5.976  -5.537  0.00  0.00    +0.125 C 
ATOM      7  C   UNL     1      -0.194  -4.553  -4.992  0.00  0.00    +0.102 C 
BRANCH   5   8
ATOM      8  S   UNL     1       1.692  -7.628  -6.253  0.00  0.00    +0.066 S 
ATOM      9  O   UNL     1       1.453  -7.018  -7.514  0.00  0.00    -0.153 OA
ATOM     10  O   UNL     1       2.999  -7.789  -5.720  0.00  0.00    -0.153 OA
BRANCH   8  11
ATOM     11  C   UNL     1       0.977  -9.237  -6.329  0.00  0.00    +0.170 A 
ATOM     12  C   UNL     1       1.345 -10.342  -5.540  0.00  0.00    +0.107 A 
ATOM     13  N   UNL     1       0.596 -11.351  -5.883  0.00  0.00    -0.081 NA
ATOM     14  O   UNL     1      -0.279 -10.916  -6.908  0.00  0.00    -0.358 OA
ATOM     15  C   UNL     1      -0.020  -9.622  -7.149  0.00  0.00    +0.161 A 
ATOM     16  C   UNL     1      -0.719  -8.752  -8.161  0.00  0.00    +0.091 C 
ATOM     17  C   UNL     1       2.420 -10.356  -4.483  0.00  0.00    +0.071 C 
ENDBRANCH   8  11
ENDBRANCH   5   8
ENDBRANCH   1   2
BRANCH   1  18
ATOM     18  C   UNL     1       0.043  -3.378  -1.450  0.00  0.00    +0.179 C 
ATOM     19  O   UNL     1       0.060  -4.471  -0.923  0.00  0.00    -0.291 OA
BRANCH  18  23
ATOM     20  C   UNL     1      -0.018   1.503   0.010  0.00  0.00    +0.064 C 
ATOM     21  C   UNL     1       0.002  -0.004   0.002  0.00  0.00    +0.022 A 
ATOM     22  C   UNL     1       0.008  -0.777  -1.097  0.00  0.00    +0.034 A 
ATOM     23  C   UNL     1       0.029  -2.168  -0.626  0.00  0.00    +0.040 A 
ATOM     24  C   UNL     1       0.035  -2.101   0.755  0.00  0.00    +0.031 A 
ATOM     25  N   UNL     1       0.024  -0.802   1.112  0.00  0.00    -0.317 N 
ATOM     26  C   UNL     1       0.055  -3.277   1.697  0.00  0.00    +0.064 C 
BRANCH  25  27
ATOM     27  C   UNL     1       0.030  -0.335   2.434  0.00  0.00    +0.047 A 
ATOM     28  C   UNL     1       1.133  -0.562   3.246  0.00  0.00    +0.029 A 
ATOM     29  C   UNL     1       1.137  -0.101   4.548  0.00  0.00    +0.040 A 
ATOM     30  C   UNL     1       0.043   0.587   5.043  0.00  0.00    +0.124 A 
ATOM     31  C   UNL     1      -1.058   0.815   4.235  0.00  0.00    +0.040 A 
ATOM     32  C   UNL     1      -1.064   0.360   2.930  0.00  0.00    +0.029 A 
ATOM     33  F   UNL     1       0.049   1.037   6.317  0.00  0.00    -0.205 F 
ENDBRANCH  25  27
ENDBRANCH  18  23
ENDBRANCH   1  18
TORSDOF 6
