REMARK  Name = ZINC39324417
REMARK  12 active torsions:
REMARK  status: ('A' for Active; 'I' for Inactive)
REMARK    1  A    between atoms: C_1  and  C_2
REMARK    2  A    between atoms: C_2  and  C_3
REMARK    3  A    between atoms: C_2  and  C_4
REMARK    4  A    between atoms: C_2  and  C_5
REMARK    5  A    between atoms: C_9  and  C_10
REMARK    6  A    between atoms: C_13  and  O_16
REMARK    7  A    between atoms: O_16  and  C_17
REMARK    8  A    between atoms: C_21  and  C_29
REMARK    9  A    between atoms: C_23  and  C_27
REMARK   10  A    between atoms: C_24  and  N_26
REMARK   11  A    between atoms: C_32  and  O_35
REMARK   12  A    between atoms: O_35  and  C_36
REMARK                            x       y       z     vdW  Elec       q    Type
REMARK                         _______ _______ _______ _____ _____    ______ ____
ROOT
ATOM      1  C   UNL     1       0.430  -0.287  -1.677  0.00  0.00    +0.003 C 
ATOM      2  C   UNL     1       0.488  -1.810  -1.493  0.00  0.00    +0.043 C 
ATOM      3  C   UNL     1       1.311  -2.361  -2.637  0.00  0.00    -0.004 C 
ATOM      4  C   UNL     1       0.943  -3.488  -3.273  0.00  0.00    +0.015 C 
ATOM      5  C   UNL     1       2.529  -1.628  -3.037  0.00  0.00    +0.133 C 
ATOM      6  C   UNL     1       2.776  -0.409  -2.557  0.00  0.00    -0.014 C 
ATOM      7  C   UNL     1       1.845   0.275  -1.588  0.00  0.00    +0.039 C 
ATOM      8  C   UNL     1       4.020   0.338  -2.981  0.00  0.00    +0.094 C 
ATOM      9  C   UNL     1       5.034  -0.613  -3.550  0.00  0.00    +0.098 C 
ATOM     10  C   UNL     1       4.660  -1.844  -3.980  0.00  0.00    +0.199 C 
ATOM     11  O   UNL     1       3.378  -2.237  -3.904  0.00  0.00    -0.441 OA
ENDROOT
BRANCH   4  12
ATOM     12  C   UNL     1      -0.174  -4.295  -2.754  0.00  0.00    -0.024 A 
ATOM     13  C   UNL     1      -1.001  -4.997  -3.636  0.00  0.00    +0.011 A 
ATOM     14  C   UNL     1      -2.045  -5.750  -3.146  0.00  0.00    +0.046 A 
ATOM     15  C   UNL     1      -2.277  -5.813  -1.778  0.00  0.00    +0.120 A 
ATOM     16  C   UNL     1      -1.458  -5.117  -0.897  0.00  0.00    +0.046 A 
ATOM     17  C   UNL     1      -0.408  -4.366  -1.377  0.00  0.00    +0.011 A 
BRANCH  15  18
ATOM     18  O   UNL     1      -3.308  -6.556  -1.300  0.00  0.00    -0.495 OA
ATOM     19  C   UNL     1      -3.491  -6.577   0.118  0.00  0.00    +0.277 C 
ENDBRANCH  15  18
ENDBRANCH   4  12
BRANCH   8  20
ATOM     20  C   UNL     1       3.656   1.358  -4.028  0.00  0.00    -0.035 A 
ATOM     21  C   UNL     1       3.080   0.952  -5.217  0.00  0.00    +0.008 A 
ATOM     22  C   UNL     1       2.746   1.886  -6.179  0.00  0.00    +0.046 A 
ATOM     23  C   UNL     1       2.989   3.232  -5.950  0.00  0.00    +0.120 A 
ATOM     24  C   UNL     1       3.566   3.638  -4.755  0.00  0.00    +0.046 A 
ATOM     25  C   UNL     1       3.894   2.700  -3.795  0.00  0.00    +0.008 A 
BRANCH  23  26
ATOM     26  O   UNL     1       2.661   4.153  -6.895  0.00  0.00    -0.495 OA
ATOM     27  C   UNL     1       2.940   5.521  -6.591  0.00  0.00    +0.277 C 
ENDBRANCH  23  26
ENDBRANCH   8  20
BRANCH   1  29
ATOM     28  C   UNL     1      -0.487   1.849  -0.759  0.00  0.00    +0.011 C 
ATOM     29  C   UNL     1      -0.437   0.330  -0.578  0.00  0.00    -0.034 C 
ATOM     30  C   UNL     1       0.163  -0.000   0.790  0.00  0.00    +0.011 C 
ATOM     31  C   UNL     1      -1.854  -0.240  -0.665  0.00  0.00    +0.011 C 
ENDBRANCH   1  29
BRANCH  10  32
ATOM     32  N   UNL     1       5.603  -2.698  -4.497  0.00  0.00    -0.328 N 
ATOM     33  H   UNL     1       6.530  -2.419  -4.554  0.00  0.00    +0.145 HD
ATOM     34  H   UNL     1       5.341  -3.579  -4.805  0.00  0.00    +0.145 HD
ENDBRANCH  10  32
BRANCH   9  35
ATOM     35  C   UNL     1       6.407  -0.215  -3.642  0.00  0.00    +0.101 C 
ATOM     36  N   UNL     1       7.496   0.101  -3.714  0.00  0.00    -0.191 NA
ENDBRANCH   9  35
TORSDOF 7
