REMARK  Name = ZINC07878543
REMARK  5 active torsions:
REMARK  status: ('A' for Active; 'I' for Inactive)
REMARK    1  A    between atoms: C_1  and  C_2
REMARK    2  A    between atoms: C_11  and  C_12
REMARK    3  A    between atoms: C_11  and  N_46
REMARK    4  A    between atoms: N_14  and  C_15
REMARK    5  A    between atoms: C_16  and  C_23
REMARK                            x       y       z     vdW  Elec       q    Type
REMARK                         _______ _______ _______ _____ _____    ______ ____
ROOT
ATOM      1  C   UNL     1      -0.598  -4.748   0.183  0.00  0.00    +0.201 C 
ATOM      2  O   UNL     1       0.556  -4.788  -0.191  0.00  0.00    -0.278 OA
ATOM      3  N   UNL     1      -1.200  -3.558   0.382  0.00  0.00    -0.281 N 
ATOM      4  H   UNL     1      -2.122  -3.526   0.680  0.00  0.00    +0.155 HD
ENDROOT
BRANCH   3   5
ATOM      5  C   UNL     1      -0.501  -2.381   0.159  0.00  0.00    +0.084 A 
ATOM      6  C   UNL     1      -0.943  -1.078   0.306  0.00  0.00    +0.068 A 
ATOM      7  C   UNL     1       0.002  -0.004   0.002  0.00  0.00    -0.023 A 
ATOM      8  C   UNL     1       1.222  -0.412  -0.392  0.00  0.00    -0.004 A 
ATOM      9  S   UNL     1       1.135  -2.186  -0.370  0.00  0.00    -0.077 S 
ATOM     10  C   UNL     1       2.137   0.747  -0.683  0.00  0.00    +0.043 C 
ATOM     11  C   UNL     1       1.461   1.957  -0.001  0.00  0.00    +0.010 C 
ATOM     12  C   UNL     1      -0.019   1.525   0.010  0.00  0.00    +0.037 C 
BRANCH   6  13
ATOM     13  C   UNL     1      -2.310  -0.784   0.749  0.00  0.00    +0.244 C 
ATOM     14  O   UNL     1      -3.202  -0.660  -0.070  0.00  0.00    -0.270 OA
ATOM     15  N   UNL     1      -2.578  -0.652   2.063  0.00  0.00    -0.325 N 
ATOM     16  H   UNL     1      -1.867  -0.751   2.716  0.00  0.00    +0.145 HD
ATOM     17  H   UNL     1      -3.482  -0.458   2.356  0.00  0.00    +0.145 HD
ENDBRANCH   6  13
ENDBRANCH   3   5
BRANCH   1  18
ATOM     18  C   UNL     1      -1.357  -6.027   0.425  0.00  0.00    +0.020 C 
BRANCH  18  28
ATOM     19  C   UNL     1      -1.328  -8.381   2.099  0.00  0.00    -0.008 C 
ATOM     20  C   UNL     1      -1.105  -8.429   0.586  0.00  0.00    -0.039 C 
ATOM     21  C   UNL     1      -0.169  -9.584   0.243  0.00  0.00    -0.051 A 
ATOM     22  C   UNL     1      -0.243 -10.845   0.830  0.00  0.00    +0.010 A 
ATOM     23  C   UNL     1       0.631 -11.813   0.467  0.00  0.00    +0.045 A 
ATOM     24  S   UNL     1       1.627 -10.971  -0.755  0.00  0.00    -0.101 S 
ATOM     25  C   UNL     1       0.809  -9.403  -0.690  0.00  0.00    -0.010 A 
ATOM     26  C   UNL     1       1.089  -8.152  -1.457  0.00  0.00    +0.024 C 
ATOM     27  C   UNL     1      -0.119  -7.216  -1.284  0.00  0.00    -0.072 C 
ATOM     28  N   UNL     1      -0.457  -7.166   0.159  0.00  0.00    +0.390 N 
ATOM     29  H   UNL     1       0.408  -7.040   0.698  0.00  0.00    -0.080 HD
ENDBRANCH  18  28
ENDBRANCH   1  18
TORSDOF 4
