REMARK  Name = ZINC39695123
REMARK  7 active torsions:
REMARK  status: ('A' for Active; 'I' for Inactive)
REMARK    1  A    between atoms: C_1  and  C_2
REMARK    2  A    between atoms: C_3  and  C_9
REMARK    3  A    between atoms: C_9  and  N_10
REMARK    4  A    between atoms: C_11  and  C_13
REMARK    5  A    between atoms: C_24  and  C_26
REMARK    6  A    between atoms: C_29  and  O_33
REMARK    7  A    between atoms: O_33  and  C_34
REMARK                            x       y       z     vdW  Elec       q    Type
REMARK                         _______ _______ _______ _____ _____    ______ ____
ROOT
ATOM      1  C   UNL     1       3.628   1.850  -4.154  0.00  0.00    +0.100 C 
ATOM      2  C   UNL     1       4.310   0.469  -4.277  0.00  0.00    +0.121 C 
ATOM      3  N   UNL     1       4.286   0.168  -5.728  0.00  0.00    -0.296 N 
ATOM      4  C   UNL     1       4.575   1.468  -6.379  0.00  0.00    +0.115 C 
ATOM      5  C   UNL     1       3.808   2.504  -5.535  0.00  0.00    -0.004 C 
ATOM      6  C   UNL     1       4.620   3.790  -5.409  0.00  0.00    -0.010 C 
ATOM      7  C   UNL     1       4.735   4.452  -6.785  0.00  0.00    -0.082 C 
ATOM      8  N   UNL     1       3.393   4.745  -7.303  0.00  0.00    +0.379 N 
ATOM      9  C   UNL     1       2.651   3.495  -7.508  0.00  0.00    -0.082 C 
ATOM     10  C   UNL     1       2.448   2.793  -6.163  0.00  0.00    -0.010 C 
ATOM     11  C   UNL     1       4.054  -1.020  -6.321  0.00  0.00    +0.247 C 
ATOM     12  O   UNL     1       3.707  -1.975  -5.654  0.00  0.00    -0.270 OA
ATOM     13  H   UNL     1       2.898   5.324  -6.641  0.00  0.00    -0.086 HD
ATOM     14  H   UNL     1       3.473   5.236  -8.181  0.00  0.00    -0.086 HD
ENDROOT
BRANCH  11  15
ATOM     15  C   UNL     1       4.223  -1.161  -7.781  0.00  0.00    +0.040 A 
ATOM     16  C   UNL     1       5.016  -0.252  -8.486  0.00  0.00    +0.036 A 
ATOM     17  C   UNL     1       5.171  -0.387  -9.848  0.00  0.00    +0.085 A 
ATOM     18  C   UNL     1       4.538  -1.426 -10.522  0.00  0.00    +0.157 A 
ATOM     19  C   UNL     1       3.747  -2.332  -9.824  0.00  0.00    +0.085 A 
ATOM     20  C   UNL     1       3.593  -2.207  -8.460  0.00  0.00    +0.036 A 
ATOM     21 CL   UNL     1       2.958  -3.626 -10.671  0.00  0.00    -0.080 Cl
ATOM     22 CL   UNL     1       6.157   0.741 -10.725  0.00  0.00    -0.080 Cl
BRANCH  18  23
ATOM     23  O   UNL     1       4.692  -1.555 -11.865  0.00  0.00    -0.492 OA
ATOM     24  C   UNL     1       5.782  -2.359 -12.318  0.00  0.00    +0.277 C 
ENDBRANCH  18  23
ENDBRANCH  11  15
BRANCH   1  26
ATOM     25  N   UNL     1       1.492   2.679  -3.222  0.00  0.00    -0.311 N 
ATOM     26  C   UNL     1       2.164   1.686  -3.838  0.00  0.00    +0.218 C 
ATOM     27  O   UNL     1       1.590   0.660  -4.137  0.00  0.00    -0.275 OA
ATOM     28  H   UNL     1       1.950   3.499  -2.983  0.00  0.00    +0.149 HD
BRANCH  25  29
ATOM     29  C   UNL     1       0.068   2.519  -2.915  0.00  0.00    +0.139 C 
BRANCH  29  32
ATOM     30  C   UNL     1      -0.605   4.853  -4.479  0.00  0.00    +0.045 C 
ATOM     31  C   UNL     1      -0.763   4.879  -2.981  0.00  0.00    -0.027 A 
ATOM     32  C   UNL     1      -0.441   3.762  -2.232  0.00  0.00    -0.026 A 
ATOM     33  C   UNL     1      -0.586   3.786  -0.858  0.00  0.00    +0.005 A 
ATOM     34  C   UNL     1      -1.053   4.926  -0.231  0.00  0.00    +0.002 A 
ATOM     35  C   UNL     1      -1.376   6.043  -0.978  0.00  0.00    +0.020 A 
ATOM     36  C   UNL     1      -1.226   6.022  -2.353  0.00  0.00    +0.044 A 
ATOM     37 CL   UNL     1      -1.625   7.427  -3.292  0.00  0.00    -0.083 Cl
ENDBRANCH  29  32
ENDBRANCH  25  29
ENDBRANCH   1  26
TORSDOF 5
