REMARK  Name = ZINC16425054
REMARK  8 active torsions:
REMARK  status: ('A' for Active; 'I' for Inactive)
REMARK    1  A    between atoms: C_1  and  C_2
REMARK    2  A    between atoms: C_7  and  N_8
REMARK    3  A    between atoms: C_9  and  C_11
REMARK    4  A    between atoms: C_13  and  N_36
REMARK    5  A    between atoms: C_16  and  N_17
REMARK    6  A    between atoms: N_17  and  C_18
REMARK    7  A    between atoms: C_18  and  C_19
REMARK    8  A    between atoms: C_19  and  N_20
REMARK                            x       y       z     vdW  Elec       q    Type
REMARK                         _______ _______ _______ _____ _____    ______ ____
ROOT
ATOM      1  C   UNL     1       4.790   9.395  -4.420  0.00  0.00    +0.060 A 
ATOM      2  C   UNL     1       5.150   9.909  -5.668  0.00  0.00    +0.047 A 
ATOM      3  C   UNL     1       4.779   9.246  -6.817  0.00  0.00    +0.127 A 
ATOM      4  C   UNL     1       4.055   8.067  -6.743  0.00  0.00    +0.034 A 
ATOM      5  C   UNL     1       3.697   7.543  -5.518  0.00  0.00    +0.026 A 
ATOM      6  C   UNL     1       4.062   8.197  -4.348  0.00  0.00    +0.040 A 
ENDROOT
BRANCH   1   8
ATOM      7  N   UNL     1       5.783  11.305  -3.261  0.00  0.00    -0.281 N 
ATOM      8  C   UNL     1       5.178  10.102  -3.186  0.00  0.00    +0.250 C 
ATOM      9  O   UNL     1       4.952   9.601  -2.101  0.00  0.00    -0.270 OA
ATOM     10  H   UNL     1       5.906  11.733  -4.123  0.00  0.00    +0.155 HD
BRANCH   7  17
ATOM     11  C   UNL     1       8.156  12.866  -3.409  0.00  0.00    +0.045 C 
ATOM     12  C   UNL     1       7.386  12.707  -2.123  0.00  0.00    -0.029 A 
ATOM     13  C   UNL     1       7.827  13.329  -0.971  0.00  0.00    +0.006 A 
ATOM     14  C   UNL     1       7.121  13.184   0.208  0.00  0.00    +0.020 A 
ATOM     15  C   UNL     1       5.970  12.416   0.239  0.00  0.00    +0.043 A 
ATOM     16  C   UNL     1       5.521  11.796  -0.911  0.00  0.00    +0.043 A 
ATOM     17  C   UNL     1       6.231  11.935  -2.096  0.00  0.00    +0.038 A 
ATOM     18 CL   UNL     1       5.086  12.236   1.723  0.00  0.00    -0.083 Cl
ENDBRANCH   7  17
ENDBRANCH   1   8
BRANCH   3  19
ATOM     19  N   UNL     1       5.155   9.796  -8.139  0.00  0.00    +0.056 N 
ATOM     20  O   UNL     1       4.829   9.213  -9.157  0.00  0.00    -0.126 OA
ATOM     21  O   UNL     1       5.792  10.832  -8.208  0.00  0.00    -0.126 OA
ENDBRANCH   3  19
BRANCH   6  22
ATOM     22  N   UNL     1       3.702   7.672  -3.113  0.00  0.00    -0.342 N 
ATOM     23  H   UNL     1       4.024   8.086  -2.297  0.00  0.00    +0.146 HD
BRANCH  22  24
ATOM     24  C   UNL     1       2.837   6.492  -3.043  0.00  0.00    +0.121 C 
BRANCH  24  25
ATOM     25  C   UNL     1       2.596   6.122  -1.578  0.00  0.00    +0.135 C 
BRANCH  25  26
ATOM     26  N   UNL     1       1.731   4.943  -1.507  0.00  0.00    -0.240 N 
ATOM     27  C   UNL     1       0.397   5.027  -1.452  0.00  0.00    +0.226 C 
ATOM     28  O   UNL     1      -0.240   6.058  -1.454  0.00  0.00    -0.275 OA
ATOM     29  C   UNL     1      -0.193   3.636  -1.387  0.00  0.00    +0.095 C 
ATOM     30  C   UNL     1      -0.776   3.418   0.044  0.00  0.00    +0.025 C 
ATOM     31  C   UNL     1       0.551   3.270   0.874  0.00  0.00    +0.016 C 
ATOM     32  C   UNL     1       1.067   2.065   0.005  0.00  0.00    +0.025 C 
ATOM     33  C   UNL     1       1.061   2.714  -1.414  0.00  0.00    +0.095 C 
ATOM     34  C   UNL     1       2.210   3.694  -1.492  0.00  0.00    +0.226 C 
ATOM     35  O   UNL     1       3.384   3.394  -1.534  0.00  0.00    -0.275 OA
ATOM     36  C   UNL     1      -0.184   1.179   0.017  0.00  0.00    -0.027 C 
ATOM     37  C   UNL     1      -1.246   1.958   0.033  0.00  0.00    -0.027 C 
ENDBRANCH  25  26
ENDBRANCH  24  25
ENDBRANCH  22  24
ENDBRANCH   6  22
TORSDOF 7
