REMARK  Name = ZINC40988307
REMARK  6 active torsions:
REMARK  status: ('A' for Active; 'I' for Inactive)
REMARK    1  A    between atoms: C_3  and  C_6
REMARK    2  A    between atoms: C_6  and  C_8
REMARK    3  A    between atoms: C_6  and  N_29
REMARK    4  A    between atoms: C_8  and  N_9
REMARK    5  A    between atoms: C_10  and  C_12
REMARK    6  A    between atoms: N_15  and  C_17
REMARK                            x       y       z     vdW  Elec       q    Type
REMARK                         _______ _______ _______ _____ _____    ______ ____
ROOT
ATOM      1  N   UNL     1       5.594   0.205  -1.396  0.00  0.00    -0.311 N 
ATOM      2  C   UNL     1       6.287  -0.016  -2.530  0.00  0.00    +0.264 C 
ATOM      3  O   UNL     1       5.697  -0.191  -3.579  0.00  0.00    -0.268 OA
ATOM      4  H   UNL     1       6.065   0.345  -0.559  0.00  0.00    +0.149 HD
ENDROOT
BRANCH   2   5
ATOM      5  C   UNL     1       7.764  -0.045  -2.500  0.00  0.00    +0.150 A 
ATOM      6  C   UNL     1       8.621  -0.256  -3.593  0.00  0.00    +0.006 A 
ATOM      7  C   UNL     1       9.881  -0.200  -3.094  0.00  0.00    +0.044 A 
ATOM      8  N   UNL     1       9.776   0.035  -1.776  0.00  0.00    -0.263 N 
ATOM      9  N   UNL     1       8.535   0.129  -1.441  0.00  0.00    -0.166 NA
ATOM     10  C   UNL     1      11.123  -0.380  -3.927  0.00  0.00    +0.055 C 
ATOM     11  C   UNL     1      10.722  -1.029  -5.258  0.00  0.00    +0.006 C 
ATOM     12  C   UNL     1       9.550  -0.260  -5.873  0.00  0.00    +0.005 C 
ATOM     13  C   UNL     1       8.285  -0.498  -5.038  0.00  0.00    +0.039 C 
BRANCH   8  14
ATOM     14  C   UNL     1      10.907   0.171  -0.854  0.00  0.00    +0.130 C 
ATOM     15  C   UNL     1      10.863   1.559  -0.193  0.00  0.00    +0.051 C 
ATOM     16  C   UNL     1      11.869   1.562   0.993  0.00  0.00    +0.168 C 
ATOM     17  S   UNL     1      11.565  -0.113   1.698  0.00  0.00    -0.029 S 
ATOM     18  O   UNL     1      10.581  -0.014   2.718  0.00  0.00    -0.174 OA
ATOM     19  O   UNL     1      12.814  -0.725   1.989  0.00  0.00    -0.174 OA
ATOM     20  C   UNL     1      10.823  -0.931   0.229  0.00  0.00    +0.192 C 
ENDBRANCH   8  14
ENDBRANCH   2   5
BRANCH   1  21
ATOM     21  C   UNL     1       4.130   0.234  -1.426  0.00  0.00    +0.097 C 
BRANCH  21  22
ATOM     22  C   UNL     1       3.599   0.632  -0.047  0.00  0.00    +0.016 C 
BRANCH  22  23
ATOM     23  N   UNL     1       2.133   0.536  -0.040  0.00  0.00    +0.387 N 
ATOM     24  C   UNL     1       1.712  -0.871  -0.262  0.00  0.00    -0.078 C 
ATOM     25  C   UNL     1       0.277  -0.907   0.321  0.00  0.00    -0.020 C 
ATOM     26  C   UNL     1       0.383   0.012   1.559  0.00  0.00    -0.020 C 
ATOM     27  C   UNL     1       1.604   0.910   1.290  0.00  0.00    -0.078 C 
ATOM     28  H   UNL     1       1.741   1.134  -0.751  0.00  0.00    -0.081 HD
ENDBRANCH  22  23
BRANCH  22  31
ATOM     29  C   UNL     1       5.064   3.832   1.049  0.00  0.00    +0.041 A 
ATOM     30  C   UNL     1       5.043   2.418   1.039  0.00  0.00    +0.043 A 
ATOM     31  C   UNL     1       4.011   2.050   0.259  0.00  0.00    +0.093 A 
ATOM     32  O   UNL     1       3.409   3.159  -0.201  0.00  0.00    -0.469 OA
ATOM     33  C   UNL     1       4.044   4.243   0.275  0.00  0.00    +0.195 A 
ENDBRANCH  22  31
ENDBRANCH  21  22
ENDBRANCH   1  21
TORSDOF 6
