REMARK  Name = ZINC33276573
REMARK  8 active torsions:
REMARK  status: ('A' for Active; 'I' for Inactive)
REMARK    1  A    between atoms: C_1  and  C_2
REMARK    2  A    between atoms: C_3  and  C_14
REMARK    3  A    between atoms: C_18  and  S_20
REMARK    4  A    between atoms: S_20  and  N_23
REMARK    5  A    between atoms: N_23  and  C_24
REMARK    6  A    between atoms: C_27  and  C_30
REMARK    7  A    between atoms: C_30  and  C_31
REMARK    8  A    between atoms: C_30  and  C_32
REMARK                            x       y       z     vdW  Elec       q    Type
REMARK                         _______ _______ _______ _____ _____    ______ ____
ROOT
ATOM      1  C   UNL     1       1.592  -3.635  -0.350  0.00  0.00    -0.011 A 
ATOM      2  C   UNL     1       2.182  -4.253  -1.451  0.00  0.00    +0.010 A 
ATOM      3  C   UNL     1       2.797  -5.480  -1.303  0.00  0.00    +0.022 A 
ATOM      4  C   UNL     1       2.829  -6.096  -0.064  0.00  0.00    +0.068 A 
ATOM      5  C   UNL     1       2.243  -5.486   1.032  0.00  0.00    +0.127 A 
ATOM      6  C   UNL     1       1.630  -4.257   0.896  0.00  0.00    +0.039 A 
ATOM      7 CL   UNL     1       3.604  -7.638   0.116  0.00  0.00    -0.082 Cl
ENDROOT
BRANCH   1  10
ATOM      8  C   UNL     1      -1.501  -3.063   0.013  0.00  0.00    +0.068 C 
ATOM      9  C   UNL     1      -0.442  -2.050  -0.336  0.00  0.00    +0.070 A 
ATOM     10  C   UNL     1       0.929  -2.317  -0.504  0.00  0.00    +0.045 A 
ATOM     11  C   UNL     1       1.550  -1.119  -0.840  0.00  0.00    +0.139 A 
ATOM     12  N   UNL     1       0.594  -0.155  -0.800  0.00  0.00    -0.185 N 
ATOM     13  N   UNL     1      -0.640  -0.779  -0.535  0.00  0.00    -0.167 NA
ATOM     14  C   UNL     1       0.713   1.181  -0.949  0.00  0.00    +0.250 C 
ATOM     15  O   UNL     1      -0.294   1.847  -0.984  0.00  0.00    -0.271 OA
ATOM     16  C   UNL     1       2.012   1.867  -1.076  0.00  0.00    +0.110 C 
ATOM     17  C   UNL     1       3.135   1.234  -0.298  0.00  0.00    +0.105 C 
ATOM     18  C   UNL     1       3.676   0.028  -0.992  0.00  0.00    +0.219 C 
ATOM     19  O   UNL     1       4.830   0.008  -1.364  0.00  0.00    -0.275 OA
ATOM     20  N   UNL     1       2.879  -1.040  -1.204  0.00  0.00    -0.270 N 
ATOM     21  H   UNL     1       3.363  -1.890  -1.708  0.00  0.00    +0.156 HD
ENDBRANCH   1  10
BRANCH   5  22
ATOM     22  S   UNL     1       2.287  -6.277   2.606  0.00  0.00    +0.074 S 
ATOM     23  O   UNL     1       3.634  -6.674   2.824  0.00  0.00    -0.150 OA
ATOM     24  O   UNL     1       1.588  -5.429   3.507  0.00  0.00    -0.150 OA
BRANCH  22  25
ATOM     25  N   UNL     1       1.399  -7.669   2.480  0.00  0.00    -0.216 N 
ATOM     26  H   UNL     1       1.879  -8.645   2.643  0.00  0.00    +0.174 HD
BRANCH  25  27
ATOM     27  C   UNL     1       0.039  -7.604   2.166  0.00  0.00    +0.048 A 
ATOM     28  C   UNL     1      -0.782  -6.692   2.816  0.00  0.00    +0.025 A 
ATOM     29  C   UNL     1      -2.125  -6.627   2.500  0.00  0.00    +0.006 A 
ATOM     30  C   UNL     1      -2.654  -7.474   1.544  0.00  0.00    -0.045 A 
ATOM     31  C   UNL     1      -1.840  -8.387   0.898  0.00  0.00    +0.006 A 
ATOM     32  C   UNL     1      -0.495  -8.454   1.206  0.00  0.00    +0.025 A 
BRANCH  30  33
ATOM     33  C   UNL     1      -4.121  -7.404   1.206  0.00  0.00    +0.013 C 
ATOM     34  C   UNL     1      -4.948  -7.696   2.459  0.00  0.00    +0.012 C 
ATOM     35  C   UNL     1      -4.457  -6.004   0.687  0.00  0.00    +0.012 C 
ENDBRANCH  30  33
ENDBRANCH  25  27
ENDBRANCH  22  25
ENDBRANCH   5  22
TORSDOF 5
