REMARK  Name = ZINC63386719
REMARK  11 active torsions:
REMARK  status: ('A' for Active; 'I' for Inactive)
REMARK    1  A    between atoms: C_1  and  C_2
REMARK    2  A    between atoms: C_2  and  C_3
REMARK    3  A    between atoms: C_2  and  C_4
REMARK    4  A    between atoms: C_4  and  C_5
REMARK    5  A    between atoms: C_5  and  N_6
REMARK    6  A    between atoms: C_13  and  O_37
REMARK    7  A    between atoms: C_15  and  C_18
REMARK    8  A    between atoms: N_20  and  N_21
REMARK    9  A    between atoms: C_22  and  C_23
REMARK   10  A    between atoms: C_22  and  C_24
REMARK   11  A    between atoms: C_26  and  O_36
REMARK                            x       y       z     vdW  Elec       q    Type
REMARK                         _______ _______ _______ _____ _____    ______ ____
ROOT
ATOM      1  C   UNL     1      -6.655   0.724   0.649  0.00  0.00    +0.299 C 
ATOM      2  O   UNL     1      -7.806   0.314   1.232  0.00  0.00    -0.264 OA
ATOM      3  N   UNL     1      -6.349   2.010   0.622  0.00  0.00    -0.106 NA
ENDROOT
BRANCH   1  12
ATOM      4  N   UNL     1      -3.714  -0.678  -0.991  0.00  0.00    -0.267 N 
ATOM      5  C   UNL     1      -4.167  -1.924  -1.433  0.00  0.00    +0.043 A 
ATOM      6  C   UNL     1      -3.404  -2.657  -2.334  0.00  0.00    +0.024 A 
ATOM      7  C   UNL     1      -3.851  -3.886  -2.776  0.00  0.00    +0.002 A 
ATOM      8  C   UNL     1      -5.058  -4.386  -2.322  0.00  0.00    +0.000 A 
ATOM      9  C   UNL     1      -5.818  -3.660  -1.425  0.00  0.00    +0.008 A 
ATOM     10  C   UNL     1      -5.376  -2.429  -0.975  0.00  0.00    +0.007 A 
ATOM     11  C   UNL     1      -6.210  -1.656   0.009  0.00  0.00    +0.187 C 
ATOM     12  C   UNL     1      -5.785  -0.219   0.071  0.00  0.00    +0.115 C 
ATOM     13  C   UNL     1      -4.589   0.200  -0.405  0.00  0.00    +0.255 C 
ATOM     14  O   UNL     1      -4.256   1.505  -0.306  0.00  0.00    -0.270 OA
BRANCH  11  15
ATOM     15  O   UNL     1      -6.068  -2.241   1.305  0.00  0.00    -0.382 OA
ATOM     16  H   UNL     1      -6.578  -1.797   1.995  0.00  0.00    +0.211 HD
ENDBRANCH  11  15
BRANCH   4  17
ATOM     17  C   UNL     1      -2.304  -0.313  -1.148  0.00  0.00    +0.114 C 
BRANCH  17  18
ATOM     18  C   UNL     1      -1.530  -0.714   0.110  0.00  0.00    +0.022 C 
BRANCH  18  20
ATOM     19  C   UNL     1      -0.033   1.282  -0.028  0.00  0.00    +0.007 C 
ATOM     20  C   UNL     1      -0.078  -0.248  -0.015  0.00  0.00    -0.016 C 
ATOM     21  C   UNL     1       0.729  -0.771   1.175  0.00  0.00    +0.007 C 
ENDBRANCH  18  20
ENDBRANCH  17  18
ENDBRANCH   4  17
ENDBRANCH   1  12
BRANCH   3  22
ATOM     22  N   UNL     1      -7.158   2.937   1.291  0.00  0.00    -0.154 NA
ATOM     23  C   UNL     1      -6.917   4.205   1.183  0.00  0.00    +0.057 C 
ATOM     24  C   UNL     1      -7.703   5.194   2.004  0.00  0.00    +0.064 C 
BRANCH  23  25
ATOM     25  C   UNL     1      -5.851   4.690   0.235  0.00  0.00    +0.186 C 
ATOM     26  C   UNL     1      -4.684   5.191   1.064  0.00  0.00    +0.120 C 
ATOM     27  C   UNL     1      -4.295   6.519   0.875  0.00  0.00    +0.035 A 
ATOM     28  C   UNL     1      -3.220   7.065   1.605  0.00  0.00    +0.013 A 
ATOM     29  C   UNL     1      -2.860   8.362   1.402  0.00  0.00    +0.001 A 
ATOM     30  C   UNL     1      -3.534   9.164   0.486  0.00  0.00    +0.002 A 
ATOM     31  C   UNL     1      -4.581   8.692  -0.248  0.00  0.00    +0.024 A 
ATOM     32  C   UNL     1      -5.006   7.362  -0.090  0.00  0.00    +0.044 A 
ATOM     33  N   UNL     1      -6.035   6.901  -0.813  0.00  0.00    -0.284 N 
ATOM     34  C   UNL     1      -6.492   5.669  -0.722  0.00  0.00    +0.233 C 
ATOM     35  O   UNL     1      -7.432   5.319  -1.411  0.00  0.00    -0.274 OA
ATOM     36  H   UNL     1      -6.466   7.506  -1.436  0.00  0.00    +0.155 HD
BRANCH  26  37
ATOM     37  O   UNL     1      -4.056   4.397   1.937  0.00  0.00    -0.509 OA
ATOM     38  H   UNL     1      -3.386   4.848   2.469  0.00  0.00    +0.292 HD
ENDBRANCH  26  37
ENDBRANCH  23  25
ENDBRANCH   3  22
TORSDOF 8
