REMARK  Name = ZINC58948337
REMARK  10 active torsions:
REMARK  status: ('A' for Active; 'I' for Inactive)
REMARK    1  A    between atoms: C_1  and  C_2
REMARK    2  A    between atoms: C_5  and  N_9
REMARK    3  A    between atoms: C_6  and  C_8
REMARK    4  A    between atoms: N_9  and  C_10
REMARK    5  A    between atoms: C_10  and  C_11
REMARK    6  A    between atoms: N_13  and  N_14
REMARK    7  A    between atoms: N_14  and  C_15
REMARK    8  A    between atoms: C_17  and  O_18
REMARK    9  A    between atoms: C_20  and  C_22
REMARK   10  A    between atoms: C_20  and  C_23
REMARK                            x       y       z     vdW  Elec       q    Type
REMARK                         _______ _______ _______ _____ _____    ______ ____
ROOT
ATOM      1  C   UNL     1       0.082  -6.376  -1.026  0.00  0.00    +0.246 C 
ATOM      2  O   UNL     1       0.093  -6.786   0.115  0.00  0.00    -0.273 OA
ATOM      3  N   UNL     1       0.089  -7.246  -2.056  0.00  0.00    -0.235 N 
ATOM      4  H   UNL     1       0.080  -6.918  -2.968  0.00  0.00    +0.173 HD
ENDROOT
BRANCH   3   5
ATOM      5  N   UNL     1       0.108  -8.625  -1.807  0.00  0.00    -0.265 N 
ATOM      6  H   UNL     1       0.117  -8.953  -0.894  0.00  0.00    +0.170 HD
BRANCH   5   7
ATOM      7  C   UNL     1       0.115  -9.526  -2.873  0.00  0.00    +0.044 C 
ATOM      8  C   UNL     1       0.136 -10.976  -2.617  0.00  0.00    +0.065 C 
ATOM      9  C   UNL     1       0.526 -11.813  -3.582  0.00  0.00    +0.097 C 
ATOM     10  C   UNL     1       0.945 -11.276  -4.925  0.00  0.00    +0.084 C 
ATOM     11  C   UNL     1       0.106 -10.050  -5.282  0.00  0.00    -0.008 C 
ATOM     12  C   UNL     1       0.097  -9.077  -4.134  0.00  0.00    +0.004 C 
ATOM     13  C   UNL     1      -1.329 -10.487  -5.582  0.00  0.00    +0.016 C 
ATOM     14  C   UNL     1       0.698  -9.373  -6.520  0.00  0.00    +0.016 C 
BRANCH   9  15
ATOM     15  O   UNL     1       0.544 -13.147  -3.352  0.00  0.00    -0.511 OA
ATOM     16  H   UNL     1       0.258 -13.397  -2.463  0.00  0.00    +0.292 HD
ENDBRANCH   9  15
ENDBRANCH   5   7
ENDBRANCH   3   5
BRANCH   1  17
ATOM     17  C   UNL     1       0.061  -4.893  -1.294  0.00  0.00    +0.199 C 
BRANCH  17  18
ATOM     18  N   UNL     1       0.058  -4.167  -0.021  0.00  0.00    -0.335 N 
ATOM     19  H   UNL     1       0.069  -4.657   0.816  0.00  0.00    +0.147 HD
BRANCH  18  24
ATOM     20  C   UNL     1      -0.018   1.503   0.010  0.00  0.00    +0.044 C 
ATOM     21  C   UNL     1       0.002  -0.004   0.002  0.00  0.00    -0.050 A 
ATOM     22  C   UNL     1       0.006  -0.687  -1.200  0.00  0.00    +0.005 A 
ATOM     23  C   UNL     1       0.024  -2.068  -1.212  0.00  0.00    +0.023 A 
ATOM     24  C   UNL     1       0.040  -2.771  -0.013  0.00  0.00    +0.030 A 
ATOM     25  C   UNL     1       0.036  -2.081   1.192  0.00  0.00    -0.029 A 
ATOM     26  C   UNL     1       0.023  -0.700   1.196  0.00  0.00    +0.008 A 
ATOM     27  C   UNL     1       0.052  -2.839   2.495  0.00  0.00    +0.045 C 
ENDBRANCH  18  24
ENDBRANCH  17  18
ENDBRANCH   1  17
TORSDOF 6
