REMARK  Name = ZINC36186903
REMARK  12 active torsions:
REMARK  status: ('A' for Active; 'I' for Inactive)
REMARK    1  A    between atoms: C_1  and  C_2
REMARK    2  A    between atoms: C_2  and  O_3
REMARK    3  A    between atoms: O_3  and  C_4
REMARK    4  A    between atoms: C_7  and  N_10
REMARK    5  A    between atoms: C_20  and  O_38
REMARK    6  A    between atoms: C_23  and  C_37
REMARK    7  A    between atoms: C_24  and  C_26
REMARK    8  A    between atoms: N_28  and  C_29
REMARK    9  A    between atoms: C_32  and  C_36
REMARK   10  A    between atoms: C_34  and  C_35
REMARK   11  A    between atoms: O_38  and  C_39
REMARK   12  A    between atoms: C_39  and  C_40
REMARK                            x       y       z     vdW  Elec       q    Type
REMARK                         _______ _______ _______ _____ _____    ______ ____
ROOT
ATOM      1  N   UNL     1      -3.084  -5.546   0.116  0.00  0.00    -0.243 N 
ATOM      2  C   UNL     1      -1.756  -5.665  -0.037  0.00  0.00    +0.141 C 
ATOM      3  S   UNL     1      -0.806  -4.243  -0.127  0.00  0.00    -0.018 S 
ATOM      4  N   UNL     1      -1.145  -6.858  -0.121  0.00  0.00    -0.318 N 
ATOM      5  C   UNL     1      -1.949  -8.092  -0.121  0.00  0.00    +0.123 C 
ATOM      6  C   UNL     1      -2.505  -8.267  -1.517  0.00  0.00    +0.019 A 
ATOM      7  C   UNL     1      -1.750  -8.946  -2.459  0.00  0.00    +0.009 A 
ATOM      8  C   UNL     1      -2.230  -9.117  -3.743  0.00  0.00    +0.004 A 
ATOM      9  C   UNL     1      -3.467  -8.608  -4.092  0.00  0.00    +0.049 A 
ATOM     10  C   UNL     1      -4.226  -7.930  -3.154  0.00  0.00    +0.162 A 
ATOM     11  C   UNL     1      -3.745  -7.759  -1.855  0.00  0.00    +0.170 A 
ATOM     12  O   UNL     1      -4.524  -7.103  -0.956  0.00  0.00    -0.463 OA
ATOM     13  C   UNL     1      -3.950  -6.708   0.293  0.00  0.00    +0.194 C 
ATOM     14  C   UNL     1      -3.115  -7.886   0.859  0.00  0.00    +0.163 C 
ATOM     15  C   UNL     1      -5.063  -6.365   1.286  0.00  0.00    +0.079 C 
ATOM     16  H   UNL     1      -0.178  -6.907  -0.181  0.00  0.00    +0.148 HD
ENDROOT
BRANCH   1  20
ATOM     17  C   UNL     1      -4.788  -1.740   0.100  0.00  0.00    +0.121 A 
ATOM     18  C   UNL     1      -4.769  -2.496  -1.063  0.00  0.00    +0.047 A 
ATOM     19  C   UNL     1      -4.205  -3.756  -1.058  0.00  0.00    +0.027 A 
ATOM     20  C   UNL     1      -3.656  -4.267   0.111  0.00  0.00    +0.039 A 
ATOM     21  C   UNL     1      -3.675  -3.510   1.274  0.00  0.00    +0.027 A 
ATOM     22  C   UNL     1      -4.236  -2.248   1.267  0.00  0.00    +0.047 A 
BRANCH  17  23
ATOM     23  O   UNL     1      -5.344  -0.499   0.095  0.00  0.00    -0.492 OA
BRANCH  23  25
ATOM     24  C   UNL     1      -6.470   1.365  -0.953  0.00  0.00    +0.048 C 
ATOM     25  C   UNL     1      -5.895  -0.040  -1.141  0.00  0.00    +0.225 C 
ENDBRANCH  23  25
ENDBRANCH  17  23
ENDBRANCH   1  20
BRANCH  14  26
ATOM     26  C   UNL     1      -2.584  -7.556   2.230  0.00  0.00    +0.228 C 
ATOM     27  O   UNL     1      -2.397  -6.400   2.546  0.00  0.00    -0.275 OA
ATOM     28  N   UNL     1      -2.316  -8.546   3.104  0.00  0.00    -0.285 N 
ATOM     29  H   UNL     1      -2.536  -9.463   2.881  0.00  0.00    +0.155 HD
BRANCH  28  30
ATOM     30  C   UNL     1      -1.719  -8.249   4.335  0.00  0.00    +0.036 A 
ATOM     31  C   UNL     1      -1.005  -7.069   4.496  0.00  0.00    +0.024 A 
ATOM     32  C   UNL     1      -0.417  -6.779   5.711  0.00  0.00    +0.005 A 
ATOM     33  C   UNL     1      -0.539  -7.663   6.768  0.00  0.00    -0.050 A 
ATOM     34  C   UNL     1      -1.249  -8.839   6.611  0.00  0.00    +0.008 A 
ATOM     35  C   UNL     1      -1.845  -9.132   5.400  0.00  0.00    -0.029 A 
ATOM     36  C   UNL     1      -2.625 -10.410   5.232  0.00  0.00    +0.045 C 
ATOM     37  C   UNL     1       0.104  -7.344   8.093  0.00  0.00    +0.044 C 
ENDBRANCH  28  30
ENDBRANCH  14  26
BRANCH  10  38
ATOM     38  O   UNL     1      -5.443  -7.430  -3.499  0.00  0.00    -0.489 OA
BRANCH  38  39
ATOM     39  C   UNL     1      -5.874  -7.642  -4.845  0.00  0.00    +0.226 C 
ATOM     40  C   UNL     1      -7.255  -7.013  -5.043  0.00  0.00    +0.048 C 
ENDBRANCH  38  39
ENDBRANCH  10  38
TORSDOF 7
