REMARK  Name = ZINC09670510
REMARK  11 active torsions:
REMARK  status: ('A' for Active; 'I' for Inactive)
REMARK    1  A    between atoms: C_1  and  C_2
REMARK    2  A    between atoms: N_8  and  S_9
REMARK    3  A    between atoms: S_9  and  C_12
REMARK    4  A    between atoms: C_14  and  C_20
REMARK    5  A    between atoms: C_17  and  O_18
REMARK    6  A    between atoms: O_18  and  C_19
REMARK    7  A    between atoms: N_22  and  C_23
REMARK    8  A    between atoms: N_22  and  C_24
REMARK    9  A    between atoms: C_24  and  C_25
REMARK   10  A    between atoms: N_27  and  C_28
REMARK   11  A    between atoms: C_28  and  C_29
REMARK                            x       y       z     vdW  Elec       q    Type
REMARK                         _______ _______ _______ _____ _____    ______ ____
ROOT
ATOM      1  C   UNL     1       3.100   0.242  -3.408  0.00  0.00    +0.148 A 
ATOM      2  C   UNL     1       4.410   0.476  -3.764  0.00  0.00    +0.045 A 
ATOM      3  C   UNL     1       4.771   0.504  -5.113  0.00  0.00    +0.039 A 
ATOM      4  C   UNL     1       3.801   0.294  -6.097  0.00  0.00    +0.017 A 
ATOM      5  C   UNL     1       2.494   0.061  -5.733  0.00  0.00    +0.048 A 
ATOM      6  C   UNL     1       2.140   0.028  -4.389  0.00  0.00    +0.146 A 
ENDROOT
BRANCH   3   7
ATOM      7  C   UNL     1       6.174   0.754  -5.498  0.00  0.00    +0.247 C 
ATOM      8  O   UNL     1       6.828   1.589  -4.903  0.00  0.00    -0.270 OA
ATOM      9  N   UNL     1       6.730   0.059  -6.510  0.00  0.00    -0.292 N 
ATOM     10  C   UNL     1       5.913  -0.869  -7.297  0.00  0.00    +0.133 C 
BRANCH   9  11
ATOM     11  C   UNL     1       8.150   0.230  -6.824  0.00  0.00    +0.203 C 
BRANCH  11  12
ATOM     12  C   UNL     1       8.963  -0.761  -6.031  0.00  0.00    +0.231 C 
ATOM     13  O   UNL     1       8.410  -1.534  -5.278  0.00  0.00    -0.274 OA
ATOM     14  N   UNL     1      10.304  -0.788  -6.158  0.00  0.00    -0.307 N 
ATOM     15  H   UNL     1      10.747  -0.169  -6.760  0.00  0.00    +0.149 HD
BRANCH  14  16
ATOM     16  C   UNL     1      11.094  -1.751  -5.387  0.00  0.00    +0.178 C 
BRANCH  16  17
ATOM     17  C   UNL     1      12.556  -1.575  -5.710  0.00  0.00    +0.122 A 
ATOM     18  C   UNL     1      13.410  -0.758  -5.067  0.00  0.00    +0.046 A 
ATOM     19  C   UNL     1      14.668  -0.907  -5.694  0.00  0.00    +0.041 A 
ATOM     20  C   UNL     1      14.508  -1.804  -6.683  0.00  0.00    +0.195 A 
ATOM     21  O   UNL     1      13.227  -2.210  -6.684  0.00  0.00    -0.466 OA
ENDBRANCH  16  17
ENDBRANCH  14  16
ENDBRANCH  11  12
ENDBRANCH   9  11
ENDBRANCH   3   7
BRANCH   1  22
ATOM     22  S   UNL     1       2.643   0.206  -1.707  0.00  0.00    +0.065 S 
ATOM     23  O   UNL     1       3.814   0.518  -0.965  0.00  0.00    -0.153 OA
ATOM     24  O   UNL     1       1.913  -0.997  -1.508  0.00  0.00    -0.153 OA
BRANCH  22  31
ATOM     25  C   UNL     1       3.565   2.884  -1.617  0.00  0.00    +0.026 C 
ATOM     26  C   UNL     1       2.063   2.833  -1.329  0.00  0.00    +0.077 C 
ATOM     27  C   UNL     1       1.316   3.714  -2.335  0.00  0.00    +0.020 C 
ATOM     28  C   UNL     1      -0.191   3.553  -2.128  0.00  0.00    +0.003 C 
ATOM     29  C   UNL     1      -0.589   2.095  -2.373  0.00  0.00    +0.017 C 
ATOM     30  C   UNL     1       0.136   1.196  -1.367  0.00  0.00    +0.110 C 
ATOM     31  N   UNL     1       1.580   1.452  -1.459  0.00  0.00    -0.174 NA
ENDBRANCH  22  31
ENDBRANCH   1  22
BRANCH   6  32
ATOM     32  O   UNL     1       0.851  -0.208  -4.035  0.00  0.00    -0.493 OA
ATOM     33  C   UNL     1      -0.085  -0.419  -5.094  0.00  0.00    +0.277 C 
ENDBRANCH   6  32
TORSDOF 8
