REMARK  Name = ZINC06193800
REMARK  10 active torsions:
REMARK  status: ('A' for Active; 'I' for Inactive)
REMARK    1  A    between atoms: C_1  and  C_2
REMARK    2  A    between atoms: C_2  and  N_63
REMARK    3  A    between atoms: C_3  and  C_4
REMARK    4  A    between atoms: C_3  and  N_63
REMARK    5  A    between atoms: C_10  and  C_12
REMARK    6  A    between atoms: C_10  and  C_25
REMARK    7  A    between atoms: C_10  and  N_63
REMARK    8  A    between atoms: C_18  and  C_24
REMARK    9  A    between atoms: N_29  and  C_30
REMARK   10  A    between atoms: C_30  and  C_31
REMARK                            x       y       z     vdW  Elec       q    Type
REMARK                         _______ _______ _______ _____ _____    ______ ____
ROOT
ATOM      1  C   UNL     1       0.237  -2.109   5.596  0.00  0.00    +0.039 C 
ENDROOT
BRANCH   1   2
ATOM      2  C   UNL     1      -0.032  -1.026   4.584  0.00  0.00    +0.011 A 
ATOM      3  C   UNL     1      -0.262  -1.353   3.288  0.00  0.00    +0.017 A 
ATOM      4  C   UNL     1      -0.520  -0.276   2.330  0.00  0.00    -0.001 A 
ATOM      5  C   UNL     1      -0.764  -0.552   0.981  0.00  0.00    +0.010 A 
ATOM      6  C   UNL     1      -1.001   0.475   0.112  0.00  0.00    +0.001 A 
ATOM      7  C   UNL     1      -1.008   1.790   0.558  0.00  0.00    +0.005 A 
ATOM      8  C   UNL     1      -0.766   2.085   1.882  0.00  0.00    -0.026 A 
ATOM      9  C   UNL     1      -0.521   1.056   2.785  0.00  0.00    +0.052 A 
ATOM     10  N   UNL     1      -0.280   1.322   4.116  0.00  0.00    -0.322 N 
ATOM     11  H   UNL     1      -0.280   2.269   4.437  0.00  0.00    +0.169 HD
ATOM     12  C   UNL     1      -0.044   0.327   4.989  0.00  0.00    +0.251 A 
ATOM     13  O   UNL     1       0.164   0.599   6.158  0.00  0.00    -0.268 OA
ATOM     14  C   UNL     1      -0.771   3.518   2.351  0.00  0.00    +0.046 C 
ENDBRANCH   1   2
BRANCH   1  15
ATOM     15  C   UNL     1      -0.835  -2.086   6.654  0.00  0.00    +0.143 A 
ATOM     16  N   UNL     1      -0.955  -1.216   7.628  0.00  0.00    -0.115 NA
ATOM     17  N   UNL     1      -1.996  -1.532   8.318  0.00  0.00    -0.023 NA
ATOM     18  N   UNL     1      -2.539  -2.586   7.815  0.00  0.00    -0.044 NA
ATOM     19  N   UNL     1      -1.852  -2.958   6.788  0.00  0.00    -0.226 N 
BRANCH  19  20
ATOM     20  C   UNL     1      -2.127  -4.112   5.929  0.00  0.00    +0.182 C 
BRANCH  20  21
ATOM     21  C   UNL     1      -1.522  -5.349   6.541  0.00  0.00    -0.026 A 
ATOM     22  C   UNL     1      -0.229  -5.717   6.220  0.00  0.00    +0.008 A 
ATOM     23  C   UNL     1       0.329  -6.849   6.784  0.00  0.00    +0.038 A 
ATOM     24  C   UNL     1      -0.412  -7.620   7.663  0.00  0.00    +0.123 A 
ATOM     25  C   UNL     1      -1.710  -7.253   7.980  0.00  0.00    +0.038 A 
ATOM     26  C   UNL     1      -2.263  -6.118   7.419  0.00  0.00    +0.008 A 
ATOM     27  F   UNL     1       0.130  -8.729   8.212  0.00  0.00    -0.205 F 
ENDBRANCH  20  21
ENDBRANCH  19  20
ENDBRANCH   1  15
BRANCH   1  28
ATOM     28  N   UNL     1       1.546  -1.856   6.234  0.00  0.00    +0.392 N 
ATOM     29  H   UNL     1       1.511  -0.953   6.721  0.00  0.00    -0.080 HD
BRANCH  28  31
ATOM     30  C   UNL     1       2.587  -0.427   4.548  0.00  0.00    -0.017 C 
ATOM     31  C   UNL     1       2.608  -1.807   5.207  0.00  0.00    -0.080 C 
ENDBRANCH  28  31
BRANCH  28  32
ATOM     32  C   UNL     1       1.843  -2.920   7.217  0.00  0.00    -0.042 C 
BRANCH  32  33
ATOM     33  C   UNL     1       1.085  -2.628   8.486  0.00  0.00    -0.064 A 
ATOM     34  C   UNL     1       1.450  -1.556   9.278  0.00  0.00    +0.002 A 
ATOM     35  C   UNL     1       0.752  -1.285  10.440  0.00  0.00    +0.000 A 
ATOM     36  C   UNL     1      -0.305  -2.093  10.816  0.00  0.00    +0.000 A 
ATOM     37  C   UNL     1      -0.666  -3.169  10.027  0.00  0.00    +0.000 A 
ATOM     38  C   UNL     1       0.028  -3.436   8.862  0.00  0.00    +0.002 A 
ENDBRANCH  32  33
ENDBRANCH  28  32
ENDBRANCH   1  28
TORSDOF 8
