REMARK  Name = ZINC06786569
REMARK  5 active torsions:
REMARK  status: ('A' for Active; 'I' for Inactive)
REMARK    1  A    between atoms: C_1  and  N_44
REMARK    2  A    between atoms: C_2  and  C_3
REMARK    3  A    between atoms: C_2  and  N_44
REMARK    4  A    between atoms: C_10  and  C_11
REMARK    5  A    between atoms: C_10  and  N_44
REMARK                            x       y       z     vdW  Elec       q    Type
REMARK                         _______ _______ _______ _____ _____    ______ ____
ROOT
ATOM      1  C   UNL     1       3.577   3.617  -0.708  0.00  0.00    -0.046 A 
ATOM      2  C   UNL     1       4.625   4.492  -0.746  0.00  0.00    +0.094 A 
ATOM      3  C   UNL     1       4.495   5.765  -0.162  0.00  0.00    +0.337 A 
ATOM      4  O   UNL     1       5.459   6.504  -0.094  0.00  0.00    -0.245 OA
ATOM      5  O   UNL     1       3.304   6.172   0.306  0.00  0.00    -0.422 OA
ATOM      6  C   UNL     1       2.258   5.320   0.377  0.00  0.00    +0.140 A 
ATOM      7  C   UNL     1       2.419   3.970   0.017  0.00  0.00    +0.027 A 
ATOM      8  C   UNL     1       1.337   3.045   0.344  0.00  0.00    -0.007 A 
ATOM      9  C   UNL     1       1.467   1.656   0.349  0.00  0.00    +0.009 A 
ATOM     10  C   UNL     1       0.372   0.857   0.517  0.00  0.00    +0.001 A 
ATOM     11  C   UNL     1      -0.897   1.407   0.664  0.00  0.00    +0.001 A 
ATOM     12  C   UNL     1      -1.059   2.758   0.725  0.00  0.00    +0.008 A 
ATOM     13  C   UNL     1       0.065   3.595   0.658  0.00  0.00    -0.017 A 
ATOM     14  C   UNL     1      -0.046   4.968   0.951  0.00  0.00    +0.012 A 
ATOM     15  C   UNL     1       1.029   5.785   0.852  0.00  0.00    +0.047 A 
ENDROOT
BRANCH   1  16
ATOM     16  C   UNL     1       3.689   2.347  -1.513  0.00  0.00    -0.042 C 
BRANCH  16  18
ATOM     17  C   UNL     1       3.630   3.519  -3.631  0.00  0.00    -0.095 C 
ATOM     18  N   UNL     1       2.949   2.520  -2.781  0.00  0.00    +0.383 N 
ATOM     19  H   UNL     1       2.000   2.852  -2.571  0.00  0.00    -0.081 HD
BRANCH  18  20
ATOM     20  C   UNL     1       2.858   1.228  -3.493  0.00  0.00    -0.041 C 
BRANCH  20  21
ATOM     21  C   UNL     1       1.778   0.397  -2.849  0.00  0.00    -0.046 A 
ATOM     22  C   UNL     1       2.116  -0.693  -2.070  0.00  0.00    +0.003 A 
ATOM     23  C   UNL     1       1.125  -1.453  -1.477  0.00  0.00    +0.000 A 
ATOM     24  C   UNL     1      -0.204  -1.128  -1.669  0.00  0.00    +0.001 A 
ATOM     25  C   UNL     1      -0.544  -0.041  -2.452  0.00  0.00    +0.020 A 
ATOM     26  C   UNL     1       0.447   0.723  -3.043  0.00  0.00    +0.042 A 
ATOM     27 CL   UNL     1       0.022   2.088  -4.027  0.00  0.00    -0.083 Cl
ENDBRANCH  20  21
ENDBRANCH  18  20
ENDBRANCH  16  18
ENDBRANCH   1  16
TORSDOF 4
