REMARK  Name = ZINC03175176
REMARK  7 active torsions:
REMARK  status: ('A' for Active; 'I' for Inactive)
REMARK    1  A    between atoms: C_1  and  C_2
REMARK    2  A    between atoms: C_2  and  C_3
REMARK    3  A    between atoms: C_3  and  C_5
REMARK    4  A    between atoms: C_3  and  O_18
REMARK    5  A    between atoms: N_7  and  N_8
REMARK    6  A    between atoms: C_9  and  C_10
REMARK    7  A    between atoms: O_18  and  C_19
REMARK                            x       y       z     vdW  Elec       q    Type
REMARK                         _______ _______ _______ _____ _____    ______ ____
ROOT
ATOM      1  C   UNL     1       3.322   7.412  -0.103  0.00  0.00    +0.260 C 
ENDROOT
BRANCH   1   2
ATOM      2  C   UNL     1       4.470   7.955  -0.916  0.00  0.00    +0.273 C 
ATOM      3  O   UNL     1       5.307   7.199  -1.363  0.00  0.00    -0.270 OA
ATOM      4  N   UNL     1       4.566   9.279  -1.147  0.00  0.00    -0.204 N 
ATOM      5  H   UNL     1       3.896   9.883  -0.789  0.00  0.00    +0.177 HD
BRANCH   4   6
ATOM      6  N   UNL     1       5.632   9.783  -1.902  0.00  0.00    -0.188 NA
ATOM      7  C   UNL     1       5.724  11.059  -2.124  0.00  0.00    +0.141 C 
BRANCH   7   8
ATOM      8  C   UNL     1       6.847  11.589  -2.919  0.00  0.00    +0.031 A 
ATOM      9  C   UNL     1       7.817  10.722  -3.431  0.00  0.00    +0.051 A 
ATOM     10  C   UNL     1       8.862  11.226  -4.179  0.00  0.00    +0.021 A 
ATOM     11  C   UNL     1       8.957  12.586  -4.414  0.00  0.00    +0.003 A 
ATOM     12  C   UNL     1       8.004  13.451  -3.906  0.00  0.00    +0.021 A 
ATOM     13  C   UNL     1       6.950  12.962  -3.160  0.00  0.00    +0.051 A 
ATOM     14 CL   UNL     1       5.756  14.050  -2.523  0.00  0.00    -0.083 Cl
ATOM     15 CL   UNL     1       7.704   9.016  -3.132  0.00  0.00    -0.083 Cl
ENDBRANCH   7   8
ENDBRANCH   4   6
ENDBRANCH   1   2
BRANCH   1  17
ATOM     16  C   UNL     1       2.119   7.576   2.080  0.00  0.00    +0.008 C 
ATOM     17  C   UNL     1       3.352   8.030   1.296  0.00  0.00    +0.051 C 
ENDBRANCH   1  17
BRANCH   1  18
ATOM     18  O   UNL     1       3.441   5.992  -0.000  0.00  0.00    -0.478 OA
BRANCH  18  19
ATOM     19  C   UNL     1       2.293   5.269  -0.080  0.00  0.00    +0.136 A 
ATOM     20  C   UNL     1       1.063   5.932  -0.134  0.00  0.00    +0.047 A 
ATOM     21  C   UNL     1      -0.103   5.237  -0.214  0.00  0.00    +0.012 A 
ATOM     22  C   UNL     1      -0.077   3.831  -0.242  0.00  0.00    -0.017 A 
ATOM     23  C   UNL     1      -1.263   3.082  -0.324  0.00  0.00    +0.008 A 
ATOM     24  C   UNL     1      -1.200   1.723  -0.356  0.00  0.00    +0.001 A 
ATOM     25  C   UNL     1       0.024   1.059  -0.297  0.00  0.00    +0.001 A 
ATOM     26  C   UNL     1       1.193   1.752  -0.217  0.00  0.00    +0.010 A 
ATOM     27  C   UNL     1       1.169   3.157  -0.188  0.00  0.00    -0.000 A 
ATOM     28  C   UNL     1       2.355   3.905  -0.106  0.00  0.00    +0.067 A 
ATOM     29 BR   UNL     1       4.029   3.027  -0.031  0.00  0.00    -0.046 Br
ENDBRANCH  18  19
ENDBRANCH   1  18
TORSDOF 6
