REMARK  Name = ZINC58949087
REMARK  9 active torsions:
REMARK  status: ('A' for Active; 'I' for Inactive)
REMARK    1  A    between atoms: C_1  and  C_2
REMARK    2  A    between atoms: C_3  and  C_27
REMARK    3  A    between atoms: C_4  and  C_13
REMARK    4  A    between atoms: C_6  and  C_10
REMARK    5  A    between atoms: C_7  and  N_9
REMARK    6  A    between atoms: C_16  and  O_19
REMARK    7  A    between atoms: O_19  and  C_20
REMARK    8  A    between atoms: C_20  and  C_21
REMARK    9  A    between atoms: C_27  and  C_29
REMARK                            x       y       z     vdW  Elec       q    Type
REMARK                         _______ _______ _______ _____ _____    ______ ____
ROOT
ATOM      1  C   UNL     1      -0.142   1.498  -0.047  0.00  0.00    +0.086 C 
ATOM      2  C   UNL     1      -0.057  -0.007  -0.025  0.00  0.00    +0.112 C 
ATOM      3  C   UNL     1      -1.192  -0.723   0.057  0.00  0.00    +0.044 C 
ATOM      4  C   UNL     1      -1.161  -2.227   0.083  0.00  0.00    +0.095 C 
ATOM      5  C   UNL     1       0.180  -2.721  -0.385  0.00  0.00    +0.083 C 
ATOM      6  C   UNL     1       1.247  -1.885  -0.445  0.00  0.00    +0.193 C 
ATOM      7  O   UNL     1       1.148  -0.592  -0.094  0.00  0.00    -0.446 OA
ENDROOT
BRANCH   4   8
ATOM      8  C   UNL     1      -1.406  -2.708   1.490  0.00  0.00    -0.035 A 
ATOM      9  C   UNL     1      -0.548  -2.332   2.507  0.00  0.00    +0.008 A 
ATOM     10  C   UNL     1      -0.770  -2.772   3.798  0.00  0.00    +0.046 A 
ATOM     11  C   UNL     1      -1.855  -3.591   4.073  0.00  0.00    +0.121 A 
ATOM     12  C   UNL     1      -2.715  -3.966   3.051  0.00  0.00    +0.046 A 
ATOM     13  C   UNL     1      -2.492  -3.519   1.763  0.00  0.00    +0.008 A 
BRANCH  11  14
ATOM     14  O   UNL     1      -2.076  -4.025   5.342  0.00  0.00    -0.487 OA
BRANCH  14  15
ATOM     15  C   UNL     1      -3.212  -4.866   5.551  0.00  0.00    +0.264 C 
BRANCH  15  16
ATOM     16  C   UNL     1      -3.295  -5.245   7.008  0.00  0.00    -0.010 A 
ATOM     17  C   UNL     1      -2.653  -6.382   7.463  0.00  0.00    +0.007 A 
ATOM     18  C   UNL     1      -2.728  -6.730   8.799  0.00  0.00    +0.000 A 
ATOM     19  C   UNL     1      -3.445  -5.941   9.679  0.00  0.00    +0.000 A 
ATOM     20  C   UNL     1      -4.086  -4.804   9.224  0.00  0.00    +0.000 A 
ATOM     21  C   UNL     1      -4.007  -4.454   7.889  0.00  0.00    +0.007 A 
ENDBRANCH  15  16
ENDBRANCH  14  15
ENDBRANCH  11  14
ENDBRANCH   4   8
BRANCH   5  22
ATOM     22  C   UNL     1       0.330  -4.066  -0.767  0.00  0.00    +0.243 C 
ATOM     23  O   UNL     1      -0.060  -4.437  -1.860  0.00  0.00    -0.271 OA
ATOM     24  N   UNL     1       0.906  -4.946   0.076  0.00  0.00    -0.325 N 
ATOM     25  H   UNL     1       1.217  -4.651   0.947  0.00  0.00    +0.145 HD
ATOM     26  H   UNL     1       1.009  -5.874  -0.187  0.00  0.00    +0.145 HD
ENDBRANCH   5  22
BRANCH   6  27
ATOM     27  N   UNL     1       2.454  -2.370  -0.876  0.00  0.00    -0.329 N 
ATOM     28  H   UNL     1       2.519  -3.274  -1.220  0.00  0.00    +0.145 HD
ATOM     29  H   UNL     1       3.244  -1.808  -0.837  0.00  0.00    +0.145 HD
ENDBRANCH   6  27
BRANCH   3  30
ATOM     30  C   UNL     1      -2.428  -0.055   0.120  0.00  0.00    +0.160 C 
ATOM     31  O   UNL     1      -2.465   1.159   0.100  0.00  0.00    -0.293 OA
ATOM     32  C   UNL     1      -3.708  -0.846   0.212  0.00  0.00    +0.091 C 
ENDBRANCH   3  30
TORSDOF 7
