REMARK  Name = ZINC59501789
REMARK  10 active torsions:
REMARK  status: ('A' for Active; 'I' for Inactive)
REMARK    1  A    between atoms: C_1  and  O_2
REMARK    2  A    between atoms: O_2  and  C_3
REMARK    3  A    between atoms: C_8  and  O_9
REMARK    4  A    between atoms: O_9  and  C_10
REMARK    5  A    between atoms: C_10  and  C_11
REMARK    6  A    between atoms: C_11  and  N_12
REMARK    7  A    between atoms: C_13  and  C_25
REMARK    8  A    between atoms: N_14  and  N_15
REMARK    9  A    between atoms: N_15  and  C_16
REMARK   10  A    between atoms: C_19  and  N_22
REMARK                            x       y       z     vdW  Elec       q    Type
REMARK                         _______ _______ _______ _____ _____    ______ ____
ROOT
ATOM      1  N   UNL     1      -1.922  -4.734   0.801  0.00  0.00    -0.326 N 
ATOM      2  C   UNL     1      -2.666  -4.923   1.904  0.00  0.00    +0.117 C 
ATOM      3  N   UNL     1      -2.078  -5.360   3.059  0.00  0.00    -0.293 N 
ATOM      4  H   UNL     1      -0.958  -4.831   0.844  0.00  0.00    +0.148 HD
ATOM      5  H   UNL     1      -2.622  -5.540   3.842  0.00  0.00    +0.186 HD
ENDROOT
BRANCH   2   6
ATOM      6  C   UNL     1      -4.105  -4.663   1.869  0.00  0.00    +0.014 A 
ATOM      7  C   UNL     1      -4.592  -3.448   1.353  0.00  0.00    +0.011 A 
ATOM      8  C   UNL     1      -5.943  -3.214   1.324  0.00  0.00    +0.001 A 
ATOM      9  C   UNL     1      -6.828  -4.170   1.802  0.00  0.00    +0.000 A 
ATOM     10  C   UNL     1      -6.358  -5.371   2.313  0.00  0.00    +0.001 A 
ATOM     11  C   UNL     1      -5.011  -5.628   2.346  0.00  0.00    +0.011 A 
ENDBRANCH   2   6
BRANCH   3  12
ATOM     12  N   UNL     1      -0.801  -5.532   3.107  0.00  0.00    -0.259 N 
ATOM     13  H   UNL     1      -0.251  -5.305   2.341  0.00  0.00    +0.172 HD
BRANCH  12  14
ATOM     14  C   UNL     1      -0.219  -6.036   4.242  0.00  0.00    +0.046 A 
ATOM     15  C   UNL     1      -1.010  -6.370   5.349  0.00  0.00    +0.027 A 
ATOM     16  C   UNL     1      -0.418  -6.876   6.485  0.00  0.00    +0.034 A 
ATOM     17  C   UNL     1       0.956  -7.054   6.535  0.00  0.00    +0.126 A 
ATOM     18  C   UNL     1       1.745  -6.725   5.444  0.00  0.00    +0.034 A 
ATOM     19  C   UNL     1       1.168  -6.224   4.298  0.00  0.00    +0.027 A 
BRANCH  17  20
ATOM     20  N   UNL     1       1.584  -7.597   7.761  0.00  0.00    +0.056 N 
ATOM     21  O   UNL     1       0.837  -7.910   8.800  0.00  0.00    -0.126 OA
ATOM     22  O   UNL     1       2.889  -7.767   7.813  0.00  0.00    -0.126 OA
ENDBRANCH  17  20
ENDBRANCH  12  14
ENDBRANCH   3  12
BRANCH   1  23
ATOM     23  C   UNL     1      -2.567  -4.382  -0.467  0.00  0.00    +0.144 C 
BRANCH  23  24
ATOM     24  C   UNL     1      -1.522  -4.364  -1.583  0.00  0.00    +0.248 C 
BRANCH  24  25
ATOM     25  O   UNL     1      -1.007  -5.684  -1.775  0.00  0.00    -0.487 OA
BRANCH  25  31
ATOM     26  C   UNL     1       0.484  -7.101  -2.979  0.00  0.00    +0.161 A 
ATOM     27  C   UNL     1       1.444  -7.260  -3.966  0.00  0.00    +0.049 A 
ATOM     28  C   UNL     1       1.862  -6.169  -4.705  0.00  0.00    +0.004 A 
ATOM     29  C   UNL     1       1.325  -4.918  -4.462  0.00  0.00    +0.004 A 
ATOM     30  C   UNL     1       0.367  -4.753  -3.479  0.00  0.00    +0.049 A 
ATOM     31  C   UNL     1      -0.061  -5.843  -2.739  0.00  0.00    +0.162 A 
BRANCH  26  33
ATOM     32  C   UNL     1       0.674  -9.433  -2.553  0.00  0.00    +0.277 C 
ATOM     33  O   UNL     1       0.071  -8.173  -2.252  0.00  0.00    -0.491 OA
ENDBRANCH  26  33
ENDBRANCH  25  31
ENDBRANCH  24  25
ENDBRANCH  23  24
ENDBRANCH   1  23
TORSDOF 9
