REMARK  Name = ZINC18180469
REMARK  10 active torsions:
REMARK  status: ('A' for Active; 'I' for Inactive)
REMARK    1  A    between atoms: C_1  and  C_2
REMARK    2  A    between atoms: C_2  and  C_3
REMARK    3  A    between atoms: C_3  and  C_4
REMARK    4  A    between atoms: C_4  and  N_5
REMARK    5  A    between atoms: C_6  and  C_8
REMARK    6  A    between atoms: C_8  and  S_9
REMARK    7  A    between atoms: S_9  and  C_10
REMARK    8  A    between atoms: C_14  and  C_18
REMARK    9  A    between atoms: N_21  and  C_22
REMARK   10  A    between atoms: C_27  and  C_28
REMARK                            x       y       z     vdW  Elec       q    Type
REMARK                         _______ _______ _______ _____ _____    ______ ____
ROOT
ATOM      1  C   UNL     1       3.140  -6.528  -5.433  0.00  0.00    +0.177 A 
ATOM      2  N   UNL     1       3.562  -5.536  -6.188  0.00  0.00    -0.201 NA
ATOM      3  C   UNL     1       4.172  -5.827  -7.374  0.00  0.00    +0.187 A 
ATOM      4  C   UNL     1       4.163  -7.223  -7.876  0.00  0.00    +0.082 A 
ATOM      5  C   UNL     1       4.822  -7.227  -9.058  0.00  0.00    +0.046 A 
ATOM      6  N   UNL     1       5.226  -5.963  -9.303  0.00  0.00    -0.279 N 
ATOM      7  N   UNL     1       4.817  -5.123  -8.254  0.00  0.00    -0.153 NA
ATOM      8  H   UNL     1       5.723  -5.677 -10.085  0.00  0.00    +0.189 HD
ATOM      9  C   UNL     1       5.062  -8.425  -9.940  0.00  0.00    +0.066 C 
ATOM     10  C   UNL     1       3.497  -8.260  -7.058  0.00  0.00    +0.124 A 
ATOM     11  N   UNL     1       3.120  -9.422  -7.524  0.00  0.00    -0.384 N 
ATOM     12  N   UNL     1       3.319  -7.858  -5.725  0.00  0.00    -0.274 N 
ATOM     13  H   UNL     1       3.273  -9.643  -8.456  0.00  0.00    +0.157 HD
ATOM     14  H   UNL     1       2.687 -10.062  -6.938  0.00  0.00    +0.157 HD
ENDROOT
BRANCH  12  15
ATOM     15  C   UNL     1       3.319  -8.809  -4.696  0.00  0.00    +0.055 A 
ATOM     16  C   UNL     1       2.131  -9.418  -4.311  0.00  0.00    +0.026 A 
ATOM     17  C   UNL     1       2.134 -10.355  -3.297  0.00  0.00    +0.003 A 
ATOM     18  C   UNL     1       3.317 -10.687  -2.664  0.00  0.00    +0.020 A 
ATOM     19  C   UNL     1       4.502 -10.082  -3.044  0.00  0.00    +0.046 A 
ATOM     20  C   UNL     1       4.507  -9.148  -4.063  0.00  0.00    -0.008 A 
ATOM     21  C   UNL     1       5.798  -8.493  -4.481  0.00  0.00    +0.047 C 
ATOM     22 CL   UNL     1       5.986 -10.502  -2.245  0.00  0.00    -0.083 Cl
ENDBRANCH  12  15
BRANCH   1  23
ATOM     23  S   UNL     1       2.294  -6.122  -3.942  0.00  0.00    -0.078 S 
BRANCH  23  24
ATOM     24  C   UNL     1       2.269  -4.308  -3.932  0.00  0.00    +0.173 C 
BRANCH  24  26
ATOM     25  N   UNL     1       1.425  -2.500  -2.470  0.00  0.00    -0.315 N 
ATOM     26  C   UNL     1       1.564  -3.822  -2.692  0.00  0.00    +0.223 C 
ATOM     27  O   UNL     1       1.121  -4.620  -1.894  0.00  0.00    -0.275 OA
ATOM     28  H   UNL     1       1.779  -1.861  -3.109  0.00  0.00    +0.149 HD
BRANCH  25  29
ATOM     29  C   UNL     1       0.739  -2.027  -1.265  0.00  0.00    +0.104 C 
BRANCH  29  30
ATOM     30  C   UNL     1       0.718  -0.497  -1.257  0.00  0.00    +0.018 C 
BRANCH  30  32
ATOM     31  C   UNL     1      -0.019   1.526   0.010  0.00  0.00    +0.004 C 
ATOM     32  C   UNL     1       0.002  -0.004   0.002  0.00  0.00    -0.002 C 
ENDBRANCH  30  32
ENDBRANCH  29  30
ENDBRANCH  25  29
ENDBRANCH  24  26
ENDBRANCH  23  24
ENDBRANCH   1  23
TORSDOF 7
