REMARK  Name = ZINC20101003
REMARK  9 active torsions:
REMARK  status: ('A' for Active; 'I' for Inactive)
REMARK    1  A    between atoms: C_1  and  C_2
REMARK    2  A    between atoms: C_4  and  C_25
REMARK    3  A    between atoms: C_5  and  O_9
REMARK    4  A    between atoms: O_9  and  C_10
REMARK    5  A    between atoms: C_10  and  C_11
REMARK    6  A    between atoms: N_13  and  N_14
REMARK    7  A    between atoms: C_15  and  C_16
REMARK    8  A    between atoms: C_20  and  C_23
REMARK    9  A    between atoms: C_21  and  O_22
REMARK                            x       y       z     vdW  Elec       q    Type
REMARK                         _______ _______ _______ _____ _____    ______ ____
ROOT
ATOM      1  C   UNL     1      -0.035   5.720   1.181  0.00  0.00    +0.270 C 
ATOM      2  O   UNL     1       0.244   6.079   0.056  0.00  0.00    -0.270 OA
ATOM      3  N   UNL     1       0.179   6.545   2.224  0.00  0.00    -0.204 N 
ATOM      4  H   UNL     1      -0.074   6.220   3.244  0.00  0.00    +0.177 HD
ENDROOT
BRANCH   3   5
ATOM      5  N   UNL     1       0.724   7.818   2.011  0.00  0.00    -0.188 NA
ATOM      6  C   UNL     1       1.030   8.572   3.022  0.00  0.00    +0.142 C 
BRANCH   6   7
ATOM      7  C   UNL     1       1.049   8.006   4.383  0.00  0.00    +0.037 A 
ATOM      8  C   UNL     1       1.276   6.641   4.573  0.00  0.00    +0.028 A 
ATOM      9  C   UNL     1       1.292   6.118   5.850  0.00  0.00    +0.019 A 
ATOM     10  C   UNL     1       1.084   6.941   6.944  0.00  0.00    +0.022 A 
ATOM     11  C   UNL     1       0.858   8.293   6.769  0.00  0.00    -0.007 A 
ATOM     12  C   UNL     1       0.844   8.835   5.494  0.00  0.00    +0.128 A 
ATOM     13  C   UNL     1       0.633   9.180   7.966  0.00  0.00    +0.047 C 
ATOM     14 BR   UNL     1       1.599   4.269   6.106  0.00  0.00    -0.050 Br
BRANCH  12  15
ATOM     15  O   UNL     1       0.628  10.165   5.321  0.00  0.00    -0.506 OA
ATOM     16  H   UNL     1       0.468  10.814   6.195  0.00  0.00    +0.292 HD
ENDBRANCH  12  15
ENDBRANCH   6   7
ENDBRANCH   3   5
BRANCH   1  17
ATOM     17  C   UNL     1      -0.621   4.351   1.411  0.00  0.00    +0.326 C 
BRANCH  17  18
ATOM     18  O   UNL     1      -0.751   3.672   0.160  0.00  0.00    -0.481 OA
BRANCH  18  23
ATOM     19  C   UNL     1      -2.893  -1.537   0.286  0.00  0.00    +0.044 C 
ATOM     20  C   UNL     1      -2.319  -0.143   0.252  0.00  0.00    -0.049 A 
ATOM     21  C   UNL     1      -3.159   0.945   0.107  0.00  0.00    +0.010 A 
ATOM     22  C   UNL     1      -2.636   2.224   0.076  0.00  0.00    -0.007 A 
ATOM     23  C   UNL     1      -1.267   2.415   0.191  0.00  0.00    +0.138 A 
ATOM     24  C   UNL     1      -0.426   1.321   0.336  0.00  0.00    +0.060 A 
ATOM     25  C   UNL     1      -0.954   0.044   0.366  0.00  0.00    +0.022 A 
ATOM     26 BR   UNL     1       1.441   1.577   0.493  0.00  0.00    -0.047 Br
ATOM     27  C   UNL     1      -3.553   3.409  -0.088  0.00  0.00    +0.047 C 
ENDBRANCH  18  23
ENDBRANCH  17  18
ENDBRANCH   1  17
TORSDOF 6
