REMARK  Name = ZINC20292147
REMARK  7 active torsions:
REMARK  status: ('A' for Active; 'I' for Inactive)
REMARK    1  A    between atoms: C_3  and  C_8
REMARK    2  A    between atoms: N_9  and  N_10
REMARK    3  A    between atoms: C_14  and  S_17
REMARK    4  A    between atoms: N_15  and  N_16
REMARK    5  A    between atoms: S_17  and  C_18
REMARK    6  A    between atoms: C_18  and  C_19
REMARK    7  A    between atoms: C_19  and  C_21
REMARK                            x       y       z     vdW  Elec       q    Type
REMARK                         _______ _______ _______ _____ _____    ______ ____
ROOT
ATOM      1  N   UNL     1       5.991   2.237  -0.044  0.00  0.00    -0.204 N 
ATOM      2  C   UNL     1       7.201   1.557  -0.059  0.00  0.00    +0.254 A 
ATOM      3  N   UNL     1       7.352   0.255  -0.073  0.00  0.00    -0.109 NA
ATOM      4  N   UNL     1       8.726  -0.021  -0.086  0.00  0.00    -0.119 NA
ATOM      5  C   UNL     1       9.369   1.123  -0.080  0.00  0.00    +0.210 A 
ATOM      6  N   UNL     1       8.443   2.127  -0.069  0.00  0.00    -0.211 N 
ATOM      7  H   UNL     1       5.980   3.207  -0.039  0.00  0.00    +0.177 HD
ENDROOT
BRANCH   6   8
ATOM      8  N   UNL     1       8.712   3.466  -0.064  0.00  0.00    -0.294 N 
ATOM      9  H   UNL     1       8.792   3.816   0.879  0.00  0.00    +0.163 HD
ATOM     10  H   UNL     1       9.544   3.670  -0.597  0.00  0.00    +0.163 HD
ENDBRANCH   6   8
BRANCH   1  12
ATOM     11  C   UNL     1       3.654   2.159  -0.022  0.00  0.00    +0.138 C 
ATOM     12  N   UNL     1       4.786   1.522  -0.036  0.00  0.00    -0.188 NA
BRANCH  11  15
ATOM     13  C   UNL     1      -0.017   1.379   0.010  0.00  0.00    +0.002 A 
ATOM     14  C   UNL     1       1.166   2.089   0.002  0.00  0.00    +0.009 A 
ATOM     15  C   UNL     1       2.386   1.407  -0.013  0.00  0.00    -0.004 A 
ATOM     16  C   UNL     1       2.398   0.010  -0.021  0.00  0.00    +0.024 A 
ATOM     17  C   UNL     1       1.207  -0.687  -0.013  0.00  0.00    +0.018 A 
ATOM     18  C   UNL     1       0.002  -0.004   0.002  0.00  0.00    +0.015 A 
ATOM     19 BR   UNL     1       1.220  -2.578  -0.024  0.00  0.00    -0.050 Br
ENDBRANCH  11  15
ENDBRANCH   1  12
BRANCH   5  20
ATOM     20  S   UNL     1      11.119   1.327  -0.092  0.00  0.00    -0.076 S 
BRANCH  20  21
ATOM     21  C   UNL     1      11.759  -0.370  -0.114  0.00  0.00    +0.157 C 
BRANCH  21  22
ATOM     22  C   UNL     1      13.265  -0.339  -0.126  0.00  0.00    +0.173 C 
ATOM     23  O   UNL     1      13.850   0.724  -0.119  0.00  0.00    -0.291 OA
BRANCH  22  24
ATOM     24  C   UNL     1      14.027  -1.597  -0.144  0.00  0.00    +0.018 A 
ATOM     25  C   UNL     1      13.356  -2.825  -0.157  0.00  0.00    +0.012 A 
ATOM     26  C   UNL     1      14.077  -3.999  -0.175  0.00  0.00    +0.016 A 
ATOM     27  C   UNL     1      15.462  -3.967  -0.180  0.00  0.00    +0.018 A 
ATOM     28  C   UNL     1      16.133  -2.755  -0.167  0.00  0.00    +0.016 A 
ATOM     29  C   UNL     1      15.426  -1.572  -0.155  0.00  0.00    +0.012 A 
ATOM     30 BR   UNL     1      16.441  -5.585  -0.203  0.00  0.00    -0.050 Br
ENDBRANCH  22  24
ENDBRANCH  21  22
ENDBRANCH  20  21
ENDBRANCH   5  20
TORSDOF 7
