REMARK  Name = ZINC22078646
REMARK  5 active torsions:
REMARK  status: ('A' for Active; 'I' for Inactive)
REMARK    1  A    between atoms: C_1  and  N_2
REMARK    2  A    between atoms: C_13  and  C_16
REMARK    3  A    between atoms: C_19  and  C_21
REMARK    4  A    between atoms: C_24  and  O_28
REMARK    5  A    between atoms: O_28  and  C_29
REMARK                            x       y       z     vdW  Elec       q    Type
REMARK                         _______ _______ _______ _____ _____    ______ ____
ROOT
ATOM      1  C   UNL     1      -6.646   0.259  -0.839  0.00  0.00    -0.096 C 
ATOM      2  N   UNL     1      -5.238   0.679  -0.822  0.00  0.00    +0.381 N 
ATOM      3  C   UNL     1      -4.407  -0.292  -0.096  0.00  0.00    -0.074 C 
ATOM      4  C   UNL     1      -2.926  -0.050  -0.402  0.00  0.00    +0.018 C 
ATOM      5  C   UNL     1      -2.624   1.424  -0.154  0.00  0.00    -0.027 A 
ATOM      6  C   UNL     1      -3.636   2.320  -0.089  0.00  0.00    -0.021 A 
ATOM      7  S   UNL     1      -2.847   3.879   0.206  0.00  0.00    -0.080 S 
ATOM      8  C   UNL     1      -1.218   3.353   0.237  0.00  0.00    +0.080 A 
ATOM      9  C   UNL     1      -1.289   1.967   0.019  0.00  0.00    +0.068 A 
ATOM     10  C   UNL     1      -0.014   1.213   0.009  0.00  0.00    +0.248 C 
ATOM     11  O   UNL     1       0.002  -0.004   0.002  0.00  0.00    -0.270 OA
ATOM     12  N   UNL     1       1.128   1.931   0.002  0.00  0.00    -0.287 N 
ATOM     13  C   UNL     1       1.171   3.381  -0.152  0.00  0.00    +0.227 C 
ATOM     14  N   UNL     1      -0.032   4.017   0.415  0.00  0.00    -0.314 N 
ATOM     15  C   UNL     1      -5.095   2.026  -0.239  0.00  0.00    -0.036 C 
ATOM     16  H   UNL     1       2.063   1.363   0.121  0.00  0.00    +0.151 HD
ATOM     17  H   UNL     1       0.051   4.976   0.948  0.00  0.00    +0.149 HD
ATOM     18  H   UNL     1      -4.888   0.714  -1.865  0.00  0.00    -0.082 HD
ENDROOT
BRANCH  13  19
ATOM     19  C   UNL     1       1.262   3.719  -1.618  0.00  0.00    +0.144 A 
ATOM     20  C   UNL     1       1.850   2.962  -2.564  0.00  0.00    +0.049 A 
ATOM     21  C   UNL     1       1.704   3.644  -3.789  0.00  0.00    +0.050 A 
ATOM     22  C   UNL     1       1.036   4.796  -3.518  0.00  0.00    +0.135 A 
ATOM     23  O   UNL     1       0.774   4.829  -2.198  0.00  0.00    -0.456 OA
BRANCH  22  24
ATOM     24  C   UNL     1       0.663   5.834  -4.503  0.00  0.00    +0.019 A 
ATOM     25  C   UNL     1      -0.026   6.976  -4.089  0.00  0.00    +0.015 A 
ATOM     26  C   UNL     1      -0.372   7.942  -5.009  0.00  0.00    +0.048 A 
ATOM     27  C   UNL     1      -0.037   7.781  -6.347  0.00  0.00    +0.138 A 
ATOM     28  C   UNL     1       0.647   6.646  -6.764  0.00  0.00    +0.083 A 
ATOM     29  C   UNL     1       1.003   5.678  -5.847  0.00  0.00    +0.035 A 
ATOM     30 CL   UNL     1       1.063   6.450  -8.438  0.00  0.00    -0.080 Cl
BRANCH  27  31
ATOM     31  O   UNL     1      -0.381   8.735  -7.251  0.00  0.00    -0.494 OA
ATOM     32  C   UNL     1      -1.084   9.876  -6.755  0.00  0.00    +0.277 C 
ENDBRANCH  27  31
ENDBRANCH  22  24
ENDBRANCH  13  19
TORSDOF 3
