REMARK  Name = ZINC01324184
REMARK  7 active torsions:
REMARK  status: ('A' for Active; 'I' for Inactive)
REMARK    1  A    between atoms: C_1  and  C_2
REMARK    2  A    between atoms: C_10  and  S_14
REMARK    3  A    between atoms: C_11  and  C_12
REMARK    4  A    between atoms: S_14  and  C_15
REMARK    5  A    between atoms: C_20  and  N_21
REMARK    6  A    between atoms: N_21  and  S_22
REMARK    7  A    between atoms: S_22  and  C_25
REMARK                            x       y       z     vdW  Elec       q    Type
REMARK                         _______ _______ _______ _____ _____    ______ ____
ROOT
ATOM      1  C   UNL     1      -3.911  -1.595   0.095  0.00  0.00    +0.037 A 
ATOM      2  C   UNL     1      -3.537  -0.263   0.003  0.00  0.00    +0.017 A 
ATOM      3  C   UNL     1      -4.503   0.720  -0.101  0.00  0.00    +0.001 A 
ATOM      4  C   UNL     1      -5.843   0.380  -0.114  0.00  0.00    +0.002 A 
ATOM      5  C   UNL     1      -6.225  -0.946  -0.023  0.00  0.00    +0.025 A 
ATOM      6  C   UNL     1      -5.263  -1.939   0.076  0.00  0.00    +0.062 A 
ENDROOT
BRANCH   6   7
ATOM      7  N   UNL     1      -5.647  -3.282   0.163  0.00  0.00    -0.215 N 
ATOM      8  H   UNL     1      -5.135  -3.899   0.710  0.00  0.00    +0.174 HD
BRANCH   7   9
ATOM      9  S   UNL     1      -6.975  -3.819  -0.668  0.00  0.00    +0.072 S 
ATOM     10  O   UNL     1      -7.025  -5.228  -0.487  0.00  0.00    -0.150 OA
ATOM     11  O   UNL     1      -8.052  -2.966  -0.307  0.00  0.00    -0.150 OA
BRANCH   9  12
ATOM     12  C   UNL     1      -6.665  -3.542  -2.380  0.00  0.00    +0.108 A 
ATOM     13  C   UNL     1      -7.042  -2.348  -2.966  0.00  0.00    +0.029 A 
ATOM     14  C   UNL     1      -6.795  -2.128  -4.309  0.00  0.00    +0.002 A 
ATOM     15  C   UNL     1      -6.179  -3.107  -5.067  0.00  0.00    +0.000 A 
ATOM     16  C   UNL     1      -5.807  -4.303  -4.482  0.00  0.00    +0.002 A 
ATOM     17  C   UNL     1      -6.050  -4.520  -3.139  0.00  0.00    +0.029 A 
ENDBRANCH   9  12
ENDBRANCH   7   9
ENDBRANCH   6   7
BRANCH   1  18
ATOM     18  S   UNL     1      -2.682  -2.851   0.227  0.00  0.00    -0.067 S 
BRANCH  18  28
ATOM     19  C   UNL     1      -1.365  -5.722   4.440  0.00  0.00    +0.046 C 
ATOM     20  C   UNL     1      -2.155  -4.591   3.832  0.00  0.00    -0.021 A 
ATOM     21  C   UNL     1      -3.018  -3.807   4.619  0.00  0.00    +0.005 A 
ATOM     22  C   UNL     1      -3.168  -4.052   5.995  0.00  0.00    +0.010 A 
ATOM     23  C   UNL     1      -4.011  -3.274   6.729  0.00  0.00    +0.001 A 
ATOM     24  C   UNL     1      -4.727  -2.238   6.134  0.00  0.00    +0.002 A 
ATOM     25  C   UNL     1      -4.605  -1.973   4.804  0.00  0.00    +0.028 A 
ATOM     26  C   UNL     1      -3.745  -2.753   4.012  0.00  0.00    +0.073 A 
ATOM     27  N   UNL     1      -3.611  -2.507   2.703  0.00  0.00    -0.239 NA
ATOM     28  C   UNL     1      -2.811  -3.226   1.944  0.00  0.00    +0.120 A 
ATOM     29  C   UNL     1      -2.053  -4.295   2.480  0.00  0.00    +0.087 A 
BRANCH  29  30
ATOM     30  C   UNL     1      -1.189  -5.063   1.635  0.00  0.00    +0.102 C 
ATOM     31  N   UNL     1      -0.503  -5.673   0.965  0.00  0.00    -0.191 NA
ENDBRANCH  29  30
ENDBRANCH  18  28
ENDBRANCH   1  18
TORSDOF 6
