REMARK  Name = ZINC39526393
REMARK  7 active torsions:
REMARK  status: ('A' for Active; 'I' for Inactive)
REMARK    1  A    between atoms: C_1  and  C_2
REMARK    2  A    between atoms: C_2  and  O_3
REMARK    3  A    between atoms: O_3  and  N_4
REMARK    4  A    between atoms: C_5  and  C_24
REMARK    5  A    between atoms: C_14  and  C_17
REMARK    6  A    between atoms: C_17  and  C_18
REMARK    7  A    between atoms: C_29  and  O_30
REMARK                            x       y       z     vdW  Elec       q    Type
REMARK                         _______ _______ _______ _____ _____    ______ ____
ROOT
ATOM      1  N   UNL     1       0.983  -1.494  -1.665  0.00  0.00    -0.174 NA
ATOM      2  C   UNL     1       0.198  -2.484  -2.413  0.00  0.00    +0.118 C 
ATOM      3  C   UNL     1       0.313  -3.849  -1.733  0.00  0.00    +0.026 C 
ATOM      4  C   UNL     1       1.785  -4.268  -1.687  0.00  0.00    +0.004 C 
ATOM      5  C   UNL     1       2.589  -3.197  -0.943  0.00  0.00    +0.025 C 
ATOM      6  C   UNL     1       2.408  -1.850  -1.646  0.00  0.00    +0.048 C 
ATOM      7  C   UNL     1       2.928  -1.950  -3.081  0.00  0.00    +0.025 C 
ATOM      8  C   UNL     1       2.752  -0.602  -3.784  0.00  0.00    +0.002 C 
ATOM      9  C   UNL     1       3.537   0.473  -3.030  0.00  0.00    +0.004 C 
ATOM     10  C   UNL     1       3.015   0.574  -1.595  0.00  0.00    -0.005 C 
ATOM     11  C   UNL     1       3.192  -0.774  -0.893  0.00  0.00    +0.028 C 
ENDROOT
BRANCH   2  12
ATOM     12  C   UNL     1      -1.248  -2.059  -2.444  0.00  0.00    +0.013 A 
ATOM     13  C   UNL     1      -1.834  -1.521  -1.314  0.00  0.00    +0.009 A 
ATOM     14  C   UNL     1      -3.160  -1.132  -1.341  0.00  0.00    +0.001 A 
ATOM     15  C   UNL     1      -3.903  -1.278  -2.498  0.00  0.00    +0.004 A 
ATOM     16  C   UNL     1      -3.321  -1.815  -3.630  0.00  0.00    +0.046 A 
ATOM     17  C   UNL     1      -1.989  -2.202  -3.607  0.00  0.00    +0.122 A 
BRANCH  17  18
ATOM     18  O   UNL     1      -1.413  -2.724  -4.721  0.00  0.00    -0.506 OA
ATOM     19  H   UNL     1      -1.489  -3.686  -4.790  0.00  0.00    +0.292 HD
ENDBRANCH  17  18
ENDBRANCH   2  12
BRANCH   1  20
ATOM     20  O   UNL     1       0.785  -0.150  -2.207  0.00  0.00    -0.296 OA
BRANCH  20  22
ATOM     21  C   UNL     1      -0.254   2.029  -2.081  0.00  0.00    +0.036 C 
ATOM     22  C   UNL     1       0.046   0.721  -1.347  0.00  0.00    +0.182 C 
ENDBRANCH  20  22
ENDBRANCH   1  20
BRANCH  10  23
ATOM     23  C   UNL     1       3.800   1.649  -0.841  0.00  0.00    +0.038 C 
BRANCH  23  24
ATOM     24  C   UNL     1       3.528   2.996  -1.460  0.00  0.00    -0.047 A 
ATOM     25  C   UNL     1       4.325   3.457  -2.491  0.00  0.00    +0.003 A 
ATOM     26  C   UNL     1       4.075   4.692  -3.058  0.00  0.00    +0.000 A 
ATOM     27  C   UNL     1       3.028   5.467  -2.595  0.00  0.00    +0.000 A 
ATOM     28  C   UNL     1       2.230   5.005  -1.565  0.00  0.00    +0.000 A 
ATOM     29  C   UNL     1       2.477   3.768  -1.000  0.00  0.00    +0.003 A 
ENDBRANCH  23  24
ENDBRANCH  10  23
TORSDOF 6
