REMARK  Name = ZINC63122572
REMARK  6 active torsions:
REMARK  status: ('A' for Active; 'I' for Inactive)
REMARK    1  A    between atoms: C_6  and  S_11
REMARK    2  A    between atoms: S_11  and  N_14
REMARK    3  A    between atoms: N_14  and  C_15
REMARK    4  A    between atoms: C_15  and  C_16
REMARK    5  A    between atoms: C_16  and  C_18
REMARK    6  A    between atoms: C_16  and  C_25
REMARK                            x       y       z     vdW  Elec       q    Type
REMARK                         _______ _______ _______ _____ _____    ______ ____
ROOT
ATOM      1  C   UNL     1       5.674  -4.291   3.630  0.00  0.00    +0.064 C 
ENDROOT
BRANCH   1   2
ATOM      2  C   UNL     1       4.898  -5.283   4.457  0.00  0.00    -0.033 C 
ATOM      3  C   UNL     1       5.289  -6.528   4.813  0.00  0.00    -0.000 A 
ATOM      4  C   UNL     1       6.507  -7.302   4.546  0.00  0.00    +0.010 A 
ATOM      5  C   UNL     1       6.613  -8.554   5.047  0.00  0.00    +0.001 A 
ATOM      6  C   UNL     1       5.590  -9.129   5.813  0.00  0.00    +0.002 A 
ATOM      7  C   UNL     1       4.441  -8.481   6.101  0.00  0.00    +0.026 A 
ATOM      8  C   UNL     1       4.224  -7.159   5.625  0.00  0.00    +0.043 A 
ATOM      9  N   UNL     1       3.213  -6.335   5.766  0.00  0.00    -0.380 N 
ATOM     10  C   UNL     1       3.526  -5.086   5.064  0.00  0.00    +0.145 C 
ATOM     11  H   UNL     1       2.397  -6.520   6.257  0.00  0.00    +0.160 HD
ENDBRANCH   1   2
BRANCH   1  12
ATOM     12  C   UNL     1       5.918  -3.044   4.440  0.00  0.00    -0.021 A 
ATOM     13  C   UNL     1       4.848  -2.316   4.926  0.00  0.00    +0.006 A 
ATOM     14  C   UNL     1       5.072  -1.171   5.669  0.00  0.00    +0.000 A 
ATOM     15  C   UNL     1       6.365  -0.755   5.925  0.00  0.00    +0.001 A 
ATOM     16  C   UNL     1       7.435  -1.482   5.439  0.00  0.00    +0.020 A 
ATOM     17  C   UNL     1       7.212  -2.631   4.701  0.00  0.00    +0.045 A 
ATOM     18 CL   UNL     1       8.555  -3.548   4.095  0.00  0.00    -0.083 Cl
ENDBRANCH   1  12
BRANCH   1  19
ATOM     19  C   UNL     1       4.873  -3.937   2.375  0.00  0.00    +0.118 C 
BRANCH  19  20
ATOM     20  N   UNL     1       5.677  -3.066   1.513  0.00  0.00    -0.189 NA
ATOM     21  H   UNL     1       6.469  -2.632   1.866  0.00  0.00    +0.148 HD
BRANCH  20  22
ATOM     22  S   UNL     1       5.231  -2.823  -0.063  0.00  0.00    +0.058 S 
ATOM     23  O   UNL     1       4.984  -4.107  -0.618  0.00  0.00    -0.153 OA
ATOM     24  O   UNL     1       6.181  -1.923  -0.619  0.00  0.00    -0.153 OA
BRANCH  22  30
ATOM     25  C   UNL     1      -0.016   1.357   0.009  0.00  0.00    +0.001 A 
ATOM     26  C   UNL     1       1.169   2.091   0.002  0.00  0.00    +0.001 A 
ATOM     27  C   UNL     1       2.378   1.468  -0.013  0.00  0.00    +0.008 A 
ATOM     28  C   UNL     1       2.438   0.063  -0.021  0.00  0.00    -0.016 A 
ATOM     29  C   UNL     1       3.668  -0.615  -0.036  0.00  0.00    +0.037 A 
ATOM     30  C   UNL     1       3.687  -1.976  -0.043  0.00  0.00    +0.106 A 
ATOM     31  C   UNL     1       2.502  -2.710  -0.036  0.00  0.00    +0.029 A 
ATOM     32  C   UNL     1       1.292  -2.087  -0.021  0.00  0.00    +0.010 A 
ATOM     33  C   UNL     1       1.233  -0.683  -0.013  0.00  0.00    -0.018 A 
ATOM     34  C   UNL     1       0.002  -0.004   0.002  0.00  0.00    +0.008 A 
ENDBRANCH  22  30
ENDBRANCH  20  22
ENDBRANCH  19  20
ENDBRANCH   1  19
TORSDOF 6
