REMARK  Name = ZINC43190572
REMARK  7 active torsions:
REMARK  status: ('A' for Active; 'I' for Inactive)
REMARK    1  A    between atoms: C_3  and  C_8
REMARK    2  A    between atoms: N_10  and  C_11
REMARK    3  A    between atoms: C_11  and  C_12
REMARK    4  A    between atoms: N_14  and  N_15
REMARK    5  A    between atoms: C_16  and  C_17
REMARK    6  A    between atoms: C_20  and  O_24
REMARK    7  A    between atoms: C_22  and  O_23
REMARK                            x       y       z     vdW  Elec       q    Type
REMARK                         _______ _______ _______ _____ _____    ______ ____
ROOT
ATOM      1  C   UNL     1       7.248   1.283  -0.061  0.00  0.00    +0.249 C 
ATOM      2  O   UNL     1       7.041   0.088  -0.065  0.00  0.00    -0.272 OA
ATOM      3  N   UNL     1       8.514   1.747  -0.071  0.00  0.00    -0.206 N 
ATOM      4  H   UNL     1       8.680   2.703  -0.068  0.00  0.00    +0.177 HD
ENDROOT
BRANCH   3   5
ATOM      5  N   UNL     1       9.589   0.849  -0.086  0.00  0.00    -0.188 NA
ATOM      6  C   UNL     1      10.808   1.296  -0.096  0.00  0.00    +0.142 C 
BRANCH   6   7
ATOM      7  C   UNL     1      11.939   0.352  -0.111  0.00  0.00    +0.036 A 
ATOM      8  C   UNL     1      13.252   0.830  -0.116  0.00  0.00    +0.016 A 
ATOM      9  C   UNL     1      14.306  -0.056  -0.130  0.00  0.00    +0.046 A 
ATOM     10  C   UNL     1      14.069  -1.425  -0.140  0.00  0.00    +0.120 A 
ATOM     11  C   UNL     1      12.769  -1.910  -0.136  0.00  0.00    +0.091 A 
ATOM     12  C   UNL     1      11.702  -1.030  -0.116  0.00  0.00    +0.129 A 
BRANCH  12  13
ATOM     13  O   UNL     1      10.429  -1.503  -0.106  0.00  0.00    -0.506 OA
ATOM     14  H   UNL     1      10.052  -1.635  -0.987  0.00  0.00    +0.292 HD
ENDBRANCH  12  13
BRANCH  10  15
ATOM     15  O   UNL     1      15.114  -2.293  -0.155  0.00  0.00    -0.507 OA
ATOM     16  H   UNL     1      15.423  -2.552   0.724  0.00  0.00    +0.292 HD
ENDBRANCH  10  15
ENDBRANCH   6   7
ENDBRANCH   3   5
BRANCH   1  17
ATOM     17  C   UNL     1       6.092   2.249  -0.045  0.00  0.00    +0.202 C 
BRANCH  17  20
ATOM     18  C   UNL     1       3.657   2.162  -0.022  0.00  0.00    +0.244 C 
ATOM     19  O   UNL     1       3.643   3.377  -0.015  0.00  0.00    -0.270 OA
ATOM     20  N   UNL     1       4.832   1.502  -0.036  0.00  0.00    -0.303 N 
ATOM     21  H   UNL     1       4.843   0.532  -0.041  0.00  0.00    +0.150 HD
BRANCH  18  24
ATOM     22  C   UNL     1      -0.017   1.379   0.010  0.00  0.00    +0.002 A 
ATOM     23  C   UNL     1       1.167   2.088   0.002  0.00  0.00    +0.013 A 
ATOM     24  C   UNL     1       2.385   1.408  -0.013  0.00  0.00    +0.038 A 
ATOM     25  C   UNL     1       2.398   0.012  -0.021  0.00  0.00    +0.028 A 
ATOM     26  C   UNL     1       1.207  -0.686  -0.013  0.00  0.00    +0.019 A 
ATOM     27  C   UNL     1       0.002  -0.004   0.002  0.00  0.00    +0.015 A 
ATOM     28 BR   UNL     1       1.221  -2.577  -0.023  0.00  0.00    -0.050 Br
ENDBRANCH  18  24
ENDBRANCH  17  20
ENDBRANCH   1  17
TORSDOF 7
