REMARK  Name = ZINC08442991
REMARK  6 active torsions:
REMARK  status: ('A' for Active; 'I' for Inactive)
REMARK    1  A    between atoms: C_1  and  C_2
REMARK    2  A    between atoms: C_6  and  N_9
REMARK    3  A    between atoms: C_7  and  C_8
REMARK    4  A    between atoms: C_19  and  C_22
REMARK    5  A    between atoms: N_23  and  N_24
REMARK    6  A    between atoms: C_25  and  C_26
REMARK                            x       y       z     vdW  Elec       q    Type
REMARK                         _______ _______ _______ _____ _____    ______ ____
ROOT
ATOM      1  N   UNL     1      -7.189   4.989  -0.140  0.00  0.00    -0.283 N 
ATOM      2  C   UNL     1      -7.232   3.643  -0.450  0.00  0.00    +0.225 A 
ATOM      3  N   UNL     1      -6.108   2.987  -0.723  0.00  0.00    -0.179 NA
ATOM      4  C   UNL     1      -6.150   1.694  -1.026  0.00  0.00    +0.241 A 
ATOM      5  N   UNL     1      -7.315   1.052  -1.045  0.00  0.00    -0.180 NA
ATOM      6  C   UNL     1      -8.438   1.707  -0.766  0.00  0.00    +0.224 A 
ATOM      7  N   UNL     1      -8.396   3.002  -0.469  0.00  0.00    -0.181 NA
ATOM      8  N   UNL     1      -9.647   1.042  -0.786  0.00  0.00    -0.299 N 
ATOM      9  C   UNL     1     -10.593   1.697  -1.698  0.00  0.00    +0.108 C 
ATOM     10  C   UNL     1     -11.962   1.023  -1.585  0.00  0.00    +0.022 C 
ATOM     11  C   UNL     1     -11.826  -0.461  -1.940  0.00  0.00    -0.011 C 
ATOM     12  C   UNL     1     -10.799  -1.109  -1.008  0.00  0.00    +0.022 C 
ATOM     13  C   UNL     1      -9.464  -0.373  -1.137  0.00  0.00    +0.108 C 
ATOM     14  C   UNL     1     -13.180  -1.153  -1.771  0.00  0.00    +0.007 C 
ATOM     15  N   UNL     1      -4.983   1.014  -1.316  0.00  0.00    -0.205 N 
ATOM     16  H   UNL     1      -7.993   5.445   0.152  0.00  0.00    +0.155 HD
ATOM     17  H   UNL     1      -4.146   1.498  -1.391  0.00  0.00    +0.177 HD
ENDROOT
BRANCH   1  23
ATOM     18  C   UNL     1      -4.443   8.884   1.066  0.00  0.00    +0.044 C 
ATOM     19  C   UNL     1      -4.627   7.584   0.326  0.00  0.00    -0.046 A 
ATOM     20  C   UNL     1      -3.605   7.086  -0.461  0.00  0.00    +0.004 A 
ATOM     21  C   UNL     1      -3.769   5.894  -1.142  0.00  0.00    +0.002 A 
ATOM     22  C   UNL     1      -4.957   5.196  -1.037  0.00  0.00    +0.023 A 
ATOM     23  C   UNL     1      -5.985   5.693  -0.248  0.00  0.00    +0.037 A 
ATOM     24  C   UNL     1      -5.818   6.893   0.431  0.00  0.00    -0.026 A 
ATOM     25  C   UNL     1      -6.934   7.439   1.285  0.00  0.00    +0.046 C 
ENDBRANCH   1  23
BRANCH  15  26
ATOM     26  N   UNL     1      -5.008  -0.375  -1.500  0.00  0.00    -0.188 NA
ATOM     27  C   UNL     1      -3.900  -1.026  -1.681  0.00  0.00    +0.138 C 
BRANCH  27  28
ATOM     28  C   UNL     1      -3.934  -2.467  -1.990  0.00  0.00    -0.005 A 
ATOM     29  C   UNL     1      -2.743  -3.170  -2.186  0.00  0.00    +0.012 A 
ATOM     30  C   UNL     1      -2.780  -4.519  -2.469  0.00  0.00    +0.039 A 
ATOM     31  C   UNL     1      -3.997  -5.176  -2.566  0.00  0.00    +0.123 A 
ATOM     32  C   UNL     1      -5.182  -4.483  -2.378  0.00  0.00    +0.039 A 
ATOM     33  C   UNL     1      -5.157  -3.134  -2.095  0.00  0.00    +0.012 A 
ATOM     34  F   UNL     1      -4.028  -6.498  -2.843  0.00  0.00    -0.205 F 
ENDBRANCH  27  28
ENDBRANCH  15  26
TORSDOF 3
