REMARK  Name = ZINC04394492
REMARK  7 active torsions:
REMARK  status: ('A' for Active; 'I' for Inactive)
REMARK    1  A    between atoms: C_1  and  C_2
REMARK    2  A    between atoms: C_3  and  C_15
REMARK    3  A    between atoms: C_4  and  C_7
REMARK    4  A    between atoms: N_16  and  O_17
REMARK    5  A    between atoms: O_17  and  C_18
REMARK    6  A    between atoms: C_18  and  C_20
REMARK    7  A    between atoms: C_23  and  C_25
REMARK                            x       y       z     vdW  Elec       q    Type
REMARK                         _______ _______ _______ _____ _____    ______ ____
ROOT
ATOM      1  C   UNL     1      -0.104   1.490   0.202  0.00  0.00    +0.090 C 
ATOM      2  C   UNL     1      -0.035  -0.012   0.092  0.00  0.00    +0.145 A 
ATOM      3  C   UNL     1      -1.084  -0.869   0.217  0.00  0.00    +0.087 A 
ATOM      4  C   UNL     1      -0.549  -2.226   0.037  0.00  0.00    +0.127 A 
ATOM      5  N   UNL     1       0.738  -2.103  -0.176  0.00  0.00    -0.077 NA
ATOM      6  O   UNL     1       1.068  -0.729  -0.149  0.00  0.00    -0.359 OA
ENDROOT
BRANCH   4   7
ATOM      7  C   UNL     1      -1.319  -3.492   0.087  0.00  0.00    +0.041 A 
ATOM      8  C   UNL     1      -2.362  -3.714  -0.812  0.00  0.00    +0.052 A 
ATOM      9  C   UNL     1      -3.075  -4.896  -0.760  0.00  0.00    +0.021 A 
ATOM     10  C   UNL     1      -2.757  -5.858   0.182  0.00  0.00    +0.003 A 
ATOM     11  C   UNL     1      -1.724  -5.644   1.076  0.00  0.00    +0.021 A 
ATOM     12  C   UNL     1      -1.000  -4.468   1.031  0.00  0.00    +0.052 A 
ATOM     13 CL   UNL     1       0.301  -4.204   2.150  0.00  0.00    -0.083 Cl
ATOM     14 CL   UNL     1      -2.763  -2.508  -1.994  0.00  0.00    -0.083 Cl
ENDBRANCH   4   7
BRANCH   3  15
ATOM     15  C   UNL     1      -2.491  -0.505   0.482  0.00  0.00    +0.169 C 
ATOM     16  N   UNL     1      -3.267  -0.141  -0.500  0.00  0.00    -0.058 NA
ATOM     17  N   UNL     1      -2.986  -0.552   1.773  0.00  0.00    -0.340 N 
ATOM     18  H   UNL     1      -2.409  -0.823   2.504  0.00  0.00    +0.144 HD
ATOM     19  H   UNL     1      -3.910  -0.313   1.947  0.00  0.00    +0.144 HD
BRANCH  16  20
ATOM     20  O   UNL     1      -4.615   0.207  -0.246  0.00  0.00    -0.309 OA
BRANCH  20  21
ATOM     21  C   UNL     1      -5.306   0.565  -1.345  0.00  0.00    +0.385 C 
ATOM     22  O   UNL     1      -4.760   0.567  -2.432  0.00  0.00    -0.241 OA
BRANCH  21  23
ATOM     23  C   UNL     1      -6.720   0.953  -1.232  0.00  0.00    +0.157 A 
ATOM     24  C   UNL     1      -7.462   1.318  -2.325  0.00  0.00    +0.082 A 
ATOM     25  S   UNL     1      -8.963   1.650  -1.648  0.00  0.00    -0.080 S 
ATOM     26  C   UNL     1      -8.614   1.324  -0.039  0.00  0.00    +0.076 A 
ATOM     27  N   UNL     1      -7.360   0.964  -0.058  0.00  0.00    -0.238 NA
ATOM     28  C   UNL     1      -9.535   1.419   1.150  0.00  0.00    +0.073 C 
ENDBRANCH  21  23
ENDBRANCH  20  21
ENDBRANCH  16  20
ENDBRANCH   3  15
TORSDOF 5
