REMARK  Name = ZINC65258914
REMARK  6 active torsions:
REMARK  status: ('A' for Active; 'I' for Inactive)
REMARK    1  A    between atoms: C_1  and  C_2
REMARK    2  A    between atoms: C_2  and  N_3
REMARK    3  A    between atoms: N_6  and  S_9
REMARK    4  A    between atoms: S_9  and  C_12
REMARK    5  A    between atoms: C_15  and  C_17
REMARK    6  A    between atoms: C_19  and  C_23
REMARK                            x       y       z     vdW  Elec       q    Type
REMARK                         _______ _______ _______ _____ _____    ______ ____
ROOT
ATOM      1  C   UNL     1       4.824  -3.378  -1.860  0.00  0.00    +0.258 A 
ATOM      2  C   UNL     1       4.240  -4.419  -1.240  0.00  0.00    +0.071 A 
ATOM      3  C   UNL     1       4.845  -4.529   0.034  0.00  0.00    +0.049 A 
ATOM      4  C   UNL     1       5.763  -3.549   0.115  0.00  0.00    +0.138 A 
ATOM      5  O   UNL     1       5.750  -2.858  -1.037  0.00  0.00    -0.439 OA
ENDROOT
BRANCH   4   6
ATOM      6  C   UNL     1       6.658  -3.276   1.296  0.00  0.00    +0.230 C 
ATOM      7  C   UNL     1       8.072  -3.757   1.021  0.00  0.00    +0.068 C 
ATOM      8  C   UNL     1       8.814  -2.629   1.088  0.00  0.00    +0.145 C 
ATOM      9  N   UNL     1       8.029  -1.563   1.363  0.00  0.00    -0.161 NA
ATOM     10  N   UNL     1       6.828  -1.827   1.496  0.00  0.00    -0.171 NA
BRANCH   7  11
ATOM     11  C   UNL     1       8.527  -5.128   0.747  0.00  0.00    +0.247 C 
ATOM     12  O   UNL     1       8.384  -5.606  -0.362  0.00  0.00    -0.270 OA
ATOM     13  N   UNL     1       9.102  -5.855   1.725  0.00  0.00    -0.293 N 
ATOM     14  C   UNL     1       9.183  -5.343   3.102  0.00  0.00    +0.136 C 
ATOM     15  C   UNL     1       8.647  -6.422   4.051  0.00  0.00    +0.179 C 
ATOM     16  O   UNL     1       9.322  -7.655   3.791  0.00  0.00    -0.377 OA
ATOM     17  C   UNL     1       9.109  -8.173   2.476  0.00  0.00    +0.179 C 
ATOM     18  C   UNL     1       9.663  -7.187   1.448  0.00  0.00    +0.136 C 
ENDBRANCH   7  11
ENDBRANCH   4   6
BRANCH   1  19
ATOM     19  S   UNL     1       4.444  -2.799  -3.480  0.00  0.00    +0.094 S 
ATOM     20  O   UNL     1       3.871  -3.895  -4.179  0.00  0.00    -0.150 OA
ATOM     21  O   UNL     1       5.599  -2.116  -3.949  0.00  0.00    -0.150 OA
BRANCH  19  25
ATOM     22  N   UNL     1       1.363   0.022  -2.137  0.00  0.00    +0.381 N 
ATOM     23  C   UNL     1       2.793   0.290  -1.937  0.00  0.00    -0.061 C 
ATOM     24  C   UNL     1       3.583  -0.238  -3.139  0.00  0.00    +0.091 C 
ATOM     25  N   UNL     1       3.252  -1.660  -3.326  0.00  0.00    -0.177 NA
ATOM     26  C   UNL     1       1.832  -2.040  -3.373  0.00  0.00    +0.091 C 
ATOM     27  C   UNL     1       1.124  -1.427  -2.160  0.00  0.00    -0.061 C 
ATOM     28  H   UNL     1       1.067   0.425  -3.013  0.00  0.00    -0.082 HD
BRANCH  22  30
ATOM     29  C   UNL     1       0.744   2.147  -1.089  0.00  0.00    -0.017 C 
ATOM     30  C   UNL     1       0.596   0.625  -1.039  0.00  0.00    -0.082 C 
ENDBRANCH  22  30
ENDBRANCH  19  25
ENDBRANCH   1  19
TORSDOF 5
