REMARK  Name = ZINC66754919
REMARK  8 active torsions:
REMARK  status: ('A' for Active; 'I' for Inactive)
REMARK    1  A    between atoms: C_1  and  C_2
REMARK    2  A    between atoms: C_6  and  C_29
REMARK    3  A    between atoms: C_7  and  N_8
REMARK    4  A    between atoms: C_9  and  C_11
REMARK    5  A    between atoms: C_11  and  N_12
REMARK    6  A    between atoms: C_13  and  C_15
REMARK    7  A    between atoms: N_20  and  C_22
REMARK    8  A    between atoms: C_25  and  C_28
REMARK                            x       y       z     vdW  Elec       q    Type
REMARK                         _______ _______ _______ _____ _____    ______ ____
ROOT
ATOM      1  N   UNL     1      -0.231  -0.746   5.978  0.00  0.00    -0.306 N 
ATOM      2  C   UNL     1      -0.311  -0.271   7.236  0.00  0.00    +0.218 C 
ATOM      3  O   UNL     1      -0.268   0.924   7.437  0.00  0.00    -0.275 OA
ATOM      4  H   UNL     1      -0.265  -1.702   5.817  0.00  0.00    +0.149 HD
ENDROOT
BRANCH   2   5
ATOM      5  C   UNL     1      -0.455  -1.225   8.394  0.00  0.00    +0.101 C 
ATOM      6  C   UNL     1      -1.797  -1.990   8.317  0.00  0.00    +0.110 C 
ATOM      7  C   UNL     1      -2.240  -2.109   9.758  0.00  0.00    +0.217 C 
ATOM      8  O   UNL     1      -3.090  -2.874  10.163  0.00  0.00    -0.276 OA
ATOM      9  N   UNL     1      -1.554  -1.245  10.525  0.00  0.00    -0.298 N 
ATOM     10  C   UNL     1      -0.606  -0.458   9.727  0.00  0.00    +0.121 C 
BRANCH   9  11
ATOM     11  C   UNL     1      -1.729  -1.105  11.973  0.00  0.00    +0.076 C 
ATOM     12  C   UNL     1      -1.414  -2.438  12.656  0.00  0.00    +0.023 C 
ATOM     13  C   UNL     1      -1.597  -2.293  14.168  0.00  0.00    +0.005 C 
ATOM     14  C   UNL     1      -3.043  -1.893  14.470  0.00  0.00    -0.014 C 
ATOM     15  C   UNL     1      -3.357  -0.561  13.788  0.00  0.00    +0.005 C 
ATOM     16  C   UNL     1      -3.175  -0.706  12.276  0.00  0.00    +0.023 C 
ATOM     17  C   UNL     1      -3.226  -1.748  15.982  0.00  0.00    +0.007 C 
ENDBRANCH   9  11
ENDBRANCH   2   5
BRANCH   1  18
ATOM     18  C   UNL     1      -0.090   0.181   4.852  0.00  0.00    +0.200 C 
BRANCH  18  20
ATOM     19  N   UNL     1       0.108   0.050   2.390  0.00  0.00    -0.284 N 
ATOM     20  C   UNL     1      -0.022  -0.598   3.564  0.00  0.00    +0.234 C 
ATOM     21  O   UNL     1      -0.085  -1.810   3.584  0.00  0.00    -0.274 OA
ATOM     22  H   UNL     1       0.224   1.013   2.378  0.00  0.00    +0.155 HD
BRANCH  19  29
ATOM     23  C   UNL     1       2.558  -0.356   1.002  0.00  0.00    +0.045 C 
ATOM     24  C   UNL     1       1.249  -0.887   0.479  0.00  0.00    -0.029 A 
ATOM     25  C   UNL     1       1.214  -1.599  -0.704  0.00  0.00    +0.005 A 
ATOM     26  C   UNL     1       0.013  -2.087  -1.185  0.00  0.00    +0.001 A 
ATOM     27  C   UNL     1      -1.158  -1.863  -0.484  0.00  0.00    +0.005 A 
ATOM     28  C   UNL     1      -1.130  -1.152   0.700  0.00  0.00    -0.029 A 
ATOM     29  C   UNL     1       0.076  -0.666   1.188  0.00  0.00    +0.039 A 
ATOM     30  C   UNL     1      -2.406  -0.908   1.463  0.00  0.00    +0.045 C 
ENDBRANCH  19  29
ENDBRANCH  18  20
ENDBRANCH   1  18
TORSDOF 5
