REMARK  Name = ZINC21228433
REMARK  9 active torsions:
REMARK  status: ('A' for Active; 'I' for Inactive)
REMARK    1  A    between atoms: C_1  and  C_2
REMARK    2  A    between atoms: C_2  and  O_3
REMARK    3  A    between atoms: O_3  and  C_4
REMARK    4  A    between atoms: C_7  and  C_10
REMARK    5  A    between atoms: C_15  and  C_21
REMARK    6  A    between atoms: C_23  and  O_29
REMARK    7  A    between atoms: C_24  and  O_28
REMARK    8  A    between atoms: O_29  and  C_30
REMARK    9  A    between atoms: C_30  and  C_31
REMARK                            x       y       z     vdW  Elec       q    Type
REMARK                         _______ _______ _______ _____ _____    ______ ____
ROOT
ATOM      1  C   UNL     1       2.452   3.935  -0.001  0.00  0.00    +0.032 C 
ATOM      2  C   UNL     1       2.513   4.824  -1.246  0.00  0.00    +0.059 C 
ATOM      3  C   UNL     1       3.788   5.631  -1.229  0.00  0.00    +0.018 C 
ATOM      4  C   UNL     1       4.353   6.006  -0.063  0.00  0.00    +0.020 C 
ATOM      5  C   UNL     1       5.627   6.819  -0.071  0.00  0.00    +0.063 C 
ATOM      6  C   UNL     1       5.615   7.770  -1.269  0.00  0.00    +0.109 C 
ATOM      7  C   UNL     1       5.234   7.000  -2.506  0.00  0.00    +0.218 C 
ATOM      8  O   UNL     1       5.713   7.301  -3.579  0.00  0.00    -0.275 OA
ATOM      9  N   UNL     1       4.364   5.978  -2.425  0.00  0.00    -0.289 N 
ATOM     10  C   UNL     1       3.784   5.655   1.173  0.00  0.00    +0.162 C 
ATOM     11  O   UNL     1       4.314   6.023   2.202  0.00  0.00    -0.292 OA
ATOM     12  C   UNL     1       2.528   4.829   1.241  0.00  0.00    +0.088 C 
ATOM     13  H   UNL     1       4.117   5.417  -3.338  0.00  0.00    +0.155 HD
ENDROOT
BRANCH   5  14
ATOM     14  C   UNL     1       6.812   5.894  -0.174  0.00  0.00    -0.035 A 
ATOM     15  C   UNL     1       7.772   5.889   0.822  0.00  0.00    +0.053 A 
ATOM     16  C   UNL     1       8.859   5.036   0.731  0.00  0.00    +0.163 A 
ATOM     17  C   UNL     1       8.990   4.194  -0.369  0.00  0.00    +0.173 A 
ATOM     18  C   UNL     1       8.028   4.207  -1.366  0.00  0.00    +0.063 A 
ATOM     19  C   UNL     1       6.941   5.058  -1.267  0.00  0.00    +0.023 A 
ATOM     20 BR   UNL     1       8.201   3.065  -2.863  0.00  0.00    -0.046 Br
BRANCH  17  21
ATOM     21  O   UNL     1      10.059   3.358  -0.465  0.00  0.00    -0.503 OA
ATOM     22  H   UNL     1      10.161   2.693  -1.335  0.00  0.00    +0.292 HD
ENDBRANCH  17  21
BRANCH  16  23
ATOM     23  O   UNL     1       9.801   5.026   1.713  0.00  0.00    -0.489 OA
BRANCH  23  24
ATOM     24  C   UNL     1       9.602   5.917   2.812  0.00  0.00    +0.226 C 
ATOM     25  C   UNL     1      10.754   5.764   3.807  0.00  0.00    +0.048 C 
ENDBRANCH  23  24
ENDBRANCH  16  23
ENDBRANCH   5  14
BRANCH   1  29
ATOM     26  C   UNL     1      -1.223   1.754   0.017  0.00  0.00    +0.121 A 
ATOM     27  C   UNL     1      -0.013   1.076   0.008  0.00  0.00    +0.046 A 
ATOM     28  C   UNL     1       1.174   1.783   0.000  0.00  0.00    +0.007 A 
ATOM     29  C   UNL     1       1.156   3.166   0.007  0.00  0.00    -0.043 A 
ATOM     30  C   UNL     1      -0.049   3.844   0.022  0.00  0.00    +0.007 A 
ATOM     31  C   UNL     1      -1.238   3.141   0.029  0.00  0.00    +0.046 A 
BRANCH  26  32
ATOM     32  O   UNL     1      -2.392   1.060   0.020  0.00  0.00    -0.492 OA
BRANCH  32  34
ATOM     33  C   UNL     1      -4.801   0.877   0.030  0.00  0.00    +0.048 C 
ATOM     34  C   UNL     1      -3.599   1.824   0.029  0.00  0.00    +0.225 C 
ENDBRANCH  32  34
ENDBRANCH  26  32
ENDBRANCH   1  29
TORSDOF 7
