REMARK  Name = ZINC63139000
REMARK  5 active torsions:
REMARK  status: ('A' for Active; 'I' for Inactive)
REMARK    1  A    between atoms: C_1  and  O_2
REMARK    2  A    between atoms: O_2  and  C_3
REMARK    3  A    between atoms: C_6  and  C_9
REMARK    4  A    between atoms: N_28  and  C_31
REMARK    5  A    between atoms: C_31  and  C_32
REMARK                            x       y       z     vdW  Elec       q    Type
REMARK                         _______ _______ _______ _____ _____    ______ ____
ROOT
ATOM      1  C   UNL     1       2.505  -2.503  -4.381  0.00  0.00    +0.133 C 
ATOM      2  C   UNL     1       3.920  -2.916  -3.978  0.00  0.00    +0.131 C 
ATOM      3  C   UNL     1       3.758  -4.150  -3.094  0.00  0.00    -0.034 C 
ATOM      4  C   UNL     1       4.262  -3.840  -1.907  0.00  0.00    -0.001 A 
ATOM      5  C   UNL     1       4.411  -4.625  -0.671  0.00  0.00    +0.010 A 
ATOM      6  C   UNL     1       4.979  -3.981   0.383  0.00  0.00    +0.001 A 
ATOM      7  C   UNL     1       5.408  -2.651   0.331  0.00  0.00    +0.002 A 
ATOM      8  C   UNL     1       5.311  -1.856  -0.763  0.00  0.00    +0.026 A 
ATOM      9  C   UNL     1       4.731  -2.421  -1.937  0.00  0.00    +0.043 A 
ATOM     10  N   UNL     1       4.531  -1.888  -3.125  0.00  0.00    -0.375 N 
ATOM     11  C   UNL     1       3.101  -5.400  -3.613  0.00  0.00    +0.065 C 
ATOM     12  C   UNL     1       1.901  -5.036  -4.449  0.00  0.00    +0.167 C 
ATOM     13  N   UNL     1       1.704  -3.646  -4.795  0.00  0.00    -0.279 N 
ATOM     14  C   UNL     1       0.598  -3.385  -5.568  0.00  0.00    +0.234 C 
ATOM     15  O   UNL     1       0.360  -2.270  -5.980  0.00  0.00    -0.274 OA
ATOM     16  C   UNL     1      -0.310  -4.556  -5.880  0.00  0.00    +0.204 C 
ATOM     17  N   UNL     1      -0.502  -5.341  -4.647  0.00  0.00    -0.287 N 
ATOM     18  C   UNL     1       0.614  -5.614  -3.917  0.00  0.00    +0.237 C 
ATOM     19  O   UNL     1       0.575  -6.279  -2.904  0.00  0.00    -0.274 OA
ATOM     20  H   UNL     1       4.743  -0.981  -3.396  0.00  0.00    +0.160 HD
ENDROOT
BRANCH   1  24
ATOM     21  C   UNL     1       0.606  -0.607  -1.056  0.00  0.00    +0.120 A 
ATOM     22  C   UNL     1       1.173   0.161  -2.062  0.00  0.00    +0.046 A 
ATOM     23  C   UNL     1       1.786  -0.455  -3.136  0.00  0.00    +0.009 A 
ATOM     24  C   UNL     1       1.835  -1.835  -3.209  0.00  0.00    -0.025 A 
ATOM     25  C   UNL     1       1.270  -2.602  -2.207  0.00  0.00    +0.009 A 
ATOM     26  C   UNL     1       0.661  -1.992  -1.128  0.00  0.00    +0.046 A 
BRANCH  21  28
ATOM     27  C   UNL     1      -0.017   1.425   0.010  0.00  0.00    +0.277 C 
ATOM     28  O   UNL     1       0.002  -0.004   0.002  0.00  0.00    -0.495 OA
ENDBRANCH  21  28
ENDBRANCH   1  24
BRANCH  17  29
ATOM     29  C   UNL     1      -1.827  -5.804  -4.228  0.00  0.00    +0.143 C 
BRANCH  29  30
ATOM     30  C   UNL     1      -2.095  -7.163  -4.820  0.00  0.00    -0.030 A 
ATOM     31  C   UNL     1      -2.697  -7.272  -6.059  0.00  0.00    +0.005 A 
ATOM     32  C   UNL     1      -2.943  -8.519  -6.602  0.00  0.00    +0.000 A 
ATOM     33  C   UNL     1      -2.585  -9.658  -5.905  0.00  0.00    +0.000 A 
ATOM     34  C   UNL     1      -1.982  -9.550  -4.666  0.00  0.00    +0.000 A 
ATOM     35  C   UNL     1      -1.733  -8.303  -4.125  0.00  0.00    +0.005 A 
ENDBRANCH  29  30
ENDBRANCH  17  29
TORSDOF 4
