REMARK  Name = ZINC15043986
REMARK  10 active torsions:
REMARK  status: ('A' for Active; 'I' for Inactive)
REMARK    1  A    between atoms: C_1  and  C_2
REMARK    2  A    between atoms: C_5  and  N_8
REMARK    3  A    between atoms: C_9  and  C_11
REMARK    4  A    between atoms: C_11  and  C_12
REMARK    5  A    between atoms: C_12  and  C_13
REMARK    6  A    between atoms: C_13  and  C_14
REMARK    7  A    between atoms: C_14  and  C_15
REMARK    8  A    between atoms: C_15  and  N_16
REMARK    9  A    between atoms: C_20  and  C_21
REMARK   10  A    between atoms: C_26  and  O_27
REMARK                            x       y       z     vdW  Elec       q    Type
REMARK                         _______ _______ _______ _____ _____    ______ ____
ROOT
ATOM      1  N   UNL     1       0.290   1.456   0.552  0.00  0.00    -0.255 N 
ATOM      2  C   UNL     1       1.378   2.188   0.384  0.00  0.00    +0.258 C 
ATOM      3  O   UNL     1       2.483   1.683   0.305  0.00  0.00    -0.269 OA
ATOM      4  C   UNL     1       1.186   3.649   0.295  0.00  0.00    +0.077 C 
ATOM      5  C   UNL     1       2.105   4.634   0.125  0.00  0.00    +0.032 C 
ATOM      6  S   UNL     1      -0.589   3.765   0.474  0.00  0.00    -0.061 S 
ATOM      7  C   UNL     1      -0.932   2.020   0.634  0.00  0.00    +0.121 C 
ATOM      8  S   UNL     1      -2.447   1.250   0.843  0.00  0.00    -0.027 S 
ENDROOT
BRANCH   5   9
ATOM      9  C   UNL     1       1.710   6.040   0.277  0.00  0.00    +0.019 A 
ATOM     10  C   UNL     1       0.533   6.372   0.958  0.00  0.00    +0.026 A 
ATOM     11  C   UNL     1       0.170   7.694   1.096  0.00  0.00    +0.019 A 
ATOM     12  C   UNL     1       0.965   8.697   0.565  0.00  0.00    +0.019 A 
ATOM     13  C   UNL     1       2.130   8.384  -0.109  0.00  0.00    +0.047 A 
ATOM     14  C   UNL     1       2.515   7.061  -0.254  0.00  0.00    +0.124 A 
ATOM     15 BR   UNL     1      -1.421   8.142   2.015  0.00  0.00    -0.050 Br
BRANCH  14  16
ATOM     16  O   UNL     1       3.662   6.753  -0.911  0.00  0.00    -0.506 OA
ATOM     17  H   UNL     1       3.547   6.621  -1.862  0.00  0.00    +0.292 HD
ENDBRANCH  14  16
ENDBRANCH   5   9
BRANCH   1  18
ATOM     18  C   UNL     1       0.414  -0.000   0.646  0.00  0.00    +0.115 C 
BRANCH  18  19
ATOM     19  C   UNL     1       0.608  -0.402   2.110  0.00  0.00    +0.019 C 
BRANCH  19  20
ATOM     20  C   UNL     1       0.738  -1.923   2.208  0.00  0.00    +0.002 C 
BRANCH  20  21
ATOM     21  C   UNL     1       0.932  -2.325   3.672  0.00  0.00    +0.009 C 
BRANCH  21  22
ATOM     22  C   UNL     1       1.062  -3.846   3.770  0.00  0.00    +0.096 C 
BRANCH  22  24
ATOM     23  N   UNL     1       1.391  -5.542   5.541  0.00  0.00    -0.285 N 
ATOM     24  C   UNL     1       1.253  -4.242   5.212  0.00  0.00    +0.217 C 
ATOM     25  O   UNL     1       1.283  -3.391   6.075  0.00  0.00    -0.275 OA
ATOM     26  H   UNL     1       1.295  -6.227   4.862  0.00  0.00    +0.155 HD
BRANCH  23  31
ATOM     27  C   UNL     1       2.535  -7.004  10.902  0.00  0.00    +0.044 C 
ATOM     28  C   UNL     1       2.231  -6.615   9.478  0.00  0.00    -0.050 A 
ATOM     29  C   UNL     1       1.405  -5.537   9.218  0.00  0.00    +0.005 A 
ATOM     30  C   UNL     1       1.125  -5.178   7.914  0.00  0.00    +0.023 A 
ATOM     31  C   UNL     1       1.674  -5.902   6.864  0.00  0.00    +0.033 A 
ATOM     32  C   UNL     1       2.499  -6.987   7.128  0.00  0.00    +0.023 A 
ATOM     33  C   UNL     1       2.779  -7.338   8.434  0.00  0.00    +0.005 A 
ENDBRANCH  23  31
ENDBRANCH  22  24
ENDBRANCH  21  22
ENDBRANCH  20  21
ENDBRANCH  19  20
ENDBRANCH  18  19
ENDBRANCH   1  18
TORSDOF 9
