REMARK  Name = ZINC62362418
REMARK  8 active torsions:
REMARK  status: ('A' for Active; 'I' for Inactive)
REMARK    1  A    between atoms: C_1  and  C_2
REMARK    2  A    between atoms: N_5  and  C_8
REMARK    3  A    between atoms: C_8  and  C_10
REMARK    4  A    between atoms: C_8  and  C_21
REMARK    5  A    between atoms: C_10  and  N_11
REMARK    6  A    between atoms: N_11  and  S_12
REMARK    7  A    between atoms: S_12  and  N_15
REMARK    8  A    between atoms: N_15  and  C_16
REMARK                            x       y       z     vdW  Elec       q    Type
REMARK                         _______ _______ _______ _____ _____    ______ ____
ROOT
ATOM      1  C   UNL     1      -0.610  -3.935   1.339  0.00  0.00    -0.022 C 
ENDROOT
BRANCH   1   6
ATOM      2  C   UNL     1      -0.331   1.667   0.312  0.00  0.00    +0.007 C 
ATOM      3  C   UNL     1      -0.179   0.149   0.203  0.00  0.00    -0.018 C 
ATOM      4  C   UNL     1      -1.564  -0.502   0.159  0.00  0.00    -0.015 C 
ATOM      5  C   UNL     1      -1.405  -2.024   0.130  0.00  0.00    -0.078 C 
ATOM      6  N   UNL     1      -0.692  -2.468   1.333  0.00  0.00    +0.385 N 
ATOM      7  C   UNL     1       0.663  -1.905   1.346  0.00  0.00    -0.078 C 
ATOM      8  C   UNL     1       0.584  -0.378   1.422  0.00  0.00    -0.015 C 
ATOM      9  H   UNL     1      -1.192  -2.158   2.153  0.00  0.00    -0.081 HD
ENDBRANCH   1   6
BRANCH   1  10
ATOM     10  C   UNL     1      -2.000  -4.516   1.278  0.00  0.00    -0.060 A 
ATOM     11  C   UNL     1      -3.025  -3.931   1.998  0.00  0.00    +0.003 A 
ATOM     12  C   UNL     1      -4.300  -4.463   1.942  0.00  0.00    +0.020 A 
ATOM     13  C   UNL     1      -4.549  -5.581   1.166  0.00  0.00    +0.041 A 
ATOM     14  C   UNL     1      -3.522  -6.166   0.446  0.00  0.00    +0.020 A 
ATOM     15  C   UNL     1      -2.250  -5.629   0.498  0.00  0.00    +0.003 A 
ATOM     16 CL   UNL     1      -6.149  -6.250   1.097  0.00  0.00    -0.084 Cl
ENDBRANCH   1  10
BRANCH   1  17
ATOM     17  C   UNL     1       0.082  -4.402   2.621  0.00  0.00    +0.096 C 
BRANCH  17  18
ATOM     18  N   UNL     1       0.238  -5.859   2.589  0.00  0.00    -0.181 NA
ATOM     19  H   UNL     1      -0.279  -6.388   1.961  0.00  0.00    +0.149 HD
BRANCH  18  20
ATOM     20  S   UNL     1       1.295  -6.601   3.624  0.00  0.00    +0.095 S 
ATOM     21  O   UNL     1       1.200  -7.996   3.371  0.00  0.00    -0.141 OA
ATOM     22  O   UNL     1       2.523  -5.891   3.529  0.00  0.00    -0.141 OA
BRANCH  20  23
ATOM     23  N   UNL     1       0.727  -6.360   5.161  0.00  0.00    -0.177 NA
ATOM     24  H   UNL     1       1.240  -5.829   5.790  0.00  0.00    +0.149 HD
BRANCH  23  25
ATOM     25  C   UNL     1      -0.550  -6.949   5.570  0.00  0.00    +0.078 C 
ATOM     26  C   UNL     1      -0.304  -8.265   6.337  0.00  0.00    +0.020 C 
ATOM     27  C   UNL     1      -0.329  -7.846   7.828  0.00  0.00    +0.002 C 
ATOM     28  C   UNL     1      -1.451  -6.778   7.865  0.00  0.00    +0.002 C 
ATOM     29  C   UNL     1      -1.280  -6.004   6.542  0.00  0.00    +0.020 C 
ENDBRANCH  23  25
ENDBRANCH  20  23
ENDBRANCH  18  20
ENDBRANCH  17  18
ENDBRANCH   1  17
TORSDOF 7
