REMARK  Name = ZINC67129379
REMARK  8 active torsions:
REMARK  status: ('A' for Active; 'I' for Inactive)
REMARK    1  A    between atoms: C_1  and  C_2
REMARK    2  A    between atoms: C_5  and  C_8
REMARK    3  A    between atoms: C_8  and  C_10
REMARK    4  A    between atoms: C_8  and  N_15
REMARK    5  A    between atoms: C_16  and  C_18
REMARK    6  A    between atoms: C_18  and  N_19
REMARK    7  A    between atoms: C_21  and  O_29
REMARK    8  A    between atoms: C_24  and  C_26
REMARK                            x       y       z     vdW  Elec       q    Type
REMARK                         _______ _______ _______ _____ _____    ______ ____
ROOT
ATOM      1  N   UNL     1       0.959  -4.758   1.029  0.00  0.00    -0.306 N 
ATOM      2  C   UNL     1       1.534  -5.972   0.919  0.00  0.00    +0.197 C 
ATOM      3  O   UNL     1       1.306  -6.665  -0.050  0.00  0.00    -0.278 OA
ATOM      4  H   UNL     1       1.142  -4.204   1.804  0.00  0.00    +0.150 HD
ENDROOT
BRANCH   1   5
ATOM      5  C   UNL     1       0.059  -4.275  -0.021  0.00  0.00    +0.140 C 
BRANCH   5  10
ATOM      6  C   UNL     1      -0.018   1.503   0.010  0.00  0.00    +0.044 C 
ATOM      7  C   UNL     1       0.002  -0.004   0.002  0.00  0.00    -0.050 A 
ATOM      8  C   UNL     1       0.006  -0.689  -1.199  0.00  0.00    +0.004 A 
ATOM      9  C   UNL     1       0.025  -2.071  -1.206  0.00  0.00    +0.006 A 
ATOM     10  C   UNL     1       0.040  -2.768  -0.013  0.00  0.00    -0.022 A 
ATOM     11  C   UNL     1       0.037  -2.084   1.188  0.00  0.00    +0.006 A 
ATOM     12  C   UNL     1       0.023  -0.702   1.195  0.00  0.00    +0.004 A 
ENDBRANCH   5  10
BRANCH   5  13
ATOM     13  C   UNL     1      -1.332  -4.797   0.230  0.00  0.00    +0.014 A 
ATOM     14  C   UNL     1      -2.241  -5.266  -0.659  0.00  0.00    +0.013 A 
ATOM     15  C   UNL     1      -3.470  -5.698  -0.196  0.00  0.00    +0.008 A 
ATOM     16  C   UNL     1      -3.729  -5.641   1.133  0.00  0.00    +0.045 A 
ATOM     17  S   UNL     1      -2.207  -4.965   1.777  0.00  0.00    -0.099 S 
ENDBRANCH   5  13
ENDBRANCH   1   5
BRANCH   2  18
ATOM     18  C   UNL     1       2.460  -6.468   1.999  0.00  0.00    +0.020 C 
BRANCH  18  19
ATOM     19  N   UNL     1       2.951  -7.807   1.646  0.00  0.00    +0.395 N 
ATOM     20  C   UNL     1       3.857  -7.726   0.479  0.00  0.00    -0.045 C 
ATOM     21  C   UNL     1       4.959  -8.781   0.689  0.00  0.00    +0.097 C 
ATOM     22  C   UNL     1       4.638  -9.434   2.053  0.00  0.00    +0.023 C 
ATOM     23  C   UNL     1       3.769  -8.361   2.755  0.00  0.00    +0.022 C 
ATOM     24  H   UNL     1       2.176  -8.421   1.445  0.00  0.00    -0.080 HD
BRANCH  23  25
ATOM     25  C   UNL     1       2.887  -8.993   3.802  0.00  0.00    +0.197 C 
ATOM     26  O   UNL     1       1.683  -8.994   3.660  0.00  0.00    -0.278 OA
ATOM     27  N   UNL     1       3.437  -9.556   4.896  0.00  0.00    -0.331 N 
ATOM     28  H   UNL     1       4.401  -9.555   5.009  0.00  0.00    +0.145 HD
ATOM     29  H   UNL     1       2.870  -9.963   5.569  0.00  0.00    +0.145 HD
ENDBRANCH  23  25
BRANCH  21  30
ATOM     30  O   UNL     1       4.916  -9.757  -0.353  0.00  0.00    -0.394 OA
ATOM     31  H   UNL     1       5.588 -10.448  -0.273  0.00  0.00    +0.210 HD
ENDBRANCH  21  30
ENDBRANCH  18  19
ENDBRANCH   2  18
TORSDOF 7
