REMARK  Name = ZINC19223445
REMARK  7 active torsions:
REMARK  status: ('A' for Active; 'I' for Inactive)
REMARK    1  A    between atoms: C_1  and  C_2
REMARK    2  A    between atoms: C_2  and  C_31
REMARK    3  A    between atoms: C_4  and  N_9
REMARK    4  A    between atoms: N_9  and  C_10
REMARK    5  A    between atoms: C_10  and  C_11
REMARK    6  A    between atoms: N_13  and  C_25
REMARK    7  A    between atoms: C_15  and  C_16
REMARK                            x       y       z     vdW  Elec       q    Type
REMARK                         _______ _______ _______ _____ _____    ______ ____
ROOT
ATOM      1  C   UNL     1       5.013   3.802  -0.163  0.00  0.00    -0.019 A 
ATOM      2  C   UNL     1       3.720   3.554   0.136  0.00  0.00    +0.116 A 
ATOM      3  N   UNL     1       3.572   2.210   0.269  0.00  0.00    -0.239 N 
ATOM      4  N   UNL     1       4.817   1.612   0.034  0.00  0.00    -0.166 NA
ATOM      5  C   UNL     1       5.687   2.566  -0.226  0.00  0.00    +0.095 A 
ENDROOT
BRANCH   5   6
ATOM      6  C   UNL     1       7.126   2.373  -0.533  0.00  0.00    +0.006 A 
ATOM      7  C   UNL     1       8.080   3.215   0.034  0.00  0.00    +0.014 A 
ATOM      8  C   UNL     1       9.418   3.035  -0.252  0.00  0.00    +0.050 A 
ATOM      9  C   UNL     1       9.818   2.017  -1.104  0.00  0.00    +0.166 A 
ATOM     10  C   UNL     1       8.867   1.171  -1.674  0.00  0.00    +0.167 A 
ATOM     11  C   UNL     1       7.526   1.345  -1.384  0.00  0.00    +0.059 A 
ATOM     12  O   UNL     1       9.511   0.262  -2.465  0.00  0.00    -0.453 OA
ATOM     13  C   UNL     1      10.820   0.814  -2.696  0.00  0.00    +0.466 C 
ATOM     14  O   UNL     1      11.055   1.637  -1.539  0.00  0.00    -0.453 OA
ENDBRANCH   5   6
BRANCH   3  15
ATOM     15  C   UNL     1       2.383   1.539   0.580  0.00  0.00    +0.065 A 
ATOM     16  C   UNL     1       1.213   2.257   0.790  0.00  0.00    +0.028 A 
ATOM     17  C   UNL     1       0.042   1.593   1.098  0.00  0.00    +0.002 A 
ATOM     18  C   UNL     1       0.033   0.213   1.196  0.00  0.00    +0.000 A 
ATOM     19  C   UNL     1       1.196  -0.505   0.988  0.00  0.00    +0.002 A 
ATOM     20  C   UNL     1       2.371   0.154   0.680  0.00  0.00    +0.028 A 
ENDBRANCH   3  15
BRANCH   1  21
ATOM     21  C   UNL     1       5.627   5.159  -0.393  0.00  0.00    -0.043 C 
BRANCH  21  22
ATOM     22  N   UNL     1       5.820   5.371  -1.834  0.00  0.00    +0.384 N 
ATOM     23  H   UNL     1       4.835   5.379  -2.324  0.00  0.00    -0.085 HD
ATOM     24  H   UNL     1       6.422   4.542  -2.234  0.00  0.00    -0.085 HD
BRANCH  22  28
ATOM     25  C   UNL     1       6.516   9.508  -2.804  0.00  0.00    +0.041 C 
ATOM     26  C   UNL     1       6.944   8.419  -3.790  0.00  0.00    +0.063 C 
ATOM     27  C   UNL     1       6.164   7.134  -3.502  0.00  0.00    +0.019 C 
ATOM     28  C   UNL     1       6.505   6.644  -2.091  0.00  0.00    -0.067 C 
ATOM     29  C   UNL     1       8.020   6.441  -1.985  0.00  0.00    +0.012 C 
ATOM     30  C   UNL     1       8.728   7.753  -2.332  0.00  0.00    +0.159 C 
ATOM     31  O   UNL     1       8.344   8.169  -3.644  0.00  0.00    -0.374 OA
ATOM     32  C   UNL     1       6.655   8.882  -5.219  0.00  0.00    +0.041 C 
ENDBRANCH  22  28
ENDBRANCH  21  22
ENDBRANCH   1  21
TORSDOF 5
