REMARK  Name = ZINC08990173
REMARK  9 active torsions:
REMARK  status: ('A' for Active; 'I' for Inactive)
REMARK    1  A    between atoms: C_1  and  C_2
REMARK    2  A    between atoms: C_2  and  C_3
REMARK    3  A    between atoms: C_2  and  C_4
REMARK    4  A    between atoms: N_12  and  C_15
REMARK    5  A    between atoms: C_15  and  C_16
REMARK    6  A    between atoms: N_18  and  C_19
REMARK    7  A    between atoms: C_19  and  C_20
REMARK    8  A    between atoms: C_30  and  C_33
REMARK    9  A    between atoms: C_30  and  C_34
REMARK                            x       y       z     vdW  Elec       q    Type
REMARK                         _______ _______ _______ _____ _____    ______ ____
ROOT
ATOM      1  C   UNL     1       7.957  -2.697  -0.559  0.00  0.00    +0.051 A 
ATOM      2  C   UNL     1       7.546  -2.565   0.763  0.00  0.00    +0.004 A 
ATOM      3  C   UNL     1       6.274  -2.133   1.042  0.00  0.00    -0.026 A 
ATOM      4  C   UNL     1       5.394  -1.831  -0.024  0.00  0.00    +0.037 A 
ATOM      5  C   UNL     1       4.002  -1.359   0.065  0.00  0.00    +0.094 A 
ATOM      6  C   UNL     1       3.354  -1.137  -1.148  0.00  0.00    +0.105 A 
ATOM      7  C   UNL     1       2.025  -0.692  -1.189  0.00  0.00    +0.269 A 
ATOM      8  O   UNL     1       1.460  -0.504  -2.253  0.00  0.00    -0.266 OA
ATOM      9  N   UNL     1       1.390  -0.473  -0.014  0.00  0.00    -0.289 N 
ATOM     10  C   UNL     1       2.051  -0.700   1.150  0.00  0.00    +0.203 A 
ATOM     11  N   UNL     1       3.278  -1.116   1.195  0.00  0.00    -0.236 NA
ATOM     12  S   UNL     1       4.557  -1.541  -2.384  0.00  0.00    -0.062 S 
ATOM     13  C   UNL     1       5.906  -2.001  -1.324  0.00  0.00    +0.112 A 
ATOM     14  N   UNL     1       7.135  -2.415  -1.549  0.00  0.00    -0.244 NA
ATOM     15  C   UNL     1       5.783  -1.964   2.455  0.00  0.00    +0.070 C 
ATOM     16  C   UNL     1       6.709  -2.716   3.414  0.00  0.00    +0.068 C 
ATOM     17  O   UNL     1       8.063  -2.365   3.105  0.00  0.00    -0.369 OA
ATOM     18  C   UNL     1       8.517  -2.906   1.865  0.00  0.00    +0.197 C 
ATOM     19  C   UNL     1       6.390  -2.315   4.856  0.00  0.00    +0.041 C 
ATOM     20  C   UNL     1       6.516  -4.224   3.240  0.00  0.00    +0.041 C 
ENDROOT
BRANCH   1  22
ATOM     21  C   UNL     1       9.293  -4.462  -1.677  0.00  0.00    +0.014 C 
ATOM     22  C   UNL     1       9.356  -3.169  -0.862  0.00  0.00    +0.032 C 
ATOM     23  C   UNL     1      10.093  -2.096  -1.665  0.00  0.00    +0.014 C 
ENDBRANCH   1  22
BRANCH   9  24
ATOM     24  C   UNL     1       0.002  -0.004   0.002  0.00  0.00    +0.222 C 
BRANCH  24  25
ATOM     25  C   UNL     1      -0.018   1.503   0.010  0.00  0.00    +0.233 C 
ATOM     26  O   UNL     1       1.024   2.123   0.004  0.00  0.00    -0.274 OA
ATOM     27  N   UNL     1      -1.195   2.161   0.019  0.00  0.00    -0.310 N 
ATOM     28  H   UNL     1      -2.028   1.664   0.021  0.00  0.00    +0.149 HD
BRANCH  27  29
ATOM     29  C   UNL     1      -1.214   3.626   0.028  0.00  0.00    +0.139 C 
BRANCH  29  30
ATOM     30  C   UNL     1      -2.642   4.109   0.037  0.00  0.00    -0.030 A 
ATOM     31  C   UNL     1      -3.300   4.342  -1.156  0.00  0.00    +0.005 A 
ATOM     32  C   UNL     1      -4.612   4.780  -1.147  0.00  0.00    +0.000 A 
ATOM     33  C   UNL     1      -5.261   4.995   0.054  0.00  0.00    +0.000 A 
ATOM     34  C   UNL     1      -4.600   4.767   1.247  0.00  0.00    +0.000 A 
ATOM     35  C   UNL     1      -3.291   4.324   1.238  0.00  0.00    +0.005 A 
ENDBRANCH  29  30
ENDBRANCH  27  29
ENDBRANCH  24  25
ENDBRANCH   9  24
TORSDOF 5
