REMARK  Name = ZINC36001612
REMARK  7 active torsions:
REMARK  status: ('A' for Active; 'I' for Inactive)
REMARK    1  A    between atoms: C_1  and  C_2
REMARK    2  A    between atoms: C_5  and  C_9
REMARK    3  A    between atoms: C_7  and  C_8
REMARK    4  A    between atoms: C_11  and  C_14
REMARK    5  A    between atoms: C_21  and  C_23
REMARK    6  A    between atoms: N_25  and  C_26
REMARK    7  A    between atoms: C_26  and  C_27
REMARK                            x       y       z     vdW  Elec       q    Type
REMARK                         _______ _______ _______ _____ _____    ______ ____
ROOT
ATOM      1  C   UNL     1      -0.943  -7.928  -1.769  0.00  0.00    +0.269 C 
ATOM      2  O   UNL     1      -0.941  -7.881  -2.983  0.00  0.00    -0.268 OA
ATOM      3  N   UNL     1      -0.385  -8.978  -1.135  0.00  0.00    -0.285 N 
ATOM      4  C   UNL     1      -0.510  -9.124   0.322  0.00  0.00    +0.109 C 
ATOM      5  C   UNL     1       0.889  -9.291   0.922  0.00  0.00    +0.019 C 
ATOM      6  C   UNL     1       1.600 -10.458   0.232  0.00  0.00    +0.004 C 
ATOM      7  C   UNL     1       1.748 -10.155  -1.261  0.00  0.00    +0.032 C 
ATOM      8  C   UNL     1       0.354 -10.001  -1.887  0.00  0.00    +0.162 C 
ENDROOT
BRANCH   1  11
ATOM      9  C   UNL     1      -2.674  -4.954  -0.474  0.00  0.00    +0.168 A 
ATOM     10  C   UNL     1      -2.274  -5.733  -1.514  0.00  0.00    +0.086 A 
ATOM     11  C   UNL     1      -1.559  -6.829  -0.986  0.00  0.00    +0.168 A 
ATOM     12  N   UNL     1      -1.535  -6.706   0.320  0.00  0.00    -0.073 NA
ATOM     13  O   UNL     1      -2.232  -5.522   0.663  0.00  0.00    -0.354 OA
BRANCH   9  18
ATOM     14  C   UNL     1      -5.704  -0.077  -0.866  0.00  0.00    +0.044 C 
ATOM     15  C   UNL     1      -4.911  -1.354  -0.763  0.00  0.00    -0.047 A 
ATOM     16  C   UNL     1      -4.576  -2.051  -1.911  0.00  0.00    +0.004 A 
ATOM     17  C   UNL     1      -3.850  -3.221  -1.824  0.00  0.00    +0.012 A 
ATOM     18  C   UNL     1      -3.452  -3.701  -0.575  0.00  0.00    +0.020 A 
ATOM     19  C   UNL     1      -3.793  -2.993   0.579  0.00  0.00    +0.015 A 
ATOM     20  C   UNL     1      -4.516  -1.822   0.477  0.00  0.00    -0.047 A 
ATOM     21  C   UNL     1      -4.880  -1.053   1.721  0.00  0.00    +0.044 C 
ENDBRANCH   9  18
ENDBRANCH   1  11
BRANCH   8  22
ATOM     22  C   UNL     1       0.488  -9.572  -3.325  0.00  0.00    +0.234 C 
ATOM     23  O   UNL     1       0.926  -8.473  -3.592  0.00  0.00    -0.274 OA
ATOM     24  N   UNL     1       0.122 -10.409  -4.315  0.00  0.00    -0.311 N 
ATOM     25  H   UNL     1      -0.228 -11.289  -4.102  0.00  0.00    +0.149 HD
BRANCH  24  26
ATOM     26  C   UNL     1       0.253  -9.992  -5.713  0.00  0.00    +0.135 C 
BRANCH  26  27
ATOM     27  C   UNL     1      -0.229 -11.120  -6.629  0.00  0.00    +0.135 C 
ATOM     28  C   UNL     1      -0.066 -10.712  -8.115  0.00  0.00    +0.035 C 
ATOM     29  C   UNL     1       0.032 -12.105  -8.794  0.00  0.00    +0.031 C 
ATOM     30  C   UNL     1       0.775 -12.938  -7.728  0.00  0.00    +0.160 C 
ATOM     31  O   UNL     1       0.598 -12.283  -6.465  0.00  0.00    -0.375 OA
ENDBRANCH  26  27
ENDBRANCH  24  26
ENDBRANCH   8  22
TORSDOF 5
