REMARK  Name = ZINC26571209
REMARK  7 active torsions:
REMARK  status: ('A' for Active; 'I' for Inactive)
REMARK    1  A    between atoms: C_3  and  N_8
REMARK    2  A    between atoms: N_11  and  C_14
REMARK    3  A    between atoms: C_14  and  C_15
REMARK    4  A    between atoms: C_15  and  C_17
REMARK    5  A    between atoms: C_15  and  O_30
REMARK    6  A    between atoms: C_17  and  O_18
REMARK    7  A    between atoms: O_18  and  C_19
REMARK                            x       y       z     vdW  Elec       q    Type
REMARK                         _______ _______ _______ _____ _____    ______ ____
ROOT
ATOM      1  C   UNL     1       1.379   2.022  -0.271  0.00  0.00    +0.166 C 
ENDROOT
BRANCH   1   2
ATOM      2  O   UNL     1       1.727   1.770  -1.634  0.00  0.00    -0.387 OA
ATOM      3  H   UNL     1       2.701   2.100  -2.023  0.00  0.00    +0.210 HD
ENDBRANCH   1   2
BRANCH   1   4
ATOM      4  C   UNL     1      -0.018   1.465   0.010  0.00  0.00    +0.119 C 
BRANCH   4   8
ATOM      5  N   UNL     1      -0.664  -2.683   0.487  0.00  0.00    -0.327 N 
ATOM      6  C   UNL     1       0.698  -2.170   0.689  0.00  0.00    +0.120 C 
ATOM      7  C   UNL     1       0.640  -0.665   0.957  0.00  0.00    +0.103 C 
ATOM      8  N   UNL     1      -0.011   0.008  -0.176  0.00  0.00    -0.297 NA
ATOM      9  C   UNL     1      -1.373  -0.504  -0.377  0.00  0.00    +0.103 C 
ATOM     10  C   UNL     1      -1.315  -2.010  -0.646  0.00  0.00    +0.120 C 
BRANCH   5  13
ATOM     11  C   UNL     1       0.547  -6.137   0.163  0.00  0.00    +0.003 A 
ATOM     12  C   UNL     1       0.543  -4.766   0.334  0.00  0.00    +0.023 A 
ATOM     13  C   UNL     1      -0.657  -4.068   0.310  0.00  0.00    +0.031 A 
ATOM     14  C   UNL     1      -1.850  -4.749   0.104  0.00  0.00    +0.043 A 
ATOM     15  C   UNL     1      -1.840  -6.120  -0.071  0.00  0.00    +0.043 A 
ATOM     16  C   UNL     1      -0.642  -6.813  -0.042  0.00  0.00    +0.020 A 
ATOM     17 CL   UNL     1      -3.329  -6.973  -0.328  0.00  0.00    -0.083 Cl
ENDBRANCH   5  13
ENDBRANCH   4   8
ENDBRANCH   1   4
BRANCH   1  18
ATOM     18  C   UNL     1       1.388   3.530  -0.013  0.00  0.00    +0.261 C 
BRANCH  18  19
ATOM     19  O   UNL     1       2.718   4.031  -0.163  0.00  0.00    -0.489 OA
BRANCH  19  20
ATOM     20  C   UNL     1       2.901   5.363   0.034  0.00  0.00    +0.121 A 
ATOM     21  C   UNL     1       1.807   6.169   0.362  0.00  0.00    +0.046 A 
ATOM     22  C   UNL     1       1.959   7.504   0.570  0.00  0.00    +0.012 A 
ATOM     23  C   UNL     1       3.232   8.088   0.444  0.00  0.00    -0.017 A 
ATOM     24  C   UNL     1       3.424   9.466   0.647  0.00  0.00    +0.023 A 
ATOM     25  C   UNL     1       4.671   9.998   0.517  0.00  0.00    +0.018 A 
ATOM     26  C   UNL     1       5.763   9.197   0.185  0.00  0.00    +0.016 A 
ATOM     27  C   UNL     1       5.614   7.860  -0.018  0.00  0.00    +0.010 A 
ATOM     28  C   UNL     1       4.342   7.274   0.108  0.00  0.00    -0.014 A 
ATOM     29  C   UNL     1       4.152   5.897  -0.095  0.00  0.00    +0.054 A 
ATOM     30 BR   UNL     1       4.925  11.852   0.790  0.00  0.00    -0.050 Br
ENDBRANCH  19  20
ENDBRANCH  18  19
ENDBRANCH   1  18
TORSDOF 7
