REMARK  Name = ZINC34828523
REMARK  8 active torsions:
REMARK  status: ('A' for Active; 'I' for Inactive)
REMARK    1  A    between atoms: C_2  and  C_3
REMARK    2  A    between atoms: C_3  and  N_4
REMARK    3  A    between atoms: N_7  and  C_10
REMARK    4  A    between atoms: C_15  and  N_16
REMARK    5  A    between atoms: C_17  and  C_19
REMARK    6  A    between atoms: C_19  and  S_20
REMARK    7  A    between atoms: S_20  and  C_21
REMARK    8  A    between atoms: N_25  and  C_26
REMARK                            x       y       z     vdW  Elec       q    Type
REMARK                         _______ _______ _______ _____ _____    ______ ____
ROOT
ATOM      1  N   UNL     1       6.289   3.822  -0.069  0.00  0.00    -0.283 N 
ATOM      2  C   UNL     1       7.356   4.322   0.585  0.00  0.00    +0.228 C 
ATOM      3  O   UNL     1       7.780   5.423   0.301  0.00  0.00    -0.275 OA
ATOM      4  H   UNL     1       5.901   2.978   0.210  0.00  0.00    +0.155 HD
ENDROOT
BRANCH   1  10
ATOM      5  C   UNL     1       4.406   4.328  -1.506  0.00  0.00    +0.051 A 
ATOM      6  C   UNL     1       3.868   5.027  -2.577  0.00  0.00    +0.025 A 
ATOM      7  C   UNL     1       4.656   5.907  -3.294  0.00  0.00    +0.002 A 
ATOM      8  C   UNL     1       5.982   6.094  -2.947  0.00  0.00    +0.002 A 
ATOM      9  C   UNL     1       6.526   5.402  -1.881  0.00  0.00    +0.025 A 
ATOM     10  C   UNL     1       5.741   4.521  -1.154  0.00  0.00    +0.055 A 
BRANCH   5  14
ATOM     11  N   UNL     1       1.357   1.986  -0.015  0.00  0.00    -0.289 NA
ATOM     12  C   UNL     1       2.040   1.637  -1.267  0.00  0.00    +0.104 C 
ATOM     13  C   UNL     1       3.520   2.020  -1.162  0.00  0.00    +0.120 C 
ATOM     14  N   UNL     1       3.609   3.437  -0.779  0.00  0.00    -0.326 N 
ATOM     15  C   UNL     1       2.840   3.892   0.389  0.00  0.00    +0.120 C 
ATOM     16  C   UNL     1       1.387   3.435   0.223  0.00  0.00    +0.104 C 
BRANCH  11  17
ATOM     17  C   UNL     1      -0.023   1.480  -0.008  0.00  0.00    +0.173 C 
BRANCH  17  19
ATOM     18  C   UNL     1       0.008  -1.166  -0.007  0.00  0.00    +0.005 C 
ATOM     19  C   UNL     1      -0.005   0.008  -0.007  0.00  0.00    -0.090 C 
ENDBRANCH  17  19
ENDBRANCH  11  17
ENDBRANCH   5  14
ENDBRANCH   1  10
BRANCH   2  20
ATOM     20  C   UNL     1       8.023   3.514   1.668  0.00  0.00    +0.173 C 
BRANCH  20  21
ATOM     21  S   UNL     1       9.417   4.453   2.351  0.00  0.00    -0.075 S 
BRANCH  21  22
ATOM     22  C   UNL     1      10.082   3.388   3.588  0.00  0.00    +0.214 A 
ATOM     23  N   UNL     1       9.642   2.190   3.908  0.00  0.00    -0.101 NA
ATOM     24  N   UNL     1      10.354   1.687   4.851  0.00  0.00    -0.022 NA
ATOM     25  N   UNL     1      11.284   2.507   5.199  0.00  0.00    -0.038 NA
ATOM     26  N   UNL     1      11.148   3.647   4.387  0.00  0.00    -0.187 N 
BRANCH  26  27
ATOM     27  C   UNL     1      11.941   4.803   4.401  0.00  0.00    +0.070 A 
ATOM     28  C   UNL     1      12.201   5.482   3.218  0.00  0.00    +0.029 A 
ATOM     29  C   UNL     1      12.983   6.621   3.235  0.00  0.00    +0.017 A 
ATOM     30  C   UNL     1      13.506   7.085   4.429  0.00  0.00    +0.018 A 
ATOM     31  C   UNL     1      13.248   6.410   5.609  0.00  0.00    +0.017 A 
ATOM     32  C   UNL     1      12.463   5.274   5.598  0.00  0.00    +0.029 A 
ATOM     33 BR   UNL     1      14.576   8.644   4.448  0.00  0.00    -0.050 Br
ENDBRANCH  26  27
ENDBRANCH  21  22
ENDBRANCH  20  21
ENDBRANCH   2  20
TORSDOF 8
