REMARK  Name = ZINC02203135
REMARK  7 active torsions:
REMARK  status: ('A' for Active; 'I' for Inactive)
REMARK    1  A    between atoms: C_4  and  C_7
REMARK    2  A    between atoms: C_8  and  C_18
REMARK    3  A    between atoms: N_20  and  N_21
REMARK    4  A    between atoms: C_22  and  C_23
REMARK    5  A    between atoms: C_27  and  O_29
REMARK    6  A    between atoms: O_29  and  C_30
REMARK    7  A    between atoms: C_30  and  C_31
REMARK                            x       y       z     vdW  Elec       q    Type
REMARK                         _______ _______ _______ _____ _____    ______ ____
ROOT
ATOM      1  C   UNL     1      -2.536   0.771  -1.762  0.00  0.00    +0.286 C 
ATOM      2  O   UNL     1      -1.597   0.024  -1.962  0.00  0.00    -0.267 OA
ATOM      3  N   UNL     1      -3.681   0.615  -2.456  0.00  0.00    -0.202 N 
ATOM      4  H   UNL     1      -4.429   1.211  -2.296  0.00  0.00    +0.178 HD
ENDROOT
BRANCH   1   6
ATOM      5  C   UNL     1      -1.304   2.116   0.020  0.00  0.00    +0.109 A 
ATOM      6  C   UNL     1      -2.421   1.845  -0.762  0.00  0.00    +0.177 A 
ATOM      7  N   UNL     1      -3.378   2.734  -0.447  0.00  0.00    -0.124 NA
ATOM      8  N   UNL     1      -2.952   3.536   0.464  0.00  0.00    -0.058 NA
ATOM      9  N   UNL     1      -1.639   3.184   0.803  0.00  0.00    -0.187 N 
ATOM     10  C   UNL     1      -0.827   3.808   1.756  0.00  0.00    +0.241 A 
ATOM     11  C   UNL     1      -1.206   4.954   2.588  0.00  0.00    +0.206 A 
ATOM     12  N   UNL     1      -0.194   5.256   3.355  0.00  0.00    -0.032 NA
ATOM     13  O   UNL     1       0.855   4.350   3.066  0.00  0.00    -0.239 OA
ATOM     14  N   UNL     1       0.393   3.465   2.061  0.00  0.00    -0.027 NA
ATOM     15  N   UNL     1      -2.433   5.608   2.563  0.00  0.00    -0.337 N 
ATOM     16  H   UNL     1      -3.128   5.311   1.956  0.00  0.00    +0.144 HD
ATOM     17  H   UNL     1      -2.593   6.361   3.153  0.00  0.00    +0.144 HD
BRANCH   5  21
ATOM     18  C   UNL     1       2.396   0.034  -0.021  0.00  0.00    +0.000 A 
ATOM     19  C   UNL     1       1.208  -0.674  -0.013  0.00  0.00    +0.001 A 
ATOM     20  C   UNL     1       0.002  -0.004   0.002  0.00  0.00    +0.010 A 
ATOM     21  C   UNL     1      -0.017   1.392   0.010  0.00  0.00    +0.003 A 
ATOM     22  C   UNL     1       1.187   2.100   0.002  0.00  0.00    +0.010 A 
ATOM     23  C   UNL     1       2.385   1.417  -0.013  0.00  0.00    +0.001 A 
ENDBRANCH   5  21
ENDBRANCH   1   6
BRANCH   3  24
ATOM     24  N   UNL     1      -3.790  -0.407  -3.407  0.00  0.00    -0.187 NA
ATOM     25  C   UNL     1      -4.892  -0.557  -4.075  0.00  0.00    +0.138 C 
BRANCH  25  26
ATOM     26  C   UNL     1      -5.007  -1.633  -5.077  0.00  0.00    -0.002 A 
ATOM     27  C   UNL     1      -3.928  -2.490  -5.313  0.00  0.00    +0.010 A 
ATOM     28  C   UNL     1      -4.042  -3.499  -6.247  0.00  0.00    +0.004 A 
ATOM     29  C   UNL     1      -5.216  -3.659  -6.959  0.00  0.00    +0.046 A 
ATOM     30  C   UNL     1      -6.292  -2.810  -6.736  0.00  0.00    +0.122 A 
ATOM     31  C   UNL     1      -6.192  -1.797  -5.797  0.00  0.00    +0.055 A 
BRANCH  30  32
ATOM     32  O   UNL     1      -7.443  -2.973  -7.439  0.00  0.00    -0.487 OA
BRANCH  32  33
ATOM     33  C   UNL     1      -7.476  -4.038  -8.391  0.00  0.00    +0.264 C 
BRANCH  33  34
ATOM     34  C   UNL     1      -8.822  -4.064  -9.069  0.00  0.00    -0.010 A 
ATOM     35  C   UNL     1      -9.849  -4.822  -8.539  0.00  0.00    +0.008 A 
ATOM     36  C   UNL     1     -11.085  -4.842  -9.157  0.00  0.00    +0.020 A 
ATOM     37  C   UNL     1     -11.291  -4.111 -10.313  0.00  0.00    +0.041 A 
ATOM     38  C   UNL     1     -10.262  -3.356 -10.847  0.00  0.00    +0.020 A 
ATOM     39  C   UNL     1      -9.028  -3.333 -10.225  0.00  0.00    +0.008 A 
ATOM     40 CL   UNL     1     -12.841  -4.140 -11.094  0.00  0.00    -0.084 Cl
ENDBRANCH  33  34
ENDBRANCH  32  33
ENDBRANCH  30  32
ENDBRANCH  25  26
ENDBRANCH   3  24
TORSDOF 7
