REMARK  Name = ZINC16150964
REMARK  10 active torsions:
REMARK  status: ('A' for Active; 'I' for Inactive)
REMARK    1  A    between atoms: C_1  and  C_2
REMARK    2  A    between atoms: C_2  and  C_3
REMARK    3  A    between atoms: C_2  and  C_4
REMARK    4  A    between atoms: C_7  and  S_10
REMARK    5  A    between atoms: S_10  and  N_13
REMARK    6  A    between atoms: N_13  and  N_14
REMARK    7  A    between atoms: C_15  and  C_17
REMARK    8  A    between atoms: C_22  and  N_23
REMARK    9  A    between atoms: N_23  and  S_24
REMARK   10  A    between atoms: S_24  and  C_27
REMARK                            x       y       z     vdW  Elec       q    Type
REMARK                         _______ _______ _______ _____ _____    ______ ____
ROOT
ATOM      1  N   UNL     1       0.890   1.644   0.331  0.00  0.00    -0.228 N 
ATOM      2  C   UNL     1       1.921   1.419   1.170  0.00  0.00    +0.261 C 
ATOM      3  O   UNL     1       1.864   0.507   1.972  0.00  0.00    -0.269 OA
ATOM      4  H   UNL     1       0.935   2.371  -0.309  0.00  0.00    +0.171 HD
ENDROOT
BRANCH   2   5
ATOM      5  C   UNL     1       3.117   2.279   1.115  0.00  0.00    +0.060 A 
ATOM      6  C   UNL     1       3.187   3.328   0.195  0.00  0.00    +0.015 A 
ATOM      7  C   UNL     1       4.307   4.129   0.149  0.00  0.00    +0.001 A 
ATOM      8  C   UNL     1       5.367   3.899   1.011  0.00  0.00    +0.002 A 
ATOM      9  C   UNL     1       5.314   2.867   1.925  0.00  0.00    +0.025 A 
ATOM     10  C   UNL     1       4.190   2.053   1.990  0.00  0.00    +0.060 A 
BRANCH  10  11
ATOM     11  N   UNL     1       4.131   1.017   2.914  0.00  0.00    -0.215 N 
ATOM     12  H   UNL     1       3.691   0.185   2.681  0.00  0.00    +0.174 HD
BRANCH  11  13
ATOM     13  S   UNL     1       4.813   1.203   4.411  0.00  0.00    +0.079 S 
ATOM     14  O   UNL     1       4.473   0.043   5.159  0.00  0.00    -0.149 OA
ATOM     15  O   UNL     1       6.160   1.604   4.197  0.00  0.00    -0.149 OA
BRANCH  13  16
ATOM     16  C   UNL     1       4.002   2.560   5.189  0.00  0.00    +0.146 A 
ATOM     17  C   UNL     1       2.895   2.557   5.972  0.00  0.00    +0.036 A 
ATOM     18  C   UNL     1       2.432   3.756   6.480  0.00  0.00    +0.010 A 
ATOM     19  C   UNL     1       3.097   4.898   6.181  0.00  0.00    +0.047 A 
ATOM     20  S   UNL     1       4.427   4.293   5.156  0.00  0.00    -0.077 S 
ENDBRANCH  13  16
ENDBRANCH  11  13
ENDBRANCH  10  11
ENDBRANCH   2   5
BRANCH   1  21
ATOM     21  N   UNL     1      -0.247   0.826   0.383  0.00  0.00    -0.108 NA
ATOM     22  H   UNL     1      -0.157  -0.136   0.295  0.00  0.00    +0.172 HD
BRANCH  21  23
ATOM     23  S   UNL     1      -1.744   1.503   0.586  0.00  0.00    +0.074 S 
ATOM     24  O   UNL     1      -2.688   0.450   0.447  0.00  0.00    -0.152 OA
ATOM     25  O   UNL     1      -1.670   2.310   1.753  0.00  0.00    -0.152 OA
BRANCH  23  29
ATOM     26  C   UNL     1      -2.426   4.318  -2.893  0.00  0.00    -0.045 A 
ATOM     27  C   UNL     1      -2.811   2.994  -2.989  0.00  0.00    +0.006 A 
ATOM     28  C   UNL     1      -2.603   2.134  -1.927  0.00  0.00    +0.029 A 
ATOM     29  C   UNL     1      -2.009   2.599  -0.768  0.00  0.00    +0.107 A 
ATOM     30  C   UNL     1      -1.629   3.924  -0.669  0.00  0.00    +0.029 A 
ATOM     31  C   UNL     1      -1.833   4.782  -1.734  0.00  0.00    +0.006 A 
BRANCH  26  33
ATOM     32  C   UNL     1      -3.559   6.404  -3.608  0.00  0.00    +0.012 C 
ATOM     33  C   UNL     1      -2.652   5.254  -4.051  0.00  0.00    +0.013 C 
ATOM     34  C   UNL     1      -1.309   5.817  -4.522  0.00  0.00    +0.012 C 
ENDBRANCH  26  33
ENDBRANCH  23  29
ENDBRANCH  21  23
ENDBRANCH   1  21
TORSDOF 8
