REMARK  Name = ZINC04847777
REMARK  7 active torsions:
REMARK  status: ('A' for Active; 'I' for Inactive)
REMARK    1  A    between atoms: C_1  and  N_2
REMARK    2  A    between atoms: N_2  and  C_3
REMARK    3  A    between atoms: N_2  and  C_4
REMARK    4  A    between atoms: C_7  and  C_10
REMARK    5  A    between atoms: C_10  and  C_12
REMARK    6  A    between atoms: C_10  and  N_60
REMARK    7  A    between atoms: N_16  and  C_17
REMARK                            x       y       z     vdW  Elec       q    Type
REMARK                         _______ _______ _______ _____ _____    ______ ____
ROOT
ATOM      1  C   UNL     1      -1.194  -0.920   0.009  0.00  0.00    +0.034 C 
ENDROOT
BRANCH   1  11
ATOM      2  C   UNL     1      -3.374  -1.126   1.048  0.00  0.00    -0.072 C 
ATOM      3  C   UNL     1      -4.221  -0.534   2.175  0.00  0.00    +0.017 C 
ATOM      4  C   UNL     1      -4.501   0.921   1.897  0.00  0.00    -0.048 A 
ATOM      5  C   UNL     1      -5.525   1.542   2.596  0.00  0.00    +0.004 A 
ATOM      6  C   UNL     1      -5.809   2.875   2.378  0.00  0.00    +0.000 A 
ATOM      7  C   UNL     1      -5.069   3.595   1.459  0.00  0.00    +0.000 A 
ATOM      8  C   UNL     1      -4.050   2.977   0.762  0.00  0.00    +0.002 A 
ATOM      9  C   UNL     1      -3.764   1.637   0.978  0.00  0.00    -0.061 A 
ATOM     10  C   UNL     1      -2.647   1.006   0.190  0.00  0.00    -0.041 C 
ATOM     11  N   UNL     1      -2.211  -0.240   0.843  0.00  0.00    +0.392 N 
ATOM     12  H   UNL     1      -1.798  -0.014   1.755  0.00  0.00    -0.080 HD
ENDBRANCH   1  11
BRANCH   1  16
ATOM     13  C   UNL     1      -2.549  -1.214  -4.034  0.00  0.00    +0.029 A 
ATOM     14  C   UNL     1      -2.080  -0.001  -3.543  0.00  0.00    +0.023 A 
ATOM     15  C   UNL     1      -1.644   0.090  -2.236  0.00  0.00    +0.004 A 
ATOM     16  C   UNL     1      -1.672  -1.024  -1.416  0.00  0.00    -0.054 A 
ATOM     17  C   UNL     1      -2.132  -2.233  -1.904  0.00  0.00    +0.004 A 
ATOM     18  C   UNL     1      -2.576  -2.330  -3.208  0.00  0.00    +0.023 A 
BRANCH  13  20
ATOM     19  C   UNL     1      -2.961  -0.131  -6.225  0.00  0.00    +0.129 C 
ATOM     20  N   UNL     1      -2.991  -1.309  -5.355  0.00  0.00    -0.336 N 
ATOM     21  C   UNL     1      -3.484  -2.588  -5.872  0.00  0.00    +0.129 C 
ENDBRANCH  13  20
ENDBRANCH   1  16
BRANCH   1  22
ATOM     22  C   UNL     1       0.086  -0.127   0.054  0.00  0.00    +0.143 A 
ATOM     23  N   UNL     1       0.206   1.172  -0.076  0.00  0.00    -0.115 NA
ATOM     24  N   UNL     1       1.457   1.468   0.021  0.00  0.00    -0.023 NA
ATOM     25  N   UNL     1       2.137   0.391   0.209  0.00  0.00    -0.044 NA
ATOM     26  N   UNL     1       1.327  -0.613   0.235  0.00  0.00    -0.227 N 
BRANCH  26  27
ATOM     27  C   UNL     1       1.691  -2.020   0.426  0.00  0.00    +0.111 C 
ATOM     28  C   UNL     1       2.439  -2.195   1.764  0.00  0.00    +0.027 C 
ATOM     29  C   UNL     1       3.517  -3.265   1.458  0.00  0.00    +0.002 C 
ATOM     30  C   UNL     1       3.963  -2.901   0.021  0.00  0.00    +0.002 C 
ATOM     31  C   UNL     1       2.660  -2.468  -0.682  0.00  0.00    +0.027 C 
ENDBRANCH  26  27
ENDBRANCH   1  22
TORSDOF 5
