REMARK  Name = ZINC10036760
REMARK  7 active torsions:
REMARK  status: ('A' for Active; 'I' for Inactive)
REMARK    1  A    between atoms: C_4  and  C_7
REMARK    2  A    between atoms: C_7  and  C_8
REMARK    3  A    between atoms: C_8  and  C_28
REMARK    4  A    between atoms: N_11  and  C_15
REMARK    5  A    between atoms: C_15  and  N_64
REMARK    6  A    between atoms: N_18  and  C_21
REMARK    7  A    between atoms: C_28  and  C_29
REMARK                            x       y       z     vdW  Elec       q    Type
REMARK                         _______ _______ _______ _____ _____    ______ ____
ROOT
ATOM      1  C   UNL     1      -1.770   2.355   1.466  0.00  0.00    +0.120 C 
ATOM      2  C   UNL     1      -0.737   3.181   2.206  0.00  0.00    +0.245 C 
ATOM      3  O   UNL     1      -0.375   4.308   1.942  0.00  0.00    -0.273 OA
ATOM      4  N   UNL     1      -0.303   2.402   3.216  0.00  0.00    -0.241 N 
ATOM      5  C   UNL     1      -0.913   1.211   3.218  0.00  0.00    +0.308 C 
ATOM      6  O   UNL     1      -0.688   0.338   4.033  0.00  0.00    -0.252 OA
ATOM      7  N   UNL     1      -1.802   1.087   2.216  0.00  0.00    -0.284 N 
ATOM      8  H   UNL     1      -2.356   0.315   2.024  0.00  0.00    +0.151 HD
ENDROOT
BRANCH   1   9
ATOM      9  C   UNL     1      -1.332   2.114   0.020  0.00  0.00    +0.070 C 
BRANCH   9  13
ATOM     10  C   UNL     1       2.396   0.029  -0.022  0.00  0.00    +0.000 A 
ATOM     11  C   UNL     1       1.208  -0.679  -0.014  0.00  0.00    +0.000 A 
ATOM     12  C   UNL     1       0.002  -0.004   0.002  0.00  0.00    +0.004 A 
ATOM     13  C   UNL     1      -0.017   1.378   0.010  0.00  0.00    -0.045 A 
ATOM     14  C   UNL     1       1.171   2.086   0.002  0.00  0.00    +0.004 A 
ATOM     15  C   UNL     1       2.377   1.411  -0.014  0.00  0.00    +0.000 A 
ENDBRANCH   9  13
ENDBRANCH   1   9
BRANCH   4  16
ATOM     16  C   UNL     1       0.711   2.809   4.192  0.00  0.00    +0.043 C 
BRANCH  16  22
ATOM     17  C   UNL     1       2.324   1.017   3.964  0.00  0.00    -0.057 C 
ATOM     18  C   UNL     1       3.684   0.648   3.366  0.00  0.00    +0.086 C 
ATOM     19  N   UNL     1       4.723   1.507   3.952  0.00  0.00    -0.333 N 
ATOM     20  C   UNL     1       4.442   2.925   3.687  0.00  0.00    +0.086 C 
ATOM     21  C   UNL     1       3.082   3.293   4.285  0.00  0.00    -0.057 C 
ATOM     22  N   UNL     1       2.044   2.438   3.671  0.00  0.00    +0.392 N 
ATOM     23  H   UNL     1       2.055   2.578   2.654  0.00  0.00    -0.079 HD
BRANCH  19  24
ATOM     24  C   UNL     1       5.991   1.151   3.483  0.00  0.00    +0.030 A 
ATOM     25  C   UNL     1       6.791   2.097   2.857  0.00  0.00    +0.026 A 
ATOM     26  C   UNL     1       8.046   1.744   2.398  0.00  0.00    +0.040 A 
ATOM     27  C   UNL     1       8.500   0.446   2.553  0.00  0.00    +0.124 A 
ATOM     28  C   UNL     1       7.702  -0.501   3.172  0.00  0.00    +0.040 A 
ATOM     29  C   UNL     1       6.449  -0.151   3.637  0.00  0.00    +0.026 A 
ATOM     30  F   UNL     1       9.726   0.102   2.099  0.00  0.00    -0.205 F 
ENDBRANCH  19  24
ENDBRANCH  16  22
ENDBRANCH   4  16
BRANCH   1  31
ATOM     31  C   UNL     1      -3.139   3.038   1.505  0.00  0.00    +0.070 C 
BRANCH  31  32
ATOM     32  C   UNL     1      -3.546   3.264   2.938  0.00  0.00    -0.045 A 
ATOM     33  C   UNL     1      -4.273   2.299   3.610  0.00  0.00    +0.004 A 
ATOM     34  C   UNL     1      -4.643   2.504   4.926  0.00  0.00    +0.000 A 
ATOM     35  C   UNL     1      -4.295   3.678   5.567  0.00  0.00    +0.000 A 
ATOM     36  C   UNL     1      -3.574   4.646   4.893  0.00  0.00    +0.000 A 
ATOM     37  C   UNL     1      -3.199   4.439   3.579  0.00  0.00    +0.004 A 
ENDBRANCH  31  32
ENDBRANCH   1  31
TORSDOF 7
