REMARK  Name = ZINC06769578
REMARK  7 active torsions:
REMARK  status: ('A' for Active; 'I' for Inactive)
REMARK    1  A    between atoms: C_1  and  C_2
REMARK    2  A    between atoms: C_7  and  N_8
REMARK    3  A    between atoms: C_9  and  C_23
REMARK    4  A    between atoms: C_11  and  O_15
REMARK    5  A    between atoms: O_15  and  C_16
REMARK    6  A    between atoms: C_23  and  N_57
REMARK    7  A    between atoms: C_24  and  N_57
REMARK                            x       y       z     vdW  Elec       q    Type
REMARK                         _______ _______ _______ _____ _____    ______ ____
ROOT
ATOM      1  N   UNL     1       4.879   4.675  -0.949  0.00  0.00    -0.263 N 
ATOM      2  C   UNL     1       4.680   4.255   0.443  0.00  0.00    +0.114 C 
ATOM      3  C   UNL     1       3.457   3.527  -0.123  0.00  0.00    +0.278 C 
ATOM      4  C   UNL     1       3.812   4.050  -1.493  0.00  0.00    +0.263 C 
ATOM      5  O   UNL     1       3.341   3.953  -2.607  0.00  0.00    -0.271 OA
ENDROOT
BRANCH   1  12
ATOM      6  C   UNL     1       7.232   3.406  -1.924  0.00  0.00    +0.045 C 
ATOM      7  C   UNL     1       7.032   4.897  -2.021  0.00  0.00    -0.029 A 
ATOM      8  C   UNL     1       8.006   5.689  -2.596  0.00  0.00    +0.005 A 
ATOM      9  C   UNL     1       7.823   7.057  -2.685  0.00  0.00    +0.000 A 
ATOM     10  C   UNL     1       6.665   7.636  -2.199  0.00  0.00    +0.002 A 
ATOM     11  C   UNL     1       5.684   6.848  -1.628  0.00  0.00    +0.024 A 
ATOM     12  C   UNL     1       5.868   5.475  -1.532  0.00  0.00    +0.040 A 
ENDBRANCH   1  12
BRANCH   3  13
ATOM     13  O   UNL     1       3.549   2.105  -0.021  0.00  0.00    -0.478 OA
BRANCH  13  14
ATOM     14  C   UNL     1       2.444   1.389  -0.360  0.00  0.00    +0.122 A 
ATOM     15  C   UNL     1       2.425   0.014  -0.180  0.00  0.00    +0.047 A 
ATOM     16  C   UNL     1       1.302  -0.712  -0.526  0.00  0.00    +0.023 A 
ATOM     17  C   UNL     1       0.195  -0.068  -1.051  0.00  0.00    +0.041 A 
ATOM     18  C   UNL     1       0.212   1.304  -1.230  0.00  0.00    +0.023 A 
ATOM     19  C   UNL     1       1.334   2.033  -0.886  0.00  0.00    +0.047 A 
ATOM     20 CL   UNL     1      -1.216  -0.982  -1.485  0.00  0.00    -0.084 Cl
ENDBRANCH  13  14
ENDBRANCH   3  13
BRANCH   2  21
ATOM     21  C   UNL     1       4.340   5.400   1.399  0.00  0.00    -0.055 C 
BRANCH  21  22
ATOM     22  N   UNL     1       5.583   6.096   1.781  0.00  0.00    +0.382 N 
ATOM     23  H   UNL     1       6.035   6.469   0.938  0.00  0.00    -0.085 HD
ATOM     24  H   UNL     1       6.215   5.432   2.244  0.00  0.00    -0.085 HD
BRANCH  22  25
ATOM     25  C   UNL     1       5.285   7.207   2.704  0.00  0.00    -0.072 C 
ATOM     26  C   UNL     1       4.837   8.434   1.883  0.00  0.00    -0.016 C 
ATOM     27  C   UNL     1       4.073   9.362   2.788  0.00  0.00    -0.002 C 
ATOM     28  C   UNL     1       4.968  10.457   3.401  0.00  0.00    -0.000 C 
ATOM     29  C   UNL     1       6.338   9.922   3.857  0.00  0.00    -0.000 C 
ATOM     30  C   UNL     1       6.236   8.589   4.547  0.00  0.00    -0.002 C 
ATOM     31  C   UNL     1       6.471   7.478   3.503  0.00  0.00    -0.016 C 
ENDBRANCH  22  25
ENDBRANCH  21  22
ENDBRANCH   2  21
TORSDOF 6
