REMARK  Name = ZINC28933083
REMARK  7 active torsions:
REMARK  status: ('A' for Active; 'I' for Inactive)
REMARK    1  A    between atoms: C_1  and  C_2
REMARK    2  A    between atoms: C_5  and  N_8
REMARK    3  A    between atoms: C_18  and  S_19
REMARK    4  A    between atoms: S_19  and  C_20
REMARK    5  A    between atoms: C_20  and  C_21
REMARK    6  A    between atoms: C_23  and  O_24
REMARK    7  A    between atoms: C_33  and  C_35
REMARK                            x       y       z     vdW  Elec       q    Type
REMARK                         _______ _______ _______ _____ _____    ______ ____
ROOT
ATOM      1  S   UNL     1       0.968  -2.959   0.146  0.00  0.00    -0.083 S 
ENDROOT
BRANCH   1  12
ATOM      2  N   UNL     1       0.121  -0.399   0.116  0.00  0.00    -0.255 N 
ATOM      3  C   UNL     1       0.264   0.945   0.055  0.00  0.00    +0.267 A 
ATOM      4  O   UNL     1      -0.702   1.685   0.097  0.00  0.00    -0.267 OA
ATOM      5  C   UNL     1       1.627   1.479  -0.070  0.00  0.00    +0.065 A 
ATOM      6  C   UNL     1       1.878   2.849  -0.140  0.00  0.00    +0.015 A 
ATOM      7  C   UNL     1       3.167   3.292  -0.256  0.00  0.00    +0.001 A 
ATOM      8  C   UNL     1       4.225   2.394  -0.304  0.00  0.00    +0.002 A 
ATOM      9  C   UNL     1       4.007   1.046  -0.238  0.00  0.00    +0.028 A 
ATOM     10  C   UNL     1       2.701   0.562  -0.119  0.00  0.00    +0.079 A 
ATOM     11  N   UNL     1       2.440  -0.765  -0.050  0.00  0.00    -0.223 NA
ATOM     12  C   UNL     1       1.216  -1.217   0.062  0.00  0.00    +0.177 A 
BRANCH   2  17
ATOM     13  C   UNL     1      -5.061  -2.661   0.602  0.00  0.00    +0.044 C 
ATOM     14  C   UNL     1      -3.685  -2.060   0.473  0.00  0.00    -0.050 A 
ATOM     15  C   UNL     1      -2.940  -2.280  -0.672  0.00  0.00    +0.005 A 
ATOM     16  C   UNL     1      -1.679  -1.731  -0.793  0.00  0.00    +0.026 A 
ATOM     17  C   UNL     1      -1.158  -0.957   0.236  0.00  0.00    +0.052 A 
ATOM     18  C   UNL     1      -1.907  -0.742   1.386  0.00  0.00    +0.026 A 
ATOM     19  C   UNL     1      -3.169  -1.290   1.499  0.00  0.00    +0.005 A 
ENDBRANCH   2  17
ENDBRANCH   1  12
BRANCH   1  20
ATOM     20  C   UNL     1       2.683  -3.527   0.035  0.00  0.00    +0.113 C 
BRANCH  20  21
ATOM     21  C   UNL     1       2.718  -5.032   0.088  0.00  0.00    -0.020 A 
ATOM     22  C   UNL     1       2.645  -5.772  -1.049  0.00  0.00    +0.092 A 
ATOM     23  C   UNL     1       2.681  -7.180  -0.973  0.00  0.00    +0.285 A 
ATOM     24  O   UNL     1       2.786  -7.820   0.202  0.00  0.00    -0.425 OA
ATOM     25  C   UNL     1       2.863  -7.144   1.369  0.00  0.00    +0.141 A 
ATOM     26  C   UNL     1       2.839  -5.737   1.366  0.00  0.00    +0.022 A 
ATOM     27  C   UNL     1       2.912  -5.032   2.573  0.00  0.00    +0.013 A 
ATOM     28  C   UNL     1       3.018  -5.713   3.751  0.00  0.00    +0.024 A 
ATOM     29  C   UNL     1       3.047  -7.107   3.760  0.00  0.00    +0.037 A 
ATOM     30  C   UNL     1       2.970  -7.821   2.573  0.00  0.00    +0.070 A 
ATOM     31  N   UNL     1       3.156  -7.790   4.972  0.00  0.00    -0.286 N 
ATOM     32  C   UNL     1       3.852  -8.941   5.038  0.00  0.00    +0.214 C 
ATOM     33  O   UNL     1       4.468  -9.334   4.069  0.00  0.00    -0.276 OA
ATOM     34  C   UNL     1       3.867  -9.742   6.314  0.00  0.00    +0.109 C 
ATOM     35  H   UNL     1       2.673  -7.387   5.875  0.00  0.00    +0.155 HD
BRANCH  23  36
ATOM     36  O   UNL     1       2.615  -7.831  -2.000  0.00  0.00    -0.480 OA
ATOM     37  H   UNL     1       2.641  -8.930  -1.957  0.00  0.00    +0.295 HD
ENDBRANCH  23  36
ENDBRANCH  20  21
ENDBRANCH   1  20
TORSDOF 5
