REMARK  Name = ZINC65010913
REMARK  7 active torsions:
REMARK  status: ('A' for Active; 'I' for Inactive)
REMARK    1  A    between atoms: C_1  and  C_2
REMARK    2  A    between atoms: C_5  and  C_30
REMARK    3  A    between atoms: C_6  and  C_21
REMARK    4  A    between atoms: C_9  and  S_12
REMARK    5  A    between atoms: C_10  and  C_11
REMARK    6  A    between atoms: S_12  and  N_15
REMARK    7  A    between atoms: N_15  and  C_16
REMARK                            x       y       z     vdW  Elec       q    Type
REMARK                         _______ _______ _______ _____ _____    ______ ____
ROOT
ATOM      1  C   UNL     1      -0.144   1.953   1.068  0.00  0.00    +0.044 C 
ATOM      2  C   UNL     1       0.016   0.459   0.951  0.00  0.00    -0.045 A 
ATOM      3  C   UNL     1       0.052  -0.124  -0.285  0.00  0.00    +0.015 A 
ATOM      4  C   UNL     1       0.200  -1.509  -0.392  0.00  0.00    +0.026 A 
ATOM      5  C   UNL     1       0.277  -2.442  -1.516  0.00  0.00    +0.008 A 
ATOM      6  C   UNL     1       0.424  -3.677  -0.970  0.00  0.00    +0.194 A 
ATOM      7  O   UNL     1       0.444  -3.581   0.376  0.00  0.00    -0.448 OA
ATOM      8  C   UNL     1       0.312  -2.299   0.768  0.00  0.00    +0.163 A 
ATOM      9  C   UNL     1       0.273  -1.682   2.013  0.00  0.00    +0.151 A 
ATOM     10  C   UNL     1       0.131  -0.314   2.097  0.00  0.00    -0.018 A 
ATOM     11  C   UNL     1       0.095   0.349   3.450  0.00  0.00    +0.046 C 
ATOM     12  C   UNL     1       0.207  -2.102  -2.982  0.00  0.00    +0.048 C 
ENDROOT
BRANCH   6  13
ATOM     13  C   UNL     1       0.544  -4.929  -1.730  0.00  0.00    +0.282 C 
ATOM     14  O   UNL     1       0.472  -4.912  -2.945  0.00  0.00    -0.267 OA
ATOM     15  N   UNL     1       0.734  -6.095  -1.082  0.00  0.00    -0.295 N 
ATOM     16  C   UNL     1       0.684  -6.101   0.362  0.00  0.00    +0.108 C 
ATOM     17  C   UNL     1       2.097  -5.824   0.932  0.00  0.00    +0.019 C 
ATOM     18  C   UNL     1       2.974  -6.984   0.712  0.00  0.00    +0.002 C 
ATOM     19  C   UNL     1       3.217  -7.317  -0.757  0.00  0.00    +0.002 C 
ATOM     20  C   UNL     1       2.095  -8.187  -1.266  0.00  0.00    +0.019 C 
ATOM     21  C   UNL     1       0.978  -7.314  -1.877  0.00  0.00    +0.108 C 
ENDBRANCH   6  13
BRANCH   9  22
ATOM     22  S   UNL     1       0.411  -2.648   3.481  0.00  0.00    +0.062 S 
ATOM     23  O   UNL     1      -0.109  -1.855   4.539  0.00  0.00    -0.153 OA
ATOM     24  O   UNL     1      -0.103  -3.935   3.170  0.00  0.00    -0.153 OA
BRANCH  22  25
ATOM     25  N   UNL     1       2.026  -2.845   3.787  0.00  0.00    -0.187 NA
ATOM     26  H   UNL     1       2.420  -3.731   3.763  0.00  0.00    +0.148 HD
BRANCH  25  27
ATOM     27  C   UNL     1       2.861  -1.681   4.095  0.00  0.00    +0.077 C 
ATOM     28  C   UNL     1       3.625  -1.230   2.833  0.00  0.00    +0.020 C 
ATOM     29  C   UNL     1       5.009  -0.783   3.366  0.00  0.00    +0.002 C 
ATOM     30  C   UNL     1       5.297  -1.821   4.479  0.00  0.00    +0.002 C 
ATOM     31  C   UNL     1       3.924  -2.057   5.142  0.00  0.00    +0.020 C 
ENDBRANCH  25  27
ENDBRANCH  22  25
ENDBRANCH   9  22
TORSDOF 4
