REMARK  Name = ZINC39882238
REMARK  10 active torsions:
REMARK  status: ('A' for Active; 'I' for Inactive)
REMARK    1  A    between atoms: C_1  and  C_2
REMARK    2  A    between atoms: C_2  and  C_3
REMARK    3  A    between atoms: C_2  and  C_4
REMARK    4  A    between atoms: C_2  and  C_5
REMARK    5  A    between atoms: N_7  and  C_8
REMARK    6  A    between atoms: C_8  and  C_18
REMARK    7  A    between atoms: C_9  and  C_10
REMARK    8  A    between atoms: N_20  and  C_21
REMARK    9  A    between atoms: C_24  and  N_30
REMARK   10  A    between atoms: C_26  and  N_27
REMARK                            x       y       z     vdW  Elec       q    Type
REMARK                         _______ _______ _______ _____ _____    ______ ____
ROOT
ATOM      1  C   UNL     1       1.520  -2.444  -2.280  0.00  0.00    +0.097 C 
ATOM      2  C   UNL     1       1.323  -3.228  -3.365  0.00  0.00    +0.039 C 
ENDROOT
BRANCH   2   3
ATOM      3  C   UNL     1       1.999  -2.912  -4.632  0.00  0.00    +0.014 A 
ATOM      4  C   UNL     1       1.696  -1.728  -5.316  0.00  0.00    +0.050 A 
ATOM      5  C   UNL     1       2.335  -1.440  -6.505  0.00  0.00    +0.020 A 
ATOM      6  C   UNL     1       3.273  -2.317  -7.021  0.00  0.00    +0.003 A 
ATOM      7  C   UNL     1       3.579  -3.489  -6.352  0.00  0.00    +0.020 A 
ATOM      8  C   UNL     1       2.954  -3.790  -5.159  0.00  0.00    +0.050 A 
ATOM      9 CL   UNL     1       3.345  -5.257  -4.318  0.00  0.00    -0.083 Cl
ATOM     10 CL   UNL     1       0.519  -0.628  -4.671  0.00  0.00    -0.083 Cl
ENDBRANCH   2   3
BRANCH   1  13
ATOM     11  C   UNL     1       1.047  -1.956   0.001  0.00  0.00    +0.223 C 
ATOM     12  O   UNL     1       1.985  -1.187   0.018  0.00  0.00    -0.275 OA
ATOM     13  N   UNL     1       0.774  -2.660  -1.116  0.00  0.00    -0.281 N 
ATOM     14  H   UNL     1       0.060  -3.317  -1.113  0.00  0.00    +0.155 HD
BRANCH  11  16
ATOM     15  C   UNL     1       0.709  -1.218   2.344  0.00  0.00    +0.020 C 
ATOM     16  C   UNL     1       0.187  -2.124   1.227  0.00  0.00    +0.039 C 
ATOM     17  C   UNL     1       0.236  -3.583   1.688  0.00  0.00    +0.020 C 
ATOM     18  C   UNL     1      -1.256  -1.743   0.894  0.00  0.00    +0.020 C 
ENDBRANCH  11  16
ENDBRANCH   1  13
BRANCH   1  19
ATOM     19  C   UNL     1       2.517  -1.366  -2.323  0.00  0.00    +0.262 C 
ATOM     20  O   UNL     1       2.156  -0.206  -2.391  0.00  0.00    -0.268 OA
ATOM     21  N   UNL     1       3.831  -1.661  -2.288  0.00  0.00    -0.279 N 
ATOM     22  H   UNL     1       4.121  -2.587  -2.300  0.00  0.00    +0.155 HD
BRANCH  21  23
ATOM     23  C   UNL     1       4.778  -0.634  -2.233  0.00  0.00    +0.064 A 
ATOM     24  C   UNL     1       4.538   0.569  -2.884  0.00  0.00    +0.028 A 
ATOM     25  C   UNL     1       5.475   1.582  -2.828  0.00  0.00    +0.034 A 
ATOM     26  C   UNL     1       6.652   1.399  -2.125  0.00  0.00    +0.128 A 
ATOM     27  C   UNL     1       6.894   0.203  -1.476  0.00  0.00    +0.067 A 
ATOM     28  C   UNL     1       5.958  -0.812  -1.522  0.00  0.00    +0.149 A 
BRANCH  28  29
ATOM     29  N   UNL     1       6.215  -2.090  -0.821  0.00  0.00    +0.058 N 
ATOM     30  O   UNL     1       7.209  -2.219  -0.145  0.00  0.00    -0.126 OA
ATOM     31  O   UNL     1       5.432  -3.005  -0.925  0.00  0.00    -0.126 OA
ENDBRANCH  28  29
BRANCH  26  32
ATOM     32  N   UNL     1       7.654   2.487  -2.067  0.00  0.00    +0.056 N 
ATOM     33  O   UNL     1       7.444   3.534  -2.635  0.00  0.00    -0.126 OA
ATOM     34  O   UNL     1       8.683   2.329  -1.453  0.00  0.00    -0.126 OA
ENDBRANCH  26  32
ENDBRANCH  21  23
ENDBRANCH   1  19
TORSDOF 7
