REMARK  Name = ZINC60943139
REMARK  7 active torsions:
REMARK  status: ('A' for Active; 'I' for Inactive)
REMARK    1  A    between atoms: C_1  and  C_2
REMARK    2  A    between atoms: C_3  and  C_29
REMARK    3  A    between atoms: C_11  and  C_13
REMARK    4  A    between atoms: C_13  and  C_14
REMARK    5  A    between atoms: C_13  and  N_15
REMARK    6  A    between atoms: N_15  and  C_16
REMARK    7  A    between atoms: C_19  and  N_22
REMARK                            x       y       z     vdW  Elec       q    Type
REMARK                         _______ _______ _______ _____ _____    ______ ____
ROOT
ATOM      1  N   UNL     1      -0.016  -4.809   4.057  0.00  0.00    -0.334 N 
ATOM      2  H   UNL     1      -0.437  -4.988   3.201  0.00  0.00    +0.147 HD
ENDROOT
BRANCH   1   3
ATOM      3  C   UNL     1       0.489  -5.863   4.821  0.00  0.00    +0.028 A 
ATOM      4  C   UNL     1       1.087  -5.609   6.049  0.00  0.00    +0.025 A 
ATOM      5  C   UNL     1       1.584  -6.654   6.802  0.00  0.00    +0.023 A 
ATOM      6  C   UNL     1       1.488  -7.952   6.335  0.00  0.00    +0.014 A 
ATOM      7  C   UNL     1       0.894  -8.209   5.114  0.00  0.00    +0.023 A 
ATOM      8  C   UNL     1       0.389  -7.169   4.358  0.00  0.00    +0.025 A 
BRANCH   6   9
ATOM      9  N   UNL     1       1.994  -9.007   7.100  0.00  0.00    -0.393 NA
ATOM     10  C   UNL     1       3.100  -9.643   6.357  0.00  0.00    +0.085 C 
ATOM     11  C   UNL     1       4.008 -10.324   7.351  0.00  0.00    +0.017 C 
ATOM     12  C   UNL     1       3.667 -11.819   7.492  0.00  0.00    +0.002 C 
ATOM     13  C   UNL     1       2.144 -12.061   7.503  0.00  0.00    +0.002 C 
ATOM     14  C   UNL     1       1.406 -11.034   8.322  0.00  0.00    +0.017 C 
ATOM     15  C   UNL     1       0.950  -9.885   7.397  0.00  0.00    +0.085 C 
ATOM     16  H   UNL     1       2.359  -8.634   7.964  0.00  0.00    +0.126 HD
ENDBRANCH   6   9
ENDBRANCH   1   3
BRANCH   1  17
ATOM     17  C   UNL     1       0.090  -3.432   4.547  0.00  0.00    +0.133 C 
ATOM     18  C   UNL     1      -1.088  -3.129   5.476  0.00  0.00    +0.036 C 
BRANCH  17  29
ATOM     19  C   UNL     1      -0.018   1.503   0.010  0.00  0.00    +0.045 C 
ATOM     20  C   UNL     1       0.002  -0.004   0.002  0.00  0.00    -0.026 A 
ATOM     21  C   UNL     1       0.006  -0.677  -1.160  0.00  0.00    -0.008 A 
ATOM     22  S   UNL     1       0.032  -2.385  -0.648  0.00  0.00    -0.073 S 
ATOM     23  C   UNL     1       0.037  -2.144   1.110  0.00  0.00    +0.116 A 
ATOM     24  C   UNL     1       0.024  -0.745   1.250  0.00  0.00    +0.075 A 
ATOM     25  C   UNL     1       0.029  -0.257   2.597  0.00  0.00    +0.260 A 
ATOM     26  O   UNL     1       0.014   0.942   2.821  0.00  0.00    -0.267 OA
ATOM     27  N   UNL     1       0.051  -1.142   3.611  0.00  0.00    -0.309 N 
ATOM     28  H   UNL     1       0.054  -0.817   4.525  0.00  0.00    +0.170 HD
ATOM     29  C   UNL     1       0.067  -2.480   3.380  0.00  0.00    +0.131 A 
ATOM     30  N   UNL     1       0.053  -2.956   2.163  0.00  0.00    -0.225 NA
ATOM     31  C   UNL     1      -0.009  -0.122  -2.561  0.00  0.00    +0.052 C 
ENDBRANCH  17  29
ENDBRANCH   1  17
TORSDOF 4
