REMARK  Name = ZINC15678370
REMARK  11 active torsions:
REMARK  status: ('A' for Active; 'I' for Inactive)
REMARK    1  A    between atoms: C_1  and  C_2
REMARK    2  A    between atoms: C_7  and  C_35
REMARK    3  A    between atoms: N_9  and  C_10
REMARK    4  A    between atoms: C_10  and  C_11
REMARK    5  A    between atoms: C_11  and  C_12
REMARK    6  A    between atoms: C_12  and  N_13
REMARK    7  A    between atoms: C_14  and  C_16
REMARK    8  A    between atoms: C_16  and  C_17
REMARK    9  A    between atoms: C_17  and  C_18
REMARK   10  A    between atoms: N_20  and  C_27
REMARK   11  A    between atoms: C_27  and  C_28
REMARK                            x       y       z     vdW  Elec       q    Type
REMARK                         _______ _______ _______ _____ _____    ______ ____
ROOT
ATOM      1  C   UNL     1       8.398  -0.544   5.055  0.00  0.00    +0.046 C 
ENDROOT
BRANCH   1   2
ATOM      2  C   UNL     1       9.099  -1.129   6.254  0.00  0.00    -0.022 A 
ATOM      3  C   UNL     1       9.216  -0.563   7.465  0.00  0.00    +0.090 A 
ATOM      4  N   UNL     1       9.919  -1.388   8.300  0.00  0.00    -0.342 N 
ATOM      5  C   UNL     1      10.281  -2.535   7.630  0.00  0.00    +0.050 A 
ATOM      6  C   UNL     1       9.778  -2.425   6.320  0.00  0.00    +0.003 A 
ATOM      7  C   UNL     1       9.991  -3.457   5.404  0.00  0.00    +0.010 A 
ATOM      8  C   UNL     1      10.684  -4.571   5.786  0.00  0.00    +0.001 A 
ATOM      9  C   UNL     1      11.179  -4.686   7.077  0.00  0.00    +0.002 A 
ATOM     10  C   UNL     1      10.988  -3.675   7.995  0.00  0.00    +0.026 A 
BRANCH   4  11
ATOM     11  C   UNL     1      10.239  -1.095   9.700  0.00  0.00    +0.159 C 
BRANCH  11  12
ATOM     12  C   UNL     1      11.614  -0.485   9.784  0.00  0.00    +0.007 A 
ATOM     13  C   UNL     1      12.711  -1.285  10.039  0.00  0.00    +0.008 A 
ATOM     14  C   UNL     1      13.973  -0.726  10.116  0.00  0.00    +0.000 A 
ATOM     15  C   UNL     1      14.138   0.635   9.938  0.00  0.00    +0.003 A 
ATOM     16  C   UNL     1      13.043   1.438   9.682  0.00  0.00    +0.039 A 
ATOM     17  C   UNL     1      11.779   0.877   9.600  0.00  0.00    +0.128 A 
ATOM     18  F   UNL     1      10.708   1.660   9.345  0.00  0.00    -0.205 F 
ENDBRANCH  11  12
ENDBRANCH   4  11
ENDBRANCH   1   2
BRANCH   1  19
ATOM     19  C   UNL     1       6.962  -1.070   4.998  0.00  0.00    +0.100 C 
BRANCH  19  21
ATOM     20  N   UNL     1       4.977  -0.810   3.545  0.00  0.00    -0.315 N 
ATOM     21  C   UNL     1       6.261  -0.486   3.799  0.00  0.00    +0.213 C 
ATOM     22  O   UNL     1       6.851   0.276   3.063  0.00  0.00    -0.276 OA
ATOM     23  H   UNL     1       4.505  -1.419   4.134  0.00  0.00    +0.149 HD
BRANCH  20  24
ATOM     24  C   UNL     1       4.295  -0.242   2.380  0.00  0.00    +0.102 C 
BRANCH  24  25
ATOM     25  C   UNL     1       2.859  -0.768   2.322  0.00  0.00    +0.000 C 
BRANCH  25  26
ATOM     26  C   UNL     1       2.147  -0.174   1.105  0.00  0.00    -0.077 C 
BRANCH  26  33
ATOM     27  C   UNL     1       1.405  -2.630  -0.036  0.00  0.00    -0.013 C 
ATOM     28  C   UNL     1       0.648  -2.043   1.157  0.00  0.00    -0.071 C 
ATOM     29  C   UNL     1      -0.820  -2.472   1.089  0.00  0.00    -0.016 C 
ATOM     30  C   UNL     1      -1.574  -1.883   2.285  0.00  0.00    -0.003 C 
ATOM     31  C   UNL     1      -1.413  -0.360   2.277  0.00  0.00    -0.016 C 
ATOM     32  C   UNL     1       0.076  -0.010   2.301  0.00  0.00    -0.071 C 
ATOM     33  N   UNL     1       0.735  -0.579   1.119  0.00  0.00    +0.383 N 
ATOM     34  C   UNL     1       0.242   1.511   2.293  0.00  0.00    -0.013 C 
ATOM     35  H   UNL     1       0.281  -0.237   0.285  0.00  0.00    -0.081 HD
ENDBRANCH  26  33
ENDBRANCH  25  26
ENDBRANCH  24  25
ENDBRANCH  20  24
ENDBRANCH  19  21
ENDBRANCH   1  19
TORSDOF 9
