REMARK  Name = ZINC13696265
REMARK  8 active torsions:
REMARK  status: ('A' for Active; 'I' for Inactive)
REMARK    1  A    between atoms: C_1  and  C_2
REMARK    2  A    between atoms: C_2  and  C_3
REMARK    3  A    between atoms: C_6  and  O_29
REMARK    4  A    between atoms: C_7  and  S_9
REMARK    5  A    between atoms: S_9  and  N_12
REMARK    6  A    between atoms: N_12  and  C_13
REMARK    7  A    between atoms: C_22  and  C_24
REMARK    8  A    between atoms: O_29  and  C_30
REMARK                            x       y       z     vdW  Elec       q    Type
REMARK                         _______ _______ _______ _____ _____    ______ ____
ROOT
ATOM      1  C   UNL     1      -3.841   3.673   0.956  0.00  0.00    +0.050 A 
ATOM      2  C   UNL     1      -3.927   3.731  -0.430  0.00  0.00    +0.025 A 
ATOM      3  C   UNL     1      -2.979   3.090  -1.203  0.00  0.00    +0.007 A 
ATOM      4  C   UNL     1      -1.947   2.393  -0.603  0.00  0.00    -0.024 A 
ATOM      5  C   UNL     1      -1.849   2.327   0.778  0.00  0.00    +0.042 A 
ATOM      6  C   UNL     1      -2.807   2.975   1.558  0.00  0.00    +0.048 A 
ATOM      7  N   UNL     1      -0.738   1.578   1.182  0.00  0.00    -0.266 N 
ATOM      8  C   UNL     1      -0.013   1.086   0.008  0.00  0.00    +0.119 C 
ATOM      9  C   UNL     1      -0.797   1.615  -1.204  0.00  0.00    +0.056 C 
ATOM     10  C   UNL     1      -0.386   1.342   2.462  0.00  0.00    +0.257 C 
ATOM     11  O   UNL     1      -1.056   1.796   3.371  0.00  0.00    -0.269 OA
ENDROOT
BRANCH  10  12
ATOM     12  C   UNL     1       0.803   0.539   2.759  0.00  0.00    +0.074 A 
ATOM     13  C   UNL     1       1.333   0.184   3.990  0.00  0.00    +0.021 A 
ATOM     14  C   UNL     1       2.470  -0.585   3.983  0.00  0.00    +0.008 A 
ATOM     15  C   UNL     1       3.013  -0.955   2.794  0.00  0.00    +0.046 A 
ATOM     16  S   UNL     1       1.944  -0.242   1.631  0.00  0.00    -0.092 S 
ENDBRANCH  10  12
BRANCH   1  17
ATOM     17  N   UNL     1      -4.797   4.319   1.742  0.00  0.00    -0.216 N 
ATOM     18  H   UNL     1      -4.520   4.849   2.506  0.00  0.00    +0.174 HD
BRANCH  17  19
ATOM     19  S   UNL     1      -6.405   4.181   1.370  0.00  0.00    +0.076 S 
ATOM     20  O   UNL     1      -7.115   4.918   2.356  0.00  0.00    -0.150 OA
ATOM     21  O   UNL     1      -6.526   4.455  -0.019  0.00  0.00    -0.150 OA
BRANCH  19  26
ATOM     22  C   UNL     1      -8.099   0.807   2.747  0.00  0.00    -0.046 A 
ATOM     23  C   UNL     1      -7.542  -0.167   1.938  0.00  0.00    +0.007 A 
ATOM     24  C   UNL     1      -6.638   0.183   0.955  0.00  0.00    +0.048 A 
ATOM     25  C   UNL     1      -6.288   1.514   0.779  0.00  0.00    +0.147 A 
ATOM     26  C   UNL     1      -6.848   2.490   1.591  0.00  0.00    +0.150 A 
ATOM     27  C   UNL     1      -7.748   2.133   2.576  0.00  0.00    +0.036 A 
BRANCH  22  29
ATOM     28  C   UNL     1      -8.336   0.131   5.121  0.00  0.00    +0.009 C 
ATOM     29  C   UNL     1      -9.085   0.422   3.819  0.00  0.00    +0.032 C 
ENDBRANCH  22  29
BRANCH  25  30
ATOM     30  O   UNL     1      -5.398   1.862  -0.188  0.00  0.00    -0.493 OA
ATOM     31  C   UNL     1      -4.862   0.805  -0.987  0.00  0.00    +0.277 C 
ENDBRANCH  25  30
ENDBRANCH  19  26
ENDBRANCH  17  19
ENDBRANCH   1  17
TORSDOF 6
