REMARK  Name = ZINC36133350
REMARK  6 active torsions:
REMARK  status: ('A' for Active; 'I' for Inactive)
REMARK    1  A    between atoms: C_3  and  O_22
REMARK    2  A    between atoms: C_4  and  C_19
REMARK    3  A    between atoms: C_6  and  S_7
REMARK    4  A    between atoms: S_7  and  N_10
REMARK    5  A    between atoms: C_15  and  C_17
REMARK    6  A    between atoms: C_17  and  O_18
REMARK                            x       y       z     vdW  Elec       q    Type
REMARK                         _______ _______ _______ _____ _____    ______ ____
ROOT
ATOM      1  S   UNL     1      -1.371  -0.823  -0.035  0.00  0.00    +0.061 S 
ATOM      2  O   UNL     1      -1.146  -2.098   0.551  0.00  0.00    -0.153 OA
ATOM      3  O   UNL     1      -2.272   0.124   0.524  0.00  0.00    -0.153 OA
ENDROOT
BRANCH   1   9
ATOM      4  C   UNL     1       0.270   1.354  -0.182  0.00  0.00    +0.032 A 
ATOM      5  C   UNL     1       1.494   1.989  -0.258  0.00  0.00    +0.048 A 
ATOM      6  C   UNL     1       2.663   1.244  -0.284  0.00  0.00    +0.131 A 
ATOM      7  C   UNL     1       2.596  -0.156  -0.233  0.00  0.00    +0.106 A 
ATOM      8  C   UNL     1       1.349  -0.785  -0.156  0.00  0.00    +0.047 A 
ATOM      9  C   UNL     1       0.199  -0.028  -0.132  0.00  0.00    +0.106 A 
BRANCH   7  10
ATOM     10  C   UNL     1       3.830  -0.958  -0.261  0.00  0.00    +0.390 C 
ATOM     11  O   UNL     1       3.767  -2.179  -0.216  0.00  0.00    -0.240 OA
ATOM     12  O   UNL     1       4.918  -0.404  -0.329  0.00  0.00    -0.240 OA
ENDBRANCH   7  10
BRANCH   6  13
ATOM     13  O   UNL     1       3.866   1.867  -0.360  0.00  0.00    -0.506 OA
ATOM     14  H   UNL     1       4.254   2.078   0.500  0.00  0.00    +0.292 HD
ENDBRANCH   6  13
ENDBRANCH   1   9
BRANCH   1  15
ATOM     15  N   UNL     1      -1.877  -1.098  -1.588  0.00  0.00    -0.171 NA
ATOM     16  C   UNL     1      -2.790  -0.160  -2.255  0.00  0.00    +0.110 C 
ATOM     17  C   UNL     1      -4.000  -0.939  -2.781  0.00  0.00    +0.017 C 
ATOM     18  C   UNL     1      -3.515  -2.085  -3.671  0.00  0.00    +0.003 C 
ATOM     19  C   UNL     1      -2.646  -3.040  -2.850  0.00  0.00    +0.023 C 
ATOM     20  C   UNL     1      -1.416  -2.281  -2.326  0.00  0.00    +0.105 C 
BRANCH  20  21
ATOM     21  C   UNL     1      -0.611  -3.187  -1.393  0.00  0.00    +0.176 C 
BRANCH  21  22
ATOM     22  O   UNL     1      -1.499  -3.851  -0.491  0.00  0.00    -0.393 OA
ATOM     23  H   UNL     1      -1.056  -4.444   0.132  0.00  0.00    +0.209 HD
ENDBRANCH  21  22
ENDBRANCH  20  21
ENDBRANCH   1  15
TORSDOF 6
