REMARK  Name = ZINC03328526
REMARK  4 active torsions:
REMARK  status: ('A' for Active; 'I' for Inactive)
REMARK    1  A    between atoms: C_4  and  C_7
REMARK    2  A    between atoms: C_7  and  N_8
REMARK    3  A    between atoms: C_11  and  C_15
REMARK    4  A    between atoms: C_11  and  C_21
REMARK                            x       y       z     vdW  Elec       q    Type
REMARK                         _______ _______ _______ _____ _____    ______ ____
ROOT
ATOM      1  N   UNL     1      -0.993   1.824   0.628  0.00  0.00    -0.219 N 
ATOM      2  C   UNL     1       0.215   1.240   0.747  0.00  0.00    +0.256 C 
ATOM      3  O   UNL     1       0.475   0.207   1.326  0.00  0.00    -0.272 OA
ATOM      4  C   UNL     1       1.181   2.140   0.002  0.00  0.00    +0.164 C 
ATOM      5  N   UNL     1       0.325   3.232  -0.492  0.00  0.00    -0.278 N 
ATOM      6  C   UNL     1      -0.924   2.961  -0.074  0.00  0.00    +0.310 C 
ATOM      7  O   UNL     1      -1.885   3.667  -0.312  0.00  0.00    -0.252 OA
ATOM      8  H   UNL     1       0.608   3.998  -1.017  0.00  0.00    +0.152 HD
ENDROOT
BRANCH   4   9
ATOM      9  C   UNL     1       2.236   2.675   0.936  0.00  0.00    -0.011 A 
ATOM     10  C   UNL     1       2.912   1.814   1.781  0.00  0.00    +0.006 A 
ATOM     11  C   UNL     1       3.882   2.303   2.635  0.00  0.00    +0.000 A 
ATOM     12  C   UNL     1       4.171   3.655   2.651  0.00  0.00    +0.000 A 
ATOM     13  C   UNL     1       3.491   4.517   1.810  0.00  0.00    +0.000 A 
ATOM     14  C   UNL     1       2.524   4.027   0.953  0.00  0.00    +0.006 A 
ENDBRANCH   4   9
BRANCH   4  15
ATOM     15  C   UNL     1       1.815   1.401  -1.148  0.00  0.00    -0.011 A 
ATOM     16  C   UNL     1       2.412   0.172  -0.935  0.00  0.00    +0.006 A 
ATOM     17  C   UNL     1       2.990  -0.507  -1.991  0.00  0.00    +0.000 A 
ATOM     18  C   UNL     1       2.978   0.045  -3.258  0.00  0.00    +0.000 A 
ATOM     19  C   UNL     1       2.385   1.276  -3.470  0.00  0.00    +0.000 A 
ATOM     20  C   UNL     1       1.804   1.954  -2.415  0.00  0.00    +0.006 A 
ENDBRANCH   4  15
BRANCH   1  21
ATOM     21  C   UNL     1      -2.229   1.283   1.199  0.00  0.00    +0.153 C 
BRANCH  21  25
ATOM     22  C   UNL     1      -2.767   2.822   5.147  0.00  0.00    +0.000 A 
ATOM     23  C   UNL     1      -3.292   3.501   4.064  0.00  0.00    +0.000 A 
ATOM     24  C   UNL     1      -3.118   3.003   2.786  0.00  0.00    +0.005 A 
ATOM     25  C   UNL     1      -2.418   1.826   2.592  0.00  0.00    -0.030 A 
ATOM     26  C   UNL     1      -1.898   1.145   3.676  0.00  0.00    +0.005 A 
ATOM     27  C   UNL     1      -2.068   1.645   4.954  0.00  0.00    +0.000 A 
ENDBRANCH  21  25
ENDBRANCH   1  21
TORSDOF 4
