REMARK  Name = ZINC41584045
REMARK  16 active torsions:
REMARK  status: ('A' for Active; 'I' for Inactive)
REMARK    1  A    between atoms: C_1  and  C_2
REMARK    2  A    between atoms: C_2  and  C_3
REMARK    3  A    between atoms: C_3  and  C_4
REMARK    4  A    between atoms: C_4  and  N_5
REMARK    5  A    between atoms: N_5  and  C_6
REMARK    6  A    between atoms: N_5  and  C_7
REMARK    7  A    between atoms: C_7  and  C_8
REMARK    8  A    between atoms: C_9  and  O_32
REMARK    9  A    between atoms: C_11  and  C_31
REMARK   10  A    between atoms: C_16  and  C_17
REMARK   11  A    between atoms: C_20  and  O_27
REMARK   12  A    between atoms: C_21  and  O_25
REMARK   13  A    between atoms: C_22  and  O_23
REMARK   14  A    between atoms: O_23  and  C_24
REMARK   15  A    between atoms: O_25  and  C_26
REMARK   16  A    between atoms: O_27  and  C_28
REMARK                            x       y       z     vdW  Elec       q    Type
REMARK                         _______ _______ _______ _____ _____    ______ ____
ROOT
ATOM      1  C   UNL     1       2.194  -3.642   4.130  0.00  0.00    +0.020 A 
ATOM      2  C   UNL     1       3.566  -3.778   4.260  0.00  0.00    +0.122 A 
ATOM      3  C   UNL     1       4.119  -4.299   5.427  0.00  0.00    +0.050 A 
ATOM      4  C   UNL     1       3.309  -4.682   6.458  0.00  0.00    -0.033 A 
ATOM      5  C   UNL     1       1.925  -4.551   6.342  0.00  0.00    +0.071 A 
ATOM      6  C   UNL     1       1.356  -4.021   5.172  0.00  0.00    +0.145 A 
ATOM      7  O   UNL     1       0.012  -3.986   5.296  0.00  0.00    -0.451 OA
ATOM      8  C   UNL     1      -0.395  -4.459   6.498  0.00  0.00    +0.176 C 
ATOM      9  C   UNL     1      -1.681  -4.556   6.929  0.00  0.00    +0.062 C 
ATOM     10  C   UNL     1       0.802  -4.862   7.245  0.00  0.00    +0.232 C 
ATOM     11  O   UNL     1       0.857  -5.335   8.368  0.00  0.00    -0.283 OA
ATOM     12  C   UNL     1       3.910  -5.247   7.720  0.00  0.00    +0.045 C 
ENDROOT
BRANCH   9  13
ATOM     13  C   UNL     1      -2.766  -3.979   6.131  0.00  0.00    +0.024 A 
ATOM     14  C   UNL     1      -2.553  -3.652   4.785  0.00  0.00    +0.015 A 
ATOM     15  C   UNL     1      -3.575  -3.112   4.038  0.00  0.00    +0.050 A 
ATOM     16  C   UNL     1      -4.822  -2.888   4.613  0.00  0.00    +0.165 A 
ATOM     17  C   UNL     1      -5.047  -3.207   5.948  0.00  0.00    +0.204 A 
ATOM     18  C   UNL     1      -4.028  -3.758   6.710  0.00  0.00    +0.172 A 
BRANCH  18  19
ATOM     19  O   UNL     1      -4.246  -4.077   8.012  0.00  0.00    -0.491 OA
ATOM     20  C   UNL     1      -3.986  -3.060   8.981  0.00  0.00    +0.277 C 
ENDBRANCH  18  19
BRANCH  17  21
ATOM     21  O   UNL     1      -6.269  -2.985   6.504  0.00  0.00    -0.488 OA
ATOM     22  C   UNL     1      -7.221  -4.048   6.427  0.00  0.00    +0.277 C 
ENDBRANCH  17  21
BRANCH  16  23
ATOM     23  O   UNL     1      -5.823  -2.353   3.867  0.00  0.00    -0.491 OA
ATOM     24  C   UNL     1      -5.525  -2.048   2.504  0.00  0.00    +0.277 C 
ENDBRANCH  16  23
ENDBRANCH   9  13
BRANCH   2  25
ATOM     25  O   UNL     1       4.379  -3.401   3.241  0.00  0.00    -0.506 OA
ATOM     26  H   UNL     1       4.664  -2.478   3.285  0.00  0.00    +0.292 HD
ENDBRANCH   2  25
BRANCH   1  27
ATOM     27  C   UNL     1       1.609  -3.076   2.862  0.00  0.00    -0.036 C 
BRANCH  27  28
ATOM     28  N   UNL     1       1.502  -1.616   2.980  0.00  0.00    +0.381 N 
ATOM     29  C   UNL     1       2.846  -1.033   3.083  0.00  0.00    -0.096 C 
ATOM     30  H   UNL     1       0.971  -1.384   3.806  0.00  0.00    -0.082 HD
BRANCH  28  31
ATOM     31  C   UNL     1       0.823  -1.077   1.794  0.00  0.00    -0.079 C 
BRANCH  31  32
ATOM     32  C   UNL     1       0.600   0.426   1.974  0.00  0.00    -0.019 C 
BRANCH  32  34
ATOM     33  C   UNL     1      -0.330   2.491   0.918  0.00  0.00    +0.004 C 
ATOM     34  C   UNL     1      -0.107   0.988   0.739  0.00  0.00    -0.005 C 
ENDBRANCH  32  34
ENDBRANCH  31  32
ENDBRANCH  28  31
ENDBRANCH  27  28
ENDBRANCH   1  27
TORSDOF 10
