REMARK  Name = ZINC23277558
REMARK  14 active torsions:
REMARK  status: ('A' for Active; 'I' for Inactive)
REMARK    1  A    between atoms: C_1  and  C_2
REMARK    2  A    between atoms: C_5  and  N_9
REMARK    3  A    between atoms: C_6  and  C_8
REMARK    4  A    between atoms: C_10  and  C_12
REMARK    5  A    between atoms: C_12  and  C_14
REMARK    6  A    between atoms: C_12  and  O_15
REMARK    7  A    between atoms: O_15  and  C_16
REMARK    8  A    between atoms: C_16  and  C_18
REMARK    9  A    between atoms: C_22  and  S_24
REMARK   10  A    between atoms: S_24  and  N_27
REMARK   11  A    between atoms: N_27  and  C_28
REMARK   12  A    between atoms: C_28  and  C_29
REMARK   13  A    between atoms: C_28  and  C_30
REMARK   14  A    between atoms: C_28  and  C_31
REMARK                            x       y       z     vdW  Elec       q    Type
REMARK                         _______ _______ _______ _____ _____    ______ ____
ROOT
ATOM      1  C   UNL     1      -1.803  -0.584   6.086  0.00  0.00    +0.340 C 
ATOM      2  O   UNL     1      -1.616  -1.775   6.231  0.00  0.00    -0.245 OA
ENDROOT
BRANCH   1   3
ATOM      3  C   UNL     1      -1.435   0.072   4.816  0.00  0.00    +0.061 A 
ATOM      4  C   UNL     1      -1.649   1.442   4.646  0.00  0.00    +0.016 A 
ATOM      5  C   UNL     1      -1.303   2.049   3.457  0.00  0.00    +0.023 A 
ATOM      6  C   UNL     1      -0.744   1.303   2.432  0.00  0.00    +0.067 A 
ATOM      7  C   UNL     1      -0.529  -0.056   2.595  0.00  0.00    +0.124 A 
ATOM      8  C   UNL     1      -0.876  -0.675   3.777  0.00  0.00    +0.045 A 
ATOM      9 CL   UNL     1      -0.311   2.074   0.939  0.00  0.00    -0.082 Cl
BRANCH   7  10
ATOM     10  S   UNL     1       0.182  -0.996   1.285  0.00  0.00    +0.060 S 
ATOM     11  O   UNL     1       0.212  -2.347   1.725  0.00  0.00    -0.153 OA
ATOM     12  O   UNL     1       1.353  -0.302   0.876  0.00  0.00    -0.153 OA
BRANCH  10  13
ATOM     13  N   UNL     1      -0.873  -0.936   0.010  0.00  0.00    -0.185 NA
ATOM     14  H   UNL     1      -0.522  -0.556  -0.961  0.00  0.00    +0.149 HD
BRANCH  13  15
ATOM     15  C   UNL     1      -2.184  -1.581   0.113  0.00  0.00    +0.032 C 
ATOM     16  C   UNL     1      -2.905  -1.074   1.364  0.00  0.00    +0.029 C 
ATOM     17  C   UNL     1      -3.016  -1.246  -1.126  0.00  0.00    +0.029 C 
ATOM     18  C   UNL     1      -2.000  -3.097   0.210  0.00  0.00    +0.029 C 
ENDBRANCH  13  15
ENDBRANCH  10  13
ENDBRANCH   7  10
ENDBRANCH   1   3
BRANCH   1  19
ATOM     19  O   UNL     1      -2.346   0.140   7.085  0.00  0.00    -0.449 OA
BRANCH  19  20
ATOM     20  C   UNL     1      -2.683  -0.571   8.305  0.00  0.00    +0.259 C 
ATOM     21  C   UNL     1      -4.119  -1.091   8.213  0.00  0.00    +0.062 C 
BRANCH  20  23
ATOM     22  N   UNL     1      -2.730  -0.103  10.734  0.00  0.00    -0.282 N 
ATOM     23  C   UNL     1      -2.562   0.364   9.481  0.00  0.00    +0.258 C 
ATOM     24  O   UNL     1      -2.314   1.537   9.299  0.00  0.00    -0.271 OA
ATOM     25  H   UNL     1      -2.882  -1.179  10.904  0.00  0.00    +0.155 HD
BRANCH  22  30
ATOM     26  C   UNL     1      -2.651   3.480  15.132  0.00  0.00    +0.044 C 
ATOM     27  C   UNL     1      -2.672   2.528  13.964  0.00  0.00    -0.050 A 
ATOM     28  C   UNL     1      -1.924   2.805  12.834  0.00  0.00    +0.005 A 
ATOM     29  C   UNL     1      -1.941   1.935  11.762  0.00  0.00    +0.024 A 
ATOM     30  C   UNL     1      -2.710   0.780  11.819  0.00  0.00    +0.036 A 
ATOM     31  C   UNL     1      -3.465   0.507  12.952  0.00  0.00    -0.029 A 
ATOM     32  C   UNL     1      -3.439   1.379  14.023  0.00  0.00    +0.008 A 
ATOM     33  C   UNL     1      -4.306  -0.741  13.015  0.00  0.00    +0.045 C 
ENDBRANCH  22  30
ENDBRANCH  20  23
ENDBRANCH  19  20
ENDBRANCH   1  19
TORSDOF 8
