REMARK  Name = ZINC12434414
REMARK  6 active torsions:
REMARK  status: ('A' for Active; 'I' for Inactive)
REMARK    1  A    between atoms: C_1  and  C_2
REMARK    2  A    between atoms: C_6  and  C_8
REMARK    3  A    between atoms: C_8  and  N_52
REMARK    4  A    between atoms: C_21  and  C_23
REMARK    5  A    between atoms: C_27  and  O_29
REMARK    6  A    between atoms: O_29  and  C_30
REMARK                            x       y       z     vdW  Elec       q    Type
REMARK                         _______ _______ _______ _____ _____    ______ ____
ROOT
ATOM      1  C   UNL     1       2.147   1.372  -1.085  0.00  0.00    -0.072 C 
ATOM      2  C   UNL     1       2.406  -0.103  -0.749  0.00  0.00    +0.019 C 
ATOM      3  C   UNL     1       1.095  -0.725  -0.338  0.00  0.00    -0.022 A 
ATOM      4  C   UNL     1       0.738  -2.121  -0.226  0.00  0.00    +0.003 A 
ATOM      5  C   UNL     1       1.449  -3.306  -0.444  0.00  0.00    +0.010 A 
ATOM      6  C   UNL     1       0.774  -4.483  -0.235  0.00  0.00    +0.001 A 
ATOM      7  C   UNL     1      -0.549  -4.511   0.173  0.00  0.00    +0.002 A 
ATOM      8  C   UNL     1      -1.277  -3.355   0.398  0.00  0.00    +0.026 A 
ATOM      9  C   UNL     1      -0.618  -2.144   0.194  0.00  0.00    +0.047 A 
ATOM     10  N   UNL     1      -1.027  -0.847   0.320  0.00  0.00    -0.359 N 
ATOM     11  H   UNL     1      -1.914  -0.567   0.594  0.00  0.00    +0.166 HD
ATOM     12  C   UNL     1       0.002  -0.004   0.002  0.00  0.00    +0.011 A 
ATOM     13  C   UNL     1      -0.018   1.506   0.010  0.00  0.00    +0.011 C 
ATOM     14  N   UNL     1       1.384   1.985   0.027  0.00  0.00    +0.393 N 
ATOM     15  H   UNL     1       1.817   1.713   0.918  0.00  0.00    -0.080 HD
ENDROOT
BRANCH  13  16
ATOM     16  C   UNL     1      -0.717   1.996   1.253  0.00  0.00    -0.052 A 
ATOM     17  C   UNL     1      -0.040   2.030   2.458  0.00  0.00    +0.002 A 
ATOM     18  C   UNL     1      -0.675   2.484   3.598  0.00  0.00    +0.004 A 
ATOM     19  C   UNL     1      -1.993   2.896   3.538  0.00  0.00    +0.045 A 
ATOM     20  C   UNL     1      -2.676   2.858   2.332  0.00  0.00    +0.120 A 
ATOM     21  C   UNL     1      -2.034   2.406   1.188  0.00  0.00    +0.048 A 
BRANCH  20  22
ATOM     22  O   UNL     1      -3.972   3.261   2.270  0.00  0.00    -0.495 OA
ATOM     23  C   UNL     1      -4.569   3.713   3.487  0.00  0.00    +0.277 C 
ENDBRANCH  20  22
ENDBRANCH  13  16
BRANCH  14  24
ATOM     24  C   UNL     1       1.416   3.457  -0.092  0.00  0.00    -0.002 C 
BRANCH  24  30
ATOM     25  C   UNL     1       5.602   4.928   2.237  0.00  0.00    +0.067 C 
ATOM     26  C   UNL     1       4.633   4.567   1.141  0.00  0.00    +0.056 A 
ATOM     27  C   UNL     1       4.885   4.601  -0.181  0.00  0.00    +0.107 A 
ATOM     28  N   UNL     1       3.741   4.193  -0.813  0.00  0.00    -0.350 N 
ATOM     29  H   UNL     1       3.608   4.104  -1.800  0.00  0.00    +0.166 HD
ATOM     30  C   UNL     1       2.826   3.932   0.146  0.00  0.00    +0.091 A 
ATOM     31  N   UNL     1       3.368   4.155   1.312  0.00  0.00    -0.240 NA
ENDBRANCH  24  30
ENDBRANCH  14  24
TORSDOF 4
