REMARK  Name = ZINC34871991
REMARK  7 active torsions:
REMARK  status: ('A' for Active; 'I' for Inactive)
REMARK    1  A    between atoms: C_1  and  N_2
REMARK    2  A    between atoms: N_2  and  C_3
REMARK    3  A    between atoms: N_2  and  C_15
REMARK    4  A    between atoms: C_3  and  C_4
REMARK    5  A    between atoms: C_15  and  C_16
REMARK    6  A    between atoms: C_19  and  C_29
REMARK    7  A    between atoms: C_22  and  C_24
REMARK                            x       y       z     vdW  Elec       q    Type
REMARK                         _______ _______ _______ _____ _____    ______ ____
ROOT
ATOM      1  C   UNL     1      -2.164  -0.019   1.221  0.00  0.00    +0.219 C 
ATOM      2  O   UNL     1      -1.518   0.523   2.094  0.00  0.00    -0.276 OA
ATOM      3  N   UNL     1      -3.471  -0.283   1.415  0.00  0.00    -0.186 N 
ATOM      4  C   UNL     1      -4.237   0.036   2.630  0.00  0.00    +0.143 C 
ATOM      5  C   UNL     1      -5.655  -0.478   2.311  0.00  0.00    +0.088 C 
ATOM      6  C   UNL     1      -5.531  -1.046   0.915  0.00  0.00    +0.075 C 
ATOM      7  N   UNL     1      -4.319  -0.898   0.496  0.00  0.00    -0.180 NA
ENDROOT
BRANCH   6   8
ATOM      8  C   UNL     1      -6.621  -1.665   0.153  0.00  0.00    +0.035 A 
ATOM      9  C   UNL     1      -6.596  -2.212  -1.118  0.00  0.00    +0.017 A 
ATOM     10  C   UNL     1      -7.761  -2.739  -1.625  0.00  0.00    +0.008 A 
ATOM     11  C   UNL     1      -8.890  -2.707  -0.870  0.00  0.00    +0.046 A 
ATOM     12  S   UNL     1      -8.324  -1.915   0.626  0.00  0.00    -0.095 S 
ENDBRANCH   6   8
BRANCH   4  13
ATOM     13  C   UNL     1      -3.664  -0.685   3.823  0.00  0.00    +0.013 A 
ATOM     14  C   UNL     1      -3.523  -0.247   5.098  0.00  0.00    +0.013 A 
ATOM     15  C   UNL     1      -2.964  -1.092   6.038  0.00  0.00    +0.008 A 
ATOM     16  C   UNL     1      -2.573  -2.333   5.658  0.00  0.00    +0.045 A 
ATOM     17  S   UNL     1      -3.002  -2.340   3.925  0.00  0.00    -0.100 S 
ENDBRANCH   4  13
BRANCH   1  18
ATOM     18  C   UNL     1      -1.504  -0.396  -0.081  0.00  0.00    +0.020 C 
BRANCH  18  20
ATOM     19  C   UNL     1       0.013   1.458   0.034  0.00  0.00    -0.095 C 
ATOM     20  N   UNL     1      -0.089  -0.005  -0.043  0.00  0.00    +0.386 N 
ATOM     21  H   UNL     1       0.352  -0.416   0.765  0.00  0.00    -0.081 HD
BRANCH  20  22
ATOM     22  C   UNL     1       0.582  -0.479  -1.261  0.00  0.00    -0.030 C 
BRANCH  22  23
ATOM     23  C   UNL     1       0.603  -2.009  -1.270  0.00  0.00    +0.194 C 
ATOM     24  C   UNL     1       1.333  -2.510  -2.523  0.00  0.00    +0.271 C 
ATOM     25  O   UNL     1       1.346  -3.941  -2.493  0.00  0.00    -0.485 OA
ATOM     26  C   UNL     1       1.695  -4.524  -1.313  0.00  0.00    +0.162 A 
ATOM     27  C   UNL     1       2.079  -5.857  -1.300  0.00  0.00    +0.049 A 
ATOM     28  C   UNL     1       2.433  -6.463  -0.110  0.00  0.00    +0.004 A 
ATOM     29  C   UNL     1       2.406  -5.744   1.070  0.00  0.00    +0.004 A 
ATOM     30  C   UNL     1       2.026  -4.415   1.064  0.00  0.00    +0.049 A 
ATOM     31  C   UNL     1       1.671  -3.800  -0.127  0.00  0.00    +0.162 A 
ATOM     32  O   UNL     1       1.306  -2.488  -0.119  0.00  0.00    -0.484 OA
ENDBRANCH  22  23
ENDBRANCH  20  22
ENDBRANCH  18  20
ENDBRANCH   1  18
TORSDOF 6
