REMARK  Name = ZINC49525148
REMARK  4 active torsions:
REMARK  status: ('A' for Active; 'I' for Inactive)
REMARK    1  A    between atoms: C_1  and  C_2
REMARK    2  A    between atoms: C_2  and  C_4
REMARK    3  A    between atoms: C_2  and  N_11
REMARK    4  A    between atoms: C_17  and  N_22
REMARK                            x       y       z     vdW  Elec       q    Type
REMARK                         _______ _______ _______ _____ _____    ______ ____
ROOT
ATOM      1  N   UNL     1       0.688  -0.476  -1.203  0.00  0.00    -0.322 N 
ATOM      2  C   UNL     1      -0.014  -0.612  -2.393  0.00  0.00    +0.120 A 
ATOM      3  C   UNL     1      -1.378  -0.287  -2.424  0.00  0.00    +0.044 A 
ATOM      4  C   UNL     1      -2.079  -0.414  -3.585  0.00  0.00    +0.013 A 
ATOM      5  C   UNL     1      -1.398  -0.876  -4.730  0.00  0.00    +0.002 A 
ATOM      6  C   UNL     1      -2.062  -1.029  -5.957  0.00  0.00    +0.032 A 
ATOM      7  C   UNL     1      -1.362  -1.483  -7.054  0.00  0.00    +0.025 A 
ATOM      8  C   UNL     1      -0.001  -1.790  -6.953  0.00  0.00    +0.025 A 
ATOM      9  C   UNL     1       0.662  -1.649  -5.774  0.00  0.00    +0.030 A 
ATOM     10  C   UNL     1      -0.020  -1.188  -4.634  0.00  0.00    +0.073 A 
ATOM     11  N   UNL     1       0.617  -1.038  -3.467  0.00  0.00    -0.232 NA
ATOM     12  H   UNL     1       1.632  -0.695  -1.170  0.00  0.00    +0.148 HD
ENDROOT
BRANCH   7  13
ATOM     13  N   UNL     1      -2.018  -1.637  -8.279  0.00  0.00    -0.358 N 
ATOM     14  H   UNL     1      -2.962  -1.426  -8.354  0.00  0.00    +0.142 HD
ATOM     15  H   UNL     1      -1.530  -1.956  -9.054  0.00  0.00    +0.142 HD
ENDBRANCH   7  13
BRANCH   1  17
ATOM     16  C   UNL     1      -0.019   1.526   0.010  0.00  0.00    +0.033 C 
ATOM     17  C   UNL     1       0.002  -0.004   0.002  0.00  0.00    +0.099 C 
BRANCH  17  18
ATOM     18  C   UNL     1       0.731  -0.503   1.223  0.00  0.00    -0.027 A 
ATOM     19  C   UNL     1       2.113  -0.514   1.246  0.00  0.00    +0.006 A 
ATOM     20  C   UNL     1       2.782  -0.971   2.366  0.00  0.00    +0.015 A 
ATOM     21  C   UNL     1       2.068  -1.418   3.463  0.00  0.00    +0.018 A 
ATOM     22  C   UNL     1       0.685  -1.408   3.439  0.00  0.00    +0.015 A 
ATOM     23  C   UNL     1       0.017  -0.945   2.321  0.00  0.00    +0.006 A 
ATOM     24 BR   UNL     1       2.983  -2.045   4.995  0.00  0.00    -0.050 Br
ENDBRANCH  17  18
ENDBRANCH   1  17
TORSDOF 3
