REMARK  Name = ZINC05903798
REMARK  6 active torsions:
REMARK  status: ('A' for Active; 'I' for Inactive)
REMARK    1  A    between atoms: C_1  and  C_2
REMARK    2  A    between atoms: C_2  and  N_3
REMARK    3  A    between atoms: N_11  and  N_12
REMARK    4  A    between atoms: C_13  and  C_15
REMARK    5  A    between atoms: C_18  and  C_19
REMARK    6  A    between atoms: C_18  and  C_25
REMARK                            x       y       z     vdW  Elec       q    Type
REMARK                         _______ _______ _______ _____ _____    ______ ____
ROOT
ATOM      1  N   UNL     1      -0.028  -0.661   6.246  0.00  0.00    -0.206 N 
ATOM      2  C   UNL     1      -0.645  -1.858   6.295  0.00  0.00    +0.236 C 
ATOM      3  O   UNL     1      -0.141  -2.821   5.758  0.00  0.00    -0.274 OA
ATOM      4  H   UNL     1      -0.431   0.110   6.676  0.00  0.00    +0.177 HD
ENDROOT
BRANCH   1  13
ATOM      5  N   UNL     1       2.251   2.850   5.834  0.00  0.00    -0.266 N 
ATOM      6  C   UNL     1       3.304   2.327   5.092  0.00  0.00    +0.046 A 
ATOM      7  C   UNL     1       4.455   2.915   4.579  0.00  0.00    +0.024 A 
ATOM      8  C   UNL     1       5.359   2.159   3.862  0.00  0.00    +0.002 A 
ATOM      9  C   UNL     1       5.135   0.810   3.644  0.00  0.00    +0.001 A 
ATOM     10  C   UNL     1       3.998   0.208   4.146  0.00  0.00    +0.012 A 
ATOM     11  C   UNL     1       3.081   0.962   4.870  0.00  0.00    +0.028 A 
ATOM     12  C   UNL     1       1.794   0.635   5.528  0.00  0.00    +0.153 C 
ATOM     13  N   UNL     1       1.195  -0.529   5.575  0.00  0.00    -0.175 NA
ATOM     14  C   UNL     1       1.338   1.907   6.125  0.00  0.00    +0.271 C 
ATOM     15  O   UNL     1       0.316   2.072   6.764  0.00  0.00    -0.268 OA
BRANCH   5  17
ATOM     16  C   UNL     1       2.827   4.426   7.614  0.00  0.00    +0.025 C 
ATOM     17  C   UNL     1       2.152   4.251   6.252  0.00  0.00    +0.111 C 
ENDBRANCH   5  17
ENDBRANCH   1  13
BRANCH   2  18
ATOM     18  C   UNL     1      -1.960  -2.000   7.017  0.00  0.00    +0.093 C 
ATOM     19  C   UNL     1      -2.418  -3.413   7.380  0.00  0.00    +0.031 C 
ATOM     20  C   UNL     1      -1.919  -2.466   8.474  0.00  0.00    +0.033 C 
BRANCH  20  21
ATOM     21  C   UNL     1      -2.945  -1.891   9.417  0.00  0.00    -0.036 A 
ATOM     22  C   UNL     1      -3.793  -0.887   8.988  0.00  0.00    +0.004 A 
ATOM     23  C   UNL     1      -4.734  -0.360   9.853  0.00  0.00    +0.000 A 
ATOM     24  C   UNL     1      -4.826  -0.837  11.147  0.00  0.00    +0.000 A 
ATOM     25  C   UNL     1      -3.978  -1.841  11.576  0.00  0.00    +0.000 A 
ATOM     26  C   UNL     1      -3.041  -2.371  10.710  0.00  0.00    +0.004 A 
ENDBRANCH  20  21
BRANCH  20  27
ATOM     27  C   UNL     1      -0.567  -2.748   9.077  0.00  0.00    -0.036 A 
ATOM     28  C   UNL     1       0.375  -1.740   9.163  0.00  0.00    +0.004 A 
ATOM     29  C   UNL     1       1.615  -1.999   9.716  0.00  0.00    +0.000 A 
ATOM     30  C   UNL     1       1.913  -3.266  10.183  0.00  0.00    +0.000 A 
ATOM     31  C   UNL     1       0.970  -4.273  10.097  0.00  0.00    +0.000 A 
ATOM     32  C   UNL     1      -0.272  -4.013   9.548  0.00  0.00    +0.004 A 
ENDBRANCH  20  27
ENDBRANCH   2  18
TORSDOF 5
