REMARK  Name = ZINC44834401
REMARK  7 active torsions:
REMARK  status: ('A' for Active; 'I' for Inactive)
REMARK    1  A    between atoms: C_1  and  C_2
REMARK    2  A    between atoms: C_2  and  C_3
REMARK    3  A    between atoms: C_3  and  C_4
REMARK    4  A    between atoms: C_4  and  C_6
REMARK    5  A    between atoms: C_4  and  C_9
REMARK    6  A    between atoms: C_6  and  N_8
REMARK    7  A    between atoms: N_11  and  C_12
REMARK                            x       y       z     vdW  Elec       q    Type
REMARK                         _______ _______ _______ _____ _____    ______ ____
ROOT
ATOM      1  C   UNL     1       0.494  -3.257  -2.756  0.00  0.00    +0.226 C 
ATOM      2  O   UNL     1       0.016  -3.046  -3.852  0.00  0.00    -0.275 OA
ATOM      3  N   UNL     1       1.707  -3.834  -2.650  0.00  0.00    -0.283 N 
ATOM      4  H   UNL     1       2.120  -3.937  -1.778  0.00  0.00    +0.155 HD
ENDROOT
BRANCH   3   5
ATOM      5  C   UNL     1       2.370  -4.287  -3.797  0.00  0.00    +0.071 A 
ATOM      6  C   UNL     1       3.219  -3.434  -4.492  0.00  0.00    +0.065 A 
ATOM      7  C   UNL     1       3.873  -3.884  -5.624  0.00  0.00    +0.042 A 
ATOM      8  C   UNL     1       3.683  -5.181  -6.066  0.00  0.00    +0.044 A 
ATOM      9  C   UNL     1       2.838  -6.033  -5.375  0.00  0.00    +0.042 A 
ATOM     10  C   UNL     1       2.186  -5.591  -4.240  0.00  0.00    +0.065 A 
ATOM     11 CL   UNL     1       1.131  -6.662  -3.371  0.00  0.00    -0.082 Cl
ATOM     12 CL   UNL     1       4.505  -5.742  -7.488  0.00  0.00    -0.083 Cl
ATOM     13 CL   UNL     1       3.458  -1.806  -3.940  0.00  0.00    -0.082 Cl
ENDBRANCH   3   5
BRANCH   1  14
ATOM     14  C   UNL     1      -0.270  -2.873  -1.515  0.00  0.00    +0.126 C 
BRANCH  14  15
ATOM     15  C   UNL     1      -0.524  -4.102  -0.681  0.00  0.00    +0.058 C 
ATOM     16  S   UNL     1       0.045  -4.187   0.811  0.00  0.00    -0.040 S 
BRANCH  15  17
ATOM     17  N   UNL     1      -1.230  -5.129  -1.193  0.00  0.00    -0.355 N 
ATOM     18  H   UNL     1      -1.575  -5.077  -2.098  0.00  0.00    +0.143 HD
ATOM     19  H   UNL     1      -1.394  -5.920  -0.656  0.00  0.00    +0.143 HD
ENDBRANCH  15  17
ENDBRANCH  14  15
BRANCH  14  20
ATOM     20  C   UNL     1      -1.605  -2.241  -1.913  0.00  0.00    +0.019 C 
BRANCH  20  22
ATOM     21  C   UNL     1      -3.661  -1.107  -1.058  0.00  0.00    +0.004 C 
ATOM     22  C   UNL     1      -2.325  -1.738  -0.660  0.00  0.00    -0.002 C 
ENDBRANCH  20  22
ENDBRANCH  14  20
ENDBRANCH   1  14
TORSDOF 6
