REMARK  Name = ZINC00131366
REMARK  5 active torsions:
REMARK  status: ('A' for Active; 'I' for Inactive)
REMARK    1  A    between atoms: C_3  and  O_14
REMARK    2  A    between atoms: C_6  and  C_7
REMARK    3  A    between atoms: N_8  and  N_9
REMARK    4  A    between atoms: N_9  and  C_10
REMARK    5  A    between atoms: C_10  and  N_12
REMARK                            x       y       z     vdW  Elec       q    Type
REMARK                         _______ _______ _______ _____ _____    ______ ____
ROOT
ATOM      1  C   UNL     1       2.401   1.399  -0.014  0.00  0.00    +0.013 A 
ATOM      2  C   UNL     1       2.410   0.020  -0.021  0.00  0.00    +0.047 A 
ATOM      3  C   UNL     1       1.214  -0.684  -0.014  0.00  0.00    +0.130 A 
ATOM      4  C   UNL     1       0.002  -0.004   0.002  0.00  0.00    +0.055 A 
ATOM      5  C   UNL     1      -0.017   1.374   0.010  0.00  0.00    +0.027 A 
ATOM      6  C   UNL     1       1.185   2.087   0.002  0.00  0.00    -0.004 A 
ATOM      7  I   UNL     1      -1.799  -1.075   0.013  0.00  0.00    -0.040 I 
ENDROOT
BRANCH   6   8
ATOM      8  C   UNL     1       1.171   3.561   0.009  0.00  0.00    +0.138 C 
ATOM      9  N   UNL     1       2.288   4.221   0.002  0.00  0.00    -0.188 NA
BRANCH   9  10
ATOM     10  N   UNL     1       2.274   5.622   0.010  0.00  0.00    -0.219 N 
ATOM     11  H   UNL     1       1.429   6.099   0.020  0.00  0.00    +0.176 HD
BRANCH  10  12
ATOM     12  C   UNL     1       3.434   6.308   0.002  0.00  0.00    +0.147 C 
ATOM     13  S   UNL     1       3.417   8.020   0.011  0.00  0.00    -0.017 S 
BRANCH  12  14
ATOM     14  N   UNL     1       4.608   5.646  -0.012  0.00  0.00    -0.339 N 
ATOM     15  H   UNL     1       4.618   4.676  -0.017  0.00  0.00    +0.144 HD
ATOM     16  H   UNL     1       5.443   6.139  -0.017  0.00  0.00    +0.144 HD
ENDBRANCH  12  14
ENDBRANCH  10  12
ENDBRANCH   9  10
ENDBRANCH   6   8
BRANCH   3  17
ATOM     17  O   UNL     1       1.228  -2.043  -0.022  0.00  0.00    -0.506 OA
ATOM     18  H   UNL     1       1.223  -2.431  -0.908  0.00  0.00    +0.292 HD
ENDBRANCH   3  17
TORSDOF 5
