REMARK  Name = ZINC47139635
REMARK  9 active torsions:
REMARK  status: ('A' for Active; 'I' for Inactive)
REMARK    1  A    between atoms: C_1  and  C_2
REMARK    2  A    between atoms: C_7  and  N_8
REMARK    3  A    between atoms: C_9  and  C_11
REMARK    4  A    between atoms: C_11  and  N_12
REMARK    5  A    between atoms: C_18  and  C_32
REMARK    6  A    between atoms: C_35  and  C_38
REMARK    7  A    between atoms: C_38  and  C_39
REMARK    8  A    between atoms: C_38  and  C_40
REMARK    9  A    between atoms: C_38  and  C_41
REMARK                            x       y       z     vdW  Elec       q    Type
REMARK                         _______ _______ _______ _____ _____    ______ ____
ROOT
ATOM      1  N   UNL     1      -0.232  -0.906   5.999  0.00  0.00    -0.288 N 
ATOM      2  C   UNL     1      -1.440  -1.371   6.417  0.00  0.00    +0.090 A 
ATOM      3  C   UNL     1      -1.395  -2.256   7.449  0.00  0.00    +0.033 A 
ATOM      4  S   UNL     1       0.327  -2.401   7.784  0.00  0.00    -0.030 S 
ATOM      5  C   UNL     1       0.897  -1.339   6.606  0.00  0.00    +0.292 A 
ATOM      6  O   UNL     1       2.050  -1.034   6.360  0.00  0.00    -0.259 OA
ATOM      7  C   UNL     1      -2.607  -2.869   8.047  0.00  0.00    +0.063 C 
ATOM      8  C   UNL     1      -3.524  -3.460   7.000  0.00  0.00    +0.018 C 
ATOM      9  C   UNL     1      -2.850  -4.730   6.392  0.00  0.00    -0.006 C 
ATOM     10  C   UNL     1      -1.471  -4.224   5.868  0.00  0.00    +0.004 C 
ATOM     11  C   UNL     1      -1.817  -3.334   4.652  0.00  0.00    +0.005 C 
ATOM     12  C   UNL     1      -3.373  -3.384   4.557  0.00  0.00    +0.003 C 
ATOM     13  C   UNL     1      -3.659  -4.865   5.052  0.00  0.00    +0.008 C 
ATOM     14  C   UNL     1      -3.867  -2.594   5.793  0.00  0.00    +0.060 C 
ATOM     15  S   UNL     1      -3.054  -0.977   5.791  0.00  0.00    -0.103 S 
ENDROOT
BRANCH   7  16
ATOM     16  C   UNL     1      -3.360  -1.813   8.815  0.00  0.00    -0.039 A 
ATOM     17  C   UNL     1      -4.718  -1.953   9.032  0.00  0.00    +0.004 A 
ATOM     18  C   UNL     1      -5.409  -0.985   9.736  0.00  0.00    +0.004 A 
ATOM     19  C   UNL     1      -4.742   0.124  10.223  0.00  0.00    -0.042 A 
ATOM     20  C   UNL     1      -3.384   0.264  10.006  0.00  0.00    +0.004 A 
ATOM     21  C   UNL     1      -2.692  -0.707   9.306  0.00  0.00    +0.004 A 
BRANCH  19  22
ATOM     22  C   UNL     1      -5.495   1.180  10.989  0.00  0.00    -0.013 C 
ATOM     23  C   UNL     1      -6.128   0.553  12.234  0.00  0.00    +0.015 C 
ATOM     24  C   UNL     1      -4.530   2.290  11.412  0.00  0.00    +0.015 C 
ATOM     25  C   UNL     1      -6.593   1.769  10.101  0.00  0.00    +0.015 C 
ENDBRANCH  19  22
ENDBRANCH   7  16
BRANCH   1  26
ATOM     26  C   UNL     1      -0.153   0.054   4.895  0.00  0.00    +0.222 C 
BRANCH  26  28
ATOM     27  N   UNL     1       0.046  -0.009   2.430  0.00  0.00    -0.284 N 
ATOM     28  C   UNL     1      -0.040  -0.691   3.589  0.00  0.00    +0.237 C 
ATOM     29  O   UNL     1      -0.026  -1.903   3.582  0.00  0.00    -0.274 OA
ATOM     30  H   UNL     1       0.100   0.960   2.440  0.00  0.00    +0.155 HD
BRANCH  27  37
ATOM     31  C   UNL     1      -1.233   1.196   0.192  0.00  0.00    +0.045 C 
ATOM     32  C   UNL     1      -0.554  -0.146   0.095  0.00  0.00    -0.029 A 
ATOM     33  C   UNL     1      -0.536  -0.827  -1.107  0.00  0.00    +0.005 A 
ATOM     34  C   UNL     1       0.086  -2.058  -1.197  0.00  0.00    +0.000 A 
ATOM     35  C   UNL     1       0.692  -2.613  -0.085  0.00  0.00    +0.002 A 
ATOM     36  C   UNL     1       0.678  -1.938   1.120  0.00  0.00    +0.023 A 
ATOM     37  C   UNL     1       0.058  -0.698   1.212  0.00  0.00    +0.036 A 
ENDBRANCH  27  37
ENDBRANCH  26  28
ENDBRANCH   1  26
TORSDOF 5
