REMARK  Name = ZINC51645067
REMARK  9 active torsions:
REMARK  status: ('A' for Active; 'I' for Inactive)
REMARK    1  A    between atoms: C_1  and  C_2
REMARK    2  A    between atoms: C_7  and  O_10
REMARK    3  A    between atoms: O_10  and  C_11
REMARK    4  A    between atoms: C_11  and  C_12
REMARK    5  A    between atoms: C_16  and  N_18
REMARK    6  A    between atoms: N_21  and  C_22
REMARK    7  A    between atoms: C_22  and  C_23
REMARK    8  A    between atoms: N_25  and  C_26
REMARK    9  A    between atoms: C_26  and  C_27
REMARK                            x       y       z     vdW  Elec       q    Type
REMARK                         _______ _______ _______ _____ _____    ______ ____
ROOT
ATOM      1  C   UNL     1       1.892  -4.024   4.073  0.00  0.00    -0.020 A 
ATOM      2  C   UNL     1       2.959  -4.892   3.931  0.00  0.00    +0.006 A 
ATOM      3  C   UNL     1       3.591  -5.406   5.048  0.00  0.00    +0.002 A 
ATOM      4  C   UNL     1       3.156  -5.054   6.311  0.00  0.00    +0.023 A 
ATOM      5  C   UNL     1       2.085  -4.183   6.458  0.00  0.00    +0.035 A 
ATOM      6  C   UNL     1       1.457  -3.664   5.333  0.00  0.00    +0.029 A 
ENDROOT
BRANCH   5   7
ATOM      7  N   UNL     1       1.643  -3.824   7.737  0.00  0.00    -0.269 N 
ATOM      8  C   UNL     1       0.335  -3.584   7.954  0.00  0.00    +0.304 C 
ATOM      9  O   UNL     1      -0.474  -3.772   7.066  0.00  0.00    -0.252 OA
ATOM     10  N   UNL     1      -0.077  -3.135   9.157  0.00  0.00    -0.291 N 
ATOM     11  H   UNL     1       2.278  -3.749   8.466  0.00  0.00    +0.156 HD
ATOM     12  H   UNL     1       0.568  -2.986   9.865  0.00  0.00    +0.151 HD
BRANCH  10  13
ATOM     13  C   UNL     1      -1.499  -2.874   9.393  0.00  0.00    +0.201 C 
BRANCH  13  14
ATOM     14  C   UNL     1      -1.691  -2.385  10.806  0.00  0.00    +0.231 C 
ATOM     15  O   UNL     1      -0.735  -2.266  11.542  0.00  0.00    -0.274 OA
ATOM     16  N   UNL     1      -2.926  -2.079  11.251  0.00  0.00    -0.303 N 
ATOM     17  H   UNL     1      -3.691  -2.174  10.662  0.00  0.00    +0.150 HD
BRANCH  16  18
ATOM     18  C   UNL     1      -3.113  -1.603  12.623  0.00  0.00    +0.193 C 
BRANCH  18  19
ATOM     19  C   UNL     1      -4.542  -1.340  12.861  0.00  0.00    -0.087 C 
ATOM     20  C   UNL     1      -5.682  -1.131  13.051  0.00  0.00    +0.005 C 
ENDBRANCH  18  19
ENDBRANCH  16  18
ENDBRANCH  13  14
ENDBRANCH  10  13
ENDBRANCH   5   7
BRANCH   1  21
ATOM     21  C   UNL     1       1.207  -3.466   2.853  0.00  0.00    +0.195 C 
BRANCH  21  22
ATOM     22  O   UNL     1       1.844  -2.248   2.464  0.00  0.00    -0.372 OA
BRANCH  22  28
ATOM     23  C   UNL     1       1.005   2.059   0.249  0.00  0.00    +0.007 C 
ATOM     24  C   UNL     1       0.828   0.542   0.161  0.00  0.00    -0.012 C 
ATOM     25  C   UNL     1       1.525   0.019  -1.096  0.00  0.00    +0.003 C 
ATOM     26  C   UNL     1       1.348  -1.498  -1.184  0.00  0.00    +0.003 C 
ATOM     27  C   UNL     1       1.965  -2.156   0.052  0.00  0.00    +0.031 C 
ATOM     28  C   UNL     1       1.268  -1.633   1.309  0.00  0.00    +0.119 C 
ATOM     29  C   UNL     1       1.445  -0.116   1.397  0.00  0.00    +0.035 C 
ENDBRANCH  22  28
ENDBRANCH  21  22
ENDBRANCH   1  21
TORSDOF 8
