REMARK  Name = ZINC63187775
REMARK  6 active torsions:
REMARK  status: ('A' for Active; 'I' for Inactive)
REMARK    1  A    between atoms: C_7  and  C_10
REMARK    2  A    between atoms: C_10  and  C_11
REMARK    3  A    between atoms: N_15  and  C_19
REMARK    4  A    between atoms: C_19  and  C_20
REMARK    5  A    between atoms: N_22  and  C_23
REMARK    6  A    between atoms: N_22  and  C_31
REMARK                            x       y       z     vdW  Elec       q    Type
REMARK                         _______ _______ _______ _____ _____    ______ ____
ROOT
ATOM      1  C   UNL     1       1.534  -4.269  -1.508  0.00  0.00    +0.165 C 
ATOM      2  C   UNL     1       0.380  -5.253  -1.485  0.00  0.00    +0.244 C 
ATOM      3  O   UNL     1      -0.705  -5.095  -0.969  0.00  0.00    -0.273 OA
ATOM      4  N   UNL     1       0.812  -6.337  -2.158  0.00  0.00    -0.216 N 
ATOM      5  C   UNL     1       2.065  -6.178  -2.599  0.00  0.00    +0.310 C 
ATOM      6  O   UNL     1       2.671  -7.020  -3.232  0.00  0.00    -0.252 OA
ATOM      7  N   UNL     1       2.582  -4.978  -2.264  0.00  0.00    -0.287 N 
ATOM      8  H   UNL     1       3.467  -4.645  -2.477  0.00  0.00    +0.151 HD
ENDROOT
BRANCH   1   9
ATOM      9  C   UNL     1       2.010  -3.963  -0.086  0.00  0.00    +0.065 C 
BRANCH   9  16
ATOM     10  C   UNL     1       1.994   0.605   0.345  0.00  0.00    +0.001 A 
ATOM     11  C   UNL     1       3.265   1.185   0.230  0.00  0.00    +0.002 A 
ATOM     12  C   UNL     1       4.381   0.457   0.014  0.00  0.00    +0.026 A 
ATOM     13  C   UNL     1       4.305  -0.958  -0.109  0.00  0.00    +0.043 A 
ATOM     14  N   UNL     1       5.226  -1.867  -0.317  0.00  0.00    -0.380 N 
ATOM     15  C   UNL     1       4.582  -3.185  -0.355  0.00  0.00    +0.144 C 
ATOM     16  C   UNL     1       3.108  -2.933  -0.135  0.00  0.00    -0.039 C 
ATOM     17  C   UNL     1       2.974  -1.594   0.009  0.00  0.00    -0.001 A 
ATOM     18  C   UNL     1       1.810  -0.731   0.244  0.00  0.00    +0.010 A 
ATOM     19  H   UNL     1       6.175  -1.696  -0.427  0.00  0.00    +0.160 HD
ENDBRANCH   9  16
ENDBRANCH   1   9
BRANCH   4  20
ATOM     20  C   UNL     1       0.009  -7.542  -2.379  0.00  0.00    +0.213 C 
BRANCH  20  21
ATOM     21  C   UNL     1      -0.763  -7.402  -3.665  0.00  0.00    +0.234 C 
ATOM     22  O   UNL     1      -0.641  -6.402  -4.340  0.00  0.00    -0.274 OA
ATOM     23  N   UNL     1      -1.590  -8.389  -4.066  0.00  0.00    -0.292 N 
BRANCH  23  24
ATOM     24  C   UNL     1      -2.256  -8.303  -5.368  0.00  0.00    +0.099 C 
ATOM     25  C   UNL     1      -3.158  -7.058  -5.399  0.00  0.00    +0.046 C 
ATOM     26  C   UNL     1      -3.600  -6.817  -6.871  0.00  0.00    +0.168 C 
ATOM     27  S   UNL     1      -2.027  -7.181  -7.759  0.00  0.00    -0.029 S 
ATOM     28  O   UNL     1      -1.300  -5.971  -7.927  0.00  0.00    -0.174 OA
ATOM     29  O   UNL     1      -2.312  -7.989  -8.892  0.00  0.00    -0.174 OA
ATOM     30  C   UNL     1      -1.189  -8.208  -6.485  0.00  0.00    +0.188 C 
ENDBRANCH  23  24
BRANCH  23  31
ATOM     31  C   UNL     1      -1.823  -9.546  -3.199  0.00  0.00    +0.077 C 
ATOM     32  C   UNL     1      -2.491 -10.773  -3.822  0.00  0.00    +0.024 C 
ATOM     33  C   UNL     1      -3.273  -9.888  -2.850  0.00  0.00    +0.024 C 
ENDBRANCH  23  31
ENDBRANCH  20  21
ENDBRANCH   4  20
TORSDOF 6
