REMARK  Name = ZINC11848891
REMARK  6 active torsions:
REMARK  status: ('A' for Active; 'I' for Inactive)
REMARK    1  A    between atoms: C_1  and  C_2
REMARK    2  A    between atoms: C_2  and  C_4
REMARK    3  A    between atoms: C_2  and  N_11
REMARK    4  A    between atoms: C_7  and  O_10
REMARK    5  A    between atoms: C_16  and  N_26
REMARK    6  A    between atoms: C_21  and  C_22
REMARK                            x       y       z     vdW  Elec       q    Type
REMARK                         _______ _______ _______ _____ _____    ______ ____
ROOT
ATOM      1  N   UNL     1       1.036   1.679  -0.185  0.00  0.00    -0.282 N 
ATOM      2  C   UNL     1       0.193   0.954  -0.957  0.00  0.00    +0.263 A 
ATOM      3  O   UNL     1       0.564  -0.061  -1.516  0.00  0.00    -0.267 OA
ATOM      4  C   UNL     1      -1.186   1.445  -1.098  0.00  0.00    +0.067 A 
ATOM      5  C   UNL     1      -2.130   0.776  -1.874  0.00  0.00    +0.038 A 
ATOM      6  C   UNL     1      -3.413   1.286  -1.970  0.00  0.00    +0.025 A 
ATOM      7  C   UNL     1      -3.759   2.458  -1.296  0.00  0.00    +0.025 A 
ATOM      8  C   UNL     1      -2.846   3.118  -0.524  0.00  0.00    +0.030 A 
ATOM      9  C   UNL     1      -1.543   2.628  -0.414  0.00  0.00    +0.079 A 
ATOM     10  N   UNL     1      -0.604   3.265   0.331  0.00  0.00    -0.225 NA
ATOM     11  C   UNL     1       0.607   2.811   0.433  0.00  0.00    +0.219 A 
ENDROOT
BRANCH  11  12
ATOM     12  C   UNL     1       1.589   3.579   1.281  0.00  0.00    +0.451 C 
ATOM     13  F   UNL     1       0.957   4.702   1.825  0.00  0.00    -0.163 F 
ATOM     14  F   UNL     1       2.053   2.759   2.315  0.00  0.00    -0.163 F 
ATOM     15  F   UNL     1       2.668   3.988   0.490  0.00  0.00    -0.163 F 
ENDBRANCH  11  12
BRANCH   6  16
ATOM     16  N   UNL     1      -4.368   0.623  -2.745  0.00  0.00    -0.358 N 
ATOM     17  H   UNL     1      -4.131  -0.193  -3.214  0.00  0.00    +0.142 HD
ATOM     18  H   UNL     1      -5.268   0.978  -2.814  0.00  0.00    +0.142 HD
ENDBRANCH   6  16
BRANCH   1  20
ATOM     19  C   UNL     1       2.443  -0.221   0.441  0.00  0.00    +0.036 C 
ATOM     20  C   UNL     1       2.423   1.239  -0.013  0.00  0.00    +0.119 C 
BRANCH  20  21
ATOM     21  C   UNL     1       3.156   1.367  -1.324  0.00  0.00    -0.025 A 
ATOM     22  C   UNL     1       2.446   1.519  -2.500  0.00  0.00    +0.009 A 
ATOM     23  C   UNL     1       3.116   1.642  -3.702  0.00  0.00    +0.046 A 
ATOM     24  C   UNL     1       4.502   1.602  -3.729  0.00  0.00    +0.117 A 
ATOM     25  C   UNL     1       5.213   1.444  -2.548  0.00  0.00    +0.046 A 
ATOM     26  C   UNL     1       4.538   1.327  -1.348  0.00  0.00    +0.009 A 
BRANCH  24  27
ATOM     27  O   UNL     1       5.163   1.716  -4.911  0.00  0.00    -0.507 OA
ATOM     28  H   UNL     1       5.327   0.872  -5.354  0.00  0.00    +0.292 HD
ENDBRANCH  24  27
ENDBRANCH  20  21
ENDBRANCH   1  20
TORSDOF 5
