REMARK  Name = ZINC15731366
REMARK  9 active torsions:
REMARK  status: ('A' for Active; 'I' for Inactive)
REMARK    1  A    between atoms: C_1  and  C_2
REMARK    2  A    between atoms: C_8  and  C_9
REMARK    3  A    between atoms: C_8  and  N_62
REMARK    4  A    between atoms: C_9  and  C_10
REMARK    5  A    between atoms: C_10  and  N_11
REMARK    6  A    between atoms: C_12  and  C_14
REMARK    7  A    between atoms: C_15  and  C_29
REMARK    8  A    between atoms: N_22  and  S_25
REMARK    9  A    between atoms: S_25  and  C_28
REMARK                            x       y       z     vdW  Elec       q    Type
REMARK                         _______ _______ _______ _____ _____    ______ ____
ROOT
ATOM      1  C   UNL     1      -1.233   1.057   8.542  0.00  0.00    +0.067 C 
ATOM      2  C   UNL     1      -1.507   1.237   9.845  0.00  0.00    +0.045 C 
ATOM      3  C   UNL     1      -0.356   0.791  10.647  0.00  0.00    +0.336 C 
ATOM      4  O   UNL     1      -0.297   0.822  11.859  0.00  0.00    -0.245 OA
ATOM      5  O   UNL     1       0.624   0.349   9.836  0.00  0.00    -0.450 OA
ATOM      6  C   UNL     1       0.159   0.478   8.466  0.00  0.00    +0.146 C 
ATOM      7  C   UNL     1       1.075   1.421   7.687  0.00  0.00    +0.070 C 
ATOM      8  C   UNL     1       2.494   0.845   7.662  0.00  0.00    +0.113 C 
ATOM      9  N   UNL     1       2.438  -0.526   7.135  0.00  0.00    -0.181 NA
ATOM     10  C   UNL     1       1.529  -1.490   7.769  0.00  0.00    +0.113 C 
ATOM     11  C   UNL     1       0.118  -0.893   7.793  0.00  0.00    +0.070 C 
ATOM     12  C   UNL     1      -2.790   1.802  10.397  0.00  0.00    +0.052 C 
ENDROOT
BRANCH   1  14
ATOM     13  N   UNL     1      -1.704   1.142   6.142  0.00  0.00    -0.312 N 
ATOM     14  C   UNL     1      -2.120   1.372   7.403  0.00  0.00    +0.244 C 
ATOM     15  O   UNL     1      -3.224   1.837   7.604  0.00  0.00    -0.270 OA
ATOM     16  H   UNL     1      -0.822   0.770   5.982  0.00  0.00    +0.149 HD
BRANCH  13  17
ATOM     17  C   UNL     1      -2.583   1.454   5.012  0.00  0.00    +0.102 C 
BRANCH  17  18
ATOM     18  C   UNL     1      -1.876   1.101   3.703  0.00  0.00    +0.000 C 
BRANCH  18  19
ATOM     19  C   UNL     1      -2.794   1.427   2.523  0.00  0.00    -0.077 C 
BRANCH  19  26
ATOM     20  C   UNL     1      -4.306   1.101   0.172  0.00  0.00    -0.013 C 
ATOM     21  C   UNL     1      -2.861   1.601   0.109  0.00  0.00    -0.072 C 
ATOM     22  C   UNL     1      -2.206   1.108  -1.183  0.00  0.00    -0.016 C 
ATOM     23  C   UNL     1      -0.755   1.594  -1.231  0.00  0.00    -0.003 C 
ATOM     24  C   UNL     1      -0.013   1.086   0.008  0.00  0.00    -0.019 C 
ATOM     25  C   UNL     1      -0.731   1.580   1.266  0.00  0.00    -0.078 C 
ATOM     26  N   UNL     1      -2.115   1.058   1.264  0.00  0.00    +0.381 N 
ATOM     27  H   UNL     1      -2.084   0.034   1.189  0.00  0.00    -0.081 HD
ENDBRANCH  19  26
ENDBRANCH  18  19
ENDBRANCH  17  18
ENDBRANCH  13  17
ENDBRANCH   1  14
BRANCH   9  28
ATOM     28  S   UNL     1       3.383  -0.975   5.852  0.00  0.00    +0.029 S 
ATOM     29  O   UNL     1       4.500  -0.097   5.898  0.00  0.00    -0.158 OA
ATOM     30  O   UNL     1       3.557  -2.377   6.003  0.00  0.00    -0.158 OA
ATOM     31  C   UNL     1       2.375  -0.625   4.385  0.00  0.00    +0.215 C 
ENDBRANCH   9  28
TORSDOF 6
