REMARK  Name = ZINC48459258
REMARK  6 active torsions:
REMARK  status: ('A' for Active; 'I' for Inactive)
REMARK    1  A    between atoms: C_1  and  C_2
REMARK    2  A    between atoms: C_2  and  C_4
REMARK    3  A    between atoms: C_2  and  N_11
REMARK    4  A    between atoms: C_12  and  C_14
REMARK    5  A    between atoms: C_16  and  N_22
REMARK    6  A    between atoms: N_18  and  C_19
REMARK                            x       y       z     vdW  Elec       q    Type
REMARK                         _______ _______ _______ _____ _____    ______ ____
ROOT
ATOM      1  N   UNL     1      -1.292  -0.717  -0.005  0.00  0.00    -0.304 N 
ATOM      2  C   UNL     1      -1.991  -0.784  -1.155  0.00  0.00    +0.261 C 
ATOM      3  O   UNL     1      -1.489  -0.403  -2.196  0.00  0.00    -0.269 OA
ATOM      4  H   UNL     1      -1.718  -0.946   0.836  0.00  0.00    +0.150 HD
ENDROOT
BRANCH   2   5
ATOM      5  C   UNL     1      -3.358  -1.315  -1.152  0.00  0.00    +0.106 A 
ATOM      6  C   UNL     1      -4.086  -1.683  -0.039  0.00  0.00    +0.055 A 
ATOM      7  C   UNL     1      -5.334  -2.132  -0.492  0.00  0.00    +0.043 A 
ATOM      8  C   UNL     1      -5.344  -2.031  -1.847  0.00  0.00    +0.109 A 
ATOM      9  N   UNL     1      -4.148  -1.530  -2.257  0.00  0.00    -0.338 N 
BRANCH   9  10
ATOM     10  C   UNL     1      -3.764  -1.267  -3.646  0.00  0.00    +0.088 C 
ATOM     11  C   UNL     1      -4.860  -1.348  -4.710  0.00  0.00    +0.027 C 
ATOM     12  C   UNL     1      -3.795  -2.444  -4.624  0.00  0.00    +0.027 C 
ENDBRANCH   9  10
BRANCH   7  13
ATOM     13  N   UNL     1      -6.389  -2.603   0.312  0.00  0.00    -0.357 N 
ATOM     14  H   UNL     1      -6.285  -2.636   1.276  0.00  0.00    +0.142 HD
ATOM     15  H   UNL     1      -7.219  -2.893  -0.097  0.00  0.00    +0.142 HD
ENDBRANCH   7  13
ENDBRANCH   2   5
BRANCH   1  17
ATOM     16  C   UNL     1       0.190   1.229   0.011  0.00  0.00    +0.033 C 
ATOM     17  C   UNL     1       0.112  -0.299  -0.025  0.00  0.00    +0.100 C 
BRANCH  17  18
ATOM     18  C   UNL     1       0.822  -0.866   1.177  0.00  0.00    -0.027 A 
ATOM     19  C   UNL     1       0.185  -0.901   2.403  0.00  0.00    +0.006 A 
ATOM     20  C   UNL     1       0.835  -1.422   3.506  0.00  0.00    +0.015 A 
ATOM     21  C   UNL     1       2.125  -1.907   3.383  0.00  0.00    +0.018 A 
ATOM     22  C   UNL     1       2.763  -1.871   2.156  0.00  0.00    +0.015 A 
ATOM     23  C   UNL     1       2.109  -1.355   1.053  0.00  0.00    +0.006 A 
ATOM     24 BR   UNL     1       3.016  -2.618   4.891  0.00  0.00    -0.050 Br
ENDBRANCH  17  18
ENDBRANCH   1  17
TORSDOF 5
