REMARK  Name = ZINC09287217
REMARK  6 active torsions:
REMARK  status: ('A' for Active; 'I' for Inactive)
REMARK    1  A    between atoms: C_1  and  C_2
REMARK    2  A    between atoms: C_2  and  C_3
REMARK    3  A    between atoms: C_2  and  C_4
REMARK    4  A    between atoms: C_4  and  N_5
REMARK    5  A    between atoms: C_14  and  C_19
REMARK    6  A    between atoms: C_14  and  C_23
REMARK                            x       y       z     vdW  Elec       q    Type
REMARK                         _______ _______ _______ _____ _____    ______ ____
ROOT
ATOM      1  N   UNL     1      -1.577  -1.252  -1.114  0.00  0.00    -0.241 N 
ATOM      2  C   UNL     1      -1.572  -2.211  -2.103  0.00  0.00    +0.134 C 
ATOM      3  C   UNL     1      -1.474  -3.562  -1.730  0.00  0.00    +0.093 C 
ATOM      4  C   UNL     1      -1.387  -3.903  -0.419  0.00  0.00    +0.253 C 
ATOM      5  O   UNL     1      -1.292  -5.199  -0.056  0.00  0.00    -0.270 OA
ATOM      6  N   UNL     1      -1.395  -2.914   0.534  0.00  0.00    -0.236 N 
ATOM      7  H   UNL     1      -1.333  -3.151   1.472  0.00  0.00    +0.159 HD
ATOM      8  C   UNL     1      -1.485  -1.620   0.178  0.00  0.00    +0.314 C 
ATOM      9  O   UNL     1      -1.486  -0.764   1.042  0.00  0.00    -0.252 OA
ATOM     10  C   UNL     1      -1.470  -4.599  -2.829  0.00  0.00    +0.259 C 
ATOM     11  N   UNL     1      -1.570  -4.080  -4.207  0.00  0.00    -0.273 N 
ATOM     12  C   UNL     1      -1.657  -2.747  -4.383  0.00  0.00    +0.326 C 
ATOM     13  O   UNL     1      -1.740  -2.320  -5.521  0.00  0.00    -0.251 OA
ATOM     14  N   UNL     1      -1.656  -1.877  -3.383  0.00  0.00    -0.147 NA
ATOM     15  H   UNL     1      -1.573  -4.683  -4.966  0.00  0.00    +0.152 HD
ENDROOT
BRANCH  10  16
ATOM     16  C   UNL     1      -0.176  -5.409  -2.716  0.00  0.00    +0.424 C 
ATOM     17  F   UNL     1      -0.193  -6.154  -1.533  0.00  0.00    -0.168 F 
ATOM     18  F   UNL     1      -0.071  -6.274  -3.811  0.00  0.00    -0.168 F 
ATOM     19  F   UNL     1       0.919  -4.538  -2.703  0.00  0.00    -0.168 F 
ENDBRANCH  10  16
BRANCH  10  20
ATOM     20  C   UNL     1      -2.643  -5.553  -2.591  0.00  0.00    +0.424 C 
ATOM     21  F   UNL     1      -3.824  -4.815  -2.462  0.00  0.00    -0.168 F 
ATOM     22  F   UNL     1      -2.757  -6.431  -3.674  0.00  0.00    -0.168 F 
ATOM     23  F   UNL     1      -2.419  -6.284  -1.419  0.00  0.00    -0.168 F 
ENDBRANCH  10  20
BRANCH   1  24
ATOM     24  C   UNL     1      -1.678   0.166  -1.468  0.00  0.00    +0.119 C 
BRANCH  24  26
ATOM     25  C   UNL     1      -0.382   2.187  -2.161  0.00  0.00    +0.009 C 
ATOM     26  C   UNL     1      -0.275   0.742  -1.671  0.00  0.00    +0.001 C 
ATOM     27  C   UNL     1       0.487   0.708  -0.344  0.00  0.00    +0.009 C 
ENDBRANCH  24  26
ENDBRANCH   1  24
TORSDOF 4
