REMARK  Name = ZINC38830199
REMARK  8 active torsions:
REMARK  status: ('A' for Active; 'I' for Inactive)
REMARK    1  A    between atoms: C_1  and  C_2
REMARK    2  A    between atoms: C_3  and  C_26
REMARK    3  A    between atoms: N_10  and  C_21
REMARK    4  A    between atoms: N_12  and  C_13
REMARK    5  A    between atoms: C_21  and  C_22
REMARK    6  A    between atoms: C_22  and  C_23
REMARK    7  A    between atoms: C_23  and  O_24
REMARK    8  A    between atoms: O_24  and  C_25
REMARK                            x       y       z     vdW  Elec       q    Type
REMARK                         _______ _______ _______ _____ _____    ______ ____
ROOT
ATOM      1  C   UNL     1      -1.030   1.380  -0.197  0.00  0.00    +0.051 C 
ATOM      2  C   UNL     1      -0.734  -0.097  -0.147  0.00  0.00    +0.035 A 
ATOM      3  C   UNL     1      -0.711  -0.839  -1.292  0.00  0.00    +0.050 A 
ATOM      4  N   UNL     1      -0.433  -2.139  -1.235  0.00  0.00    -0.220 NA
ATOM      5  C   UNL     1      -0.189  -2.745  -0.088  0.00  0.00    +0.202 A 
ATOM      6  N   UNL     1      -0.251  -2.068   1.090  0.00  0.00    -0.297 N 
ATOM      7  C   UNL     1      -0.471  -0.732   1.079  0.00  0.00    +0.257 A 
ATOM      8  O   UNL     1      -0.447  -0.091   2.116  0.00  0.00    -0.267 OA
ATOM      9  C   UNL     1      -0.115  -2.755   2.369  0.00  0.00    +0.055 C 
ATOM     10  N   UNL     1       0.615  -4.007   2.266  0.00  0.00    +0.402 N 
ATOM     11  C   UNL     1       0.165  -4.834   1.154  0.00  0.00    +0.041 C 
ATOM     12  N   UNL     1       0.145  -4.075  -0.091  0.00  0.00    -0.287 N 
ATOM     13  C   UNL     1      -1.000  -0.187  -2.619  0.00  0.00    +0.066 C 
ATOM     14  H   UNL     1       1.596  -3.803   2.143  0.00  0.00    -0.077 HD
ENDROOT
BRANCH  12  15
ATOM     15  C   UNL     1       0.469  -4.708  -1.296  0.00  0.00    +0.037 A 
ATOM     16  C   UNL     1       1.628  -4.358  -1.976  0.00  0.00    +0.043 A 
ATOM     17  C   UNL     1       1.946  -4.985  -3.166  0.00  0.00    +0.044 A 
ATOM     18  C   UNL     1       1.109  -5.960  -3.680  0.00  0.00    +0.040 A 
ATOM     19  C   UNL     1      -0.047  -6.310  -3.006  0.00  0.00    +0.044 A 
ATOM     20  C   UNL     1      -0.366  -5.690  -1.812  0.00  0.00    +0.043 A 
ATOM     21 CL   UNL     1      -1.095  -7.532  -3.655  0.00  0.00    -0.083 Cl
ATOM     22 CL   UNL     1       3.395  -4.549  -4.016  0.00  0.00    -0.083 Cl
ENDBRANCH  12  15
BRANCH  10  23
ATOM     23  C   UNL     1       0.445  -4.759   3.516  0.00  0.00    -0.072 C 
BRANCH  23  24
ATOM     24  C   UNL     1       1.100  -3.993   4.667  0.00  0.00    +0.010 C 
BRANCH  24  25
ATOM     25  C   UNL     1       0.922  -4.777   5.968  0.00  0.00    +0.157 C 
BRANCH  25  26
ATOM     26  O   UNL     1       1.535  -4.061   7.043  0.00  0.00    -0.383 OA
ATOM     27  C   UNL     1       1.425  -4.710   8.311  0.00  0.00    +0.193 C 
ENDBRANCH  25  26
ENDBRANCH  24  25
ENDBRANCH  23  24
ENDBRANCH  10  23
TORSDOF 5
