REMARK  Name = ZINC08728390
REMARK  8 active torsions:
REMARK  status: ('A' for Active; 'I' for Inactive)
REMARK    1  A    between atoms: C_1  and  C_2
REMARK    2  A    between atoms: C_5  and  C_35
REMARK    3  A    between atoms: N_8  and  S_10
REMARK    4  A    between atoms: S_10  and  C_13
REMARK    5  A    between atoms: C_16  and  N_19
REMARK    6  A    between atoms: C_20  and  C_22
REMARK    7  A    between atoms: C_22  and  C_23
REMARK    8  A    between atoms: C_23  and  N_24
REMARK                            x       y       z     vdW  Elec       q    Type
REMARK                         _______ _______ _______ _____ _____    ______ ____
ROOT
ATOM      1  N   UNL     1      -3.472   3.622   2.648  0.00  0.00    -0.285 N 
ATOM      2  C   UNL     1      -3.227   2.756   3.652  0.00  0.00    +0.219 C 
ATOM      3  O   UNL     1      -4.021   2.641   4.561  0.00  0.00    -0.275 OA
ATOM      4  H   UNL     1      -2.806   3.763   1.957  0.00  0.00    +0.155 HD
ENDROOT
BRANCH   1   8
ATOM      5  C   UNL     1      -7.087   5.687   2.514  0.00  0.00    +0.106 A 
ATOM      6  C   UNL     1      -6.497   5.409   3.733  0.00  0.00    +0.030 A 
ATOM      7  C   UNL     1      -5.298   4.724   3.781  0.00  0.00    +0.025 A 
ATOM      8  C   UNL     1      -4.686   4.315   2.603  0.00  0.00    +0.033 A 
ATOM      9  C   UNL     1      -5.279   4.601   1.381  0.00  0.00    +0.025 A 
ATOM     10  C   UNL     1      -6.480   5.282   1.340  0.00  0.00    +0.030 A 
BRANCH   5  11
ATOM     11  S   UNL     1      -8.616   6.561   2.458  0.00  0.00    +0.061 S 
ATOM     12  O   UNL     1      -9.234   6.219   1.224  0.00  0.00    -0.153 OA
ATOM     13  O   UNL     1      -9.251   6.351   3.712  0.00  0.00    -0.153 OA
BRANCH  11  19
ATOM     14  C   UNL     1      -5.621   8.647   3.603  0.00  0.00    +0.009 C 
ATOM     15  C   UNL     1      -6.745   9.684   3.556  0.00  0.00    +0.002 C 
ATOM     16  C   UNL     1      -6.639  10.494   2.262  0.00  0.00    +0.009 C 
ATOM     17  C   UNL     1      -6.728   9.551   1.060  0.00  0.00    +0.002 C 
ATOM     18  C   UNL     1      -8.083   8.838   1.074  0.00  0.00    +0.112 C 
ATOM     19  N   UNL     1      -8.255   8.175   2.374  0.00  0.00    -0.176 NA
ATOM     20  C   UNL     1      -8.106   8.973   3.599  0.00  0.00    +0.112 C 
ATOM     21  C   UNL     1      -6.589  10.358  -0.233  0.00  0.00    +0.009 C 
ENDBRANCH  11  19
ENDBRANCH   5  11
ENDBRANCH   1   8
BRANCH   2  22
ATOM     22  C   UNL     1      -1.965   1.933   3.646  0.00  0.00    +0.115 C 
BRANCH  22  23
ATOM     23  C   UNL     1      -1.932   1.040   4.888  0.00  0.00    +0.127 C 
BRANCH  23  24
ATOM     24  N   UNL     1      -0.706   0.239   4.882  0.00  0.00    -0.224 N 
ATOM     25  C   UNL     1       0.459   0.629   5.444  0.00  0.00    +0.247 C 
ATOM     26  O   UNL     1       0.684   1.670   6.023  0.00  0.00    -0.273 OA
ATOM     27  C   UNL     1       1.420  -0.506   5.196  0.00  0.00    +0.113 C 
ATOM     28  C   UNL     1       1.944  -1.083   6.518  0.00  0.00    +0.035 C 
ATOM     29  C   UNL     1       3.408  -1.481   6.199  0.00  0.00    +0.003 C 
ATOM     30  C   UNL     1       3.875  -0.348   5.250  0.00  0.00    +0.003 C 
ATOM     31  C   UNL     1       2.632  -0.041   4.385  0.00  0.00    +0.035 C 
ATOM     32  N   UNL     1       0.633  -1.498   4.461  0.00  0.00    -0.285 N 
ATOM     33  C   UNL     1      -0.601  -0.974   4.324  0.00  0.00    +0.309 C 
ATOM     34  O   UNL     1      -1.516  -1.538   3.757  0.00  0.00    -0.252 OA
ATOM     35  H   UNL     1       0.939  -2.360   4.138  0.00  0.00    +0.151 HD
ENDBRANCH  23  24
ENDBRANCH  22  23
ENDBRANCH   2  22
TORSDOF 6
