REMARK  Name = ZINC04236994
REMARK  16 active torsions:
REMARK  status: ('A' for Active; 'I' for Inactive)
REMARK    1  A    between atoms: C_1  and  C_2
REMARK    2  A    between atoms: C_5  and  O_42
REMARK    3  A    between atoms: C_7  and  C_39
REMARK    4  A    between atoms: C_7  and  C_40
REMARK    5  A    between atoms: C_17  and  C_19
REMARK    6  A    between atoms: C_19  and  C_20
REMARK    7  A    between atoms: C_20  and  C_21
REMARK    8  A    between atoms: C_20  and  C_22
REMARK    9  A    between atoms: C_20  and  C_23
REMARK   10  A    between atoms: C_24  and  C_26
REMARK   11  A    between atoms: C_26  and  C_27
REMARK   12  A    between atoms: N_29  and  C_30
REMARK   13  A    between atoms: C_30  and  C_31
REMARK   14  A    between atoms: C_36  and  O_37
REMARK   15  A    between atoms: O_37  and  C_38
REMARK   16  A    between atoms: C_40  and  O_41
REMARK                            x       y       z     vdW  Elec       q    Type
REMARK                         _______ _______ _______ _____ _____    ______ ____
ROOT
ATOM      1  C   UNL     1       7.864   2.542  -4.096  0.00  0.00    +0.012 C 
ATOM      2  C   UNL     1       8.291   1.155  -3.610  0.00  0.00    -0.019 C 
ATOM      3  C   UNL     1       9.444   0.640  -4.477  0.00  0.00    +0.010 C 
ATOM      4  C   UNL     1      10.662   1.551  -4.339  0.00  0.00    +0.032 C 
ATOM      5  C   UNL     1      11.111   1.555  -2.874  0.00  0.00    +0.123 C 
ATOM      6  C   UNL     1       9.978   2.114  -2.015  0.00  0.00    +0.021 C 
ATOM      7  C   UNL     1       8.729   1.237  -2.146  0.00  0.00    +0.011 C 
ATOM      8  C   UNL     1       7.611   1.911  -1.326  0.00  0.00    +0.049 C 
ATOM      9  C   UNL     1       6.305   1.301  -1.695  0.00  0.00    +0.015 A 
ATOM     10  C   UNL     1       6.028   0.519  -2.769  0.00  0.00    +0.058 A 
ATOM     11  N   UNL     1       4.769   0.098  -2.876  0.00  0.00    -0.229 NA
ATOM     12  C   UNL     1       3.846   0.417  -1.993  0.00  0.00    +0.165 A 
ATOM     13  S   UNL     1       4.737   1.407  -0.875  0.00  0.00    -0.057 S 
ATOM     14  N   UNL     1       2.503   0.059  -1.965  0.00  0.00    -0.265 N 
ATOM     15  C   UNL     1       1.711   0.492  -0.964  0.00  0.00    +0.219 C 
ATOM     16  O   UNL     1       2.170   1.193  -0.088  0.00  0.00    -0.275 OA
ATOM     17  C   UNL     1       7.126   0.167  -3.761  0.00  0.00    +0.054 C 
ATOM     18  C   UNL     1      10.422   2.147  -0.552  0.00  0.00    +0.016 C 
ATOM     19  H   UNL     1       2.136  -0.502  -2.666  0.00  0.00    +0.157 HD
ENDROOT
BRANCH   5  20
ATOM     20  O   UNL     1      12.271   2.377  -2.731  0.00  0.00    -0.391 OA
ATOM     21  H   UNL     1      13.027   2.086  -3.259  0.00  0.00    +0.210 HD
ENDBRANCH   5  20
BRANCH  15  22
ATOM     22  C   UNL     1       0.255   0.104  -0.934  0.00  0.00    +0.102 C 
BRANCH  22  23
ATOM     23  C   UNL     1      -0.412   0.722   0.297  0.00  0.00    -0.029 C 
ATOM     24  C   UNL     1      -0.291   2.245   0.231  0.00  0.00    +0.011 C 
ATOM     25  C   UNL     1       0.279   0.209   1.562  0.00  0.00    +0.011 C 
ATOM     26  C   UNL     1      -1.890   0.328   0.327  0.00  0.00    +0.011 C 
ENDBRANCH  22  23
ENDBRANCH  15  22
BRANCH  17  27
ATOM     27  C   UNL     1       6.572   0.246  -5.185  0.00  0.00    +0.106 C 
BRANCH  27  28
ATOM     28  C   UNL     1       5.568  -0.859  -5.395  0.00  0.00    +0.214 C 
ATOM     29  O   UNL     1       5.321  -1.633  -4.495  0.00  0.00    -0.276 OA
ATOM     30  N   UNL     1       4.946  -0.986  -6.583  0.00  0.00    -0.311 N 
ATOM     31  H   UNL     1       5.144  -0.367  -7.303  0.00  0.00    +0.149 HD
BRANCH  30  32
ATOM     32  C   UNL     1       3.970  -2.060  -6.788  0.00  0.00    +0.143 C 
BRANCH  32  33
ATOM     33  C   UNL     1       3.424  -1.982  -8.190  0.00  0.00    +0.011 A 
ATOM     34  C   UNL     1       2.192  -1.401  -8.421  0.00  0.00    +0.009 A 
ATOM     35  C   UNL     1       1.691  -1.329  -9.707  0.00  0.00    +0.001 A 
ATOM     36  C   UNL     1       2.420  -1.838 -10.766  0.00  0.00    +0.004 A 
ATOM     37  C   UNL     1       3.653  -2.420 -10.540  0.00  0.00    +0.046 A 
ATOM     38  C   UNL     1       4.160  -2.489  -9.251  0.00  0.00    +0.125 A 
BRANCH  38  39
ATOM     39  O   UNL     1       5.375  -3.056  -9.027  0.00  0.00    -0.495 OA
ATOM     40  C   UNL     1       6.077  -3.557 -10.166  0.00  0.00    +0.277 C 
ENDBRANCH  38  39
ENDBRANCH  32  33
ENDBRANCH  30  32
ENDBRANCH  27  28
ENDBRANCH  17  27
BRANCH   6  41
ATOM     41  C   UNL     1       9.649   3.536  -2.474  0.00  0.00    +0.165 C 
BRANCH  41  42
ATOM     42  O   UNL     1      10.762   4.391  -2.208  0.00  0.00    -0.394 OA
ATOM     43  H   UNL     1      10.623   5.311  -2.474  0.00  0.00    +0.209 HD
ENDBRANCH  41  42
ENDBRANCH   6  41
TORSDOF 10
