REMARK  Name = ZINC39712127
REMARK  7 active torsions:
REMARK  status: ('A' for Active; 'I' for Inactive)
REMARK    1  A    between atoms: C_1  and  C_2
REMARK    2  A    between atoms: C_5  and  C_8
REMARK    3  A    between atoms: N_10  and  C_11
REMARK    4  A    between atoms: N_10  and  C_18
REMARK    5  A    between atoms: C_11  and  C_12
REMARK    6  A    between atoms: C_18  and  C_19
REMARK    7  A    between atoms: C_24  and  C_31
REMARK                            x       y       z     vdW  Elec       q    Type
REMARK                         _______ _______ _______ _____ _____    ______ ____
ROOT
ATOM      1  C   UNL     1      -0.743  -4.258   0.216  0.00  0.00    +0.247 C 
ATOM      2  O   UNL     1      -0.671  -3.047   0.154  0.00  0.00    -0.270 OA
ATOM      3  N   UNL     1      -0.027  -4.929   1.140  0.00  0.00    -0.292 N 
ENDROOT
BRANCH   1   8
ATOM      4  C   UNL     1      -4.137  -7.130  -3.438  0.00  0.00    +0.044 C 
ATOM      5  C   UNL     1      -3.248  -6.378  -2.481  0.00  0.00    -0.050 A 
ATOM      6  C   UNL     1      -3.716  -5.232  -1.862  0.00  0.00    +0.004 A 
ATOM      7  C   UNL     1      -2.907  -4.539  -0.985  0.00  0.00    +0.013 A 
ATOM      8  C   UNL     1      -1.615  -4.997  -0.723  0.00  0.00    +0.037 A 
ATOM      9  C   UNL     1      -1.149  -6.153  -1.350  0.00  0.00    +0.013 A 
ATOM     10  C   UNL     1      -1.970  -6.840  -2.221  0.00  0.00    +0.004 A 
ENDBRANCH   1   8
BRANCH   3  11
ATOM     11  C   UNL     1       0.734  -4.194   2.153  0.00  0.00    +0.143 C 
BRANCH  11  12
ATOM     12  C   UNL     1      -0.090  -4.067   3.408  0.00  0.00    -0.030 A 
ATOM     13  C   UNL     1      -1.006  -3.039   3.533  0.00  0.00    +0.005 A 
ATOM     14  C   UNL     1      -1.762  -2.923   4.684  0.00  0.00    +0.000 A 
ATOM     15  C   UNL     1      -1.604  -3.836   5.710  0.00  0.00    +0.000 A 
ATOM     16  C   UNL     1      -0.689  -4.865   5.584  0.00  0.00    +0.000 A 
ATOM     17  C   UNL     1       0.064  -4.983   4.431  0.00  0.00    +0.005 A 
ENDBRANCH  11  12
ENDBRANCH   3  11
BRANCH   3  18
ATOM     18  C   UNL     1      -0.010  -6.394   1.132  0.00  0.00    +0.125 C 
BRANCH  18  19
ATOM     19  C   UNL     1       1.438  -6.888   1.122  0.00  0.00    +0.116 C 
ATOM     20  C   UNL     1       1.419  -8.389   1.335  0.00  0.00    -0.003 C 
ATOM     21  C   UNL     1       1.997  -9.164   0.374  0.00  0.00    -0.007 A 
ATOM     22  C   UNL     1       2.024 -10.621   0.500  0.00  0.00    +0.012 A 
ATOM     23  C   UNL     1       2.611 -11.353  -0.482  0.00  0.00    -0.050 A 
ATOM     24  C   UNL     1       3.183 -10.744  -1.598  0.00  0.00    +0.005 A 
ATOM     25  C   UNL     1       3.192  -9.396  -1.774  0.00  0.00    +0.024 A 
ATOM     26  C   UNL     1       2.609  -8.547  -0.816  0.00  0.00    +0.040 A 
ATOM     27  N   UNL     1       2.622  -7.227  -1.000  0.00  0.00    -0.284 N 
ATOM     28  C   UNL     1       2.095  -6.374  -0.139  0.00  0.00    +0.226 C 
ATOM     29  O   UNL     1       2.138  -5.178  -0.361  0.00  0.00    -0.275 OA
ATOM     30  C   UNL     1       2.644 -12.855  -0.363  0.00  0.00    +0.044 C 
ATOM     31  H   UNL     1       3.039  -6.876  -1.802  0.00  0.00    +0.155 HD
ENDBRANCH  18  19
ENDBRANCH   3  18
TORSDOF 5
