REMARK  Name = ZINC33680720
REMARK  4 active torsions:
REMARK  status: ('A' for Active; 'I' for Inactive)
REMARK    1  A    between atoms: C_4  and  C_7
REMARK    2  A    between atoms: C_11  and  C_35
REMARK    3  A    between atoms: C_14  and  C_29
REMARK    4  A    between atoms: C_20  and  C_23
REMARK                            x       y       z     vdW  Elec       q    Type
REMARK                         _______ _______ _______ _____ _____    ______ ____
ROOT
ATOM      1  C   UNL     1       1.368   3.092   0.313  0.00  0.00    -0.027 C 
ATOM      2  C   UNL     1       1.458   1.558   0.266  0.00  0.00    +0.079 C 
ATOM      3  C   UNL     1       0.024   0.999   0.271  0.00  0.00    +0.158 C 
ATOM      4  O   UNL     1      -0.651   1.456   1.443  0.00  0.00    -0.363 OA
ATOM      5  C   UNL     1      -0.094   1.014   2.681  0.00  0.00    +0.158 C 
ATOM      6  C   UNL     1       1.333   1.573   2.820  0.00  0.00    +0.079 C 
ATOM      7  C   UNL     1       2.097   1.120   1.580  0.00  0.00    +0.143 C 
ATOM      8  O   UNL     1       3.116   0.474   1.634  0.00  0.00    -0.297 OA
ATOM      9  C   UNL     1       1.249   3.106   2.748  0.00  0.00    -0.027 C 
ATOM     10  N   UNL     1       0.595   3.496   1.493  0.00  0.00    +0.389 N 
ATOM     11  H   UNL     1       0.476   4.590   1.497  0.00  0.00    -0.084 HD
ATOM     12  H   UNL     1      -0.396   3.020   1.463  0.00  0.00    -0.084 HD
ENDROOT
BRANCH   1  16
ATOM     13  C   UNL     1      -0.572   4.516  -3.217  0.00  0.00    +0.000 A 
ATOM     14  C   UNL     1      -1.103   4.802  -1.974  0.00  0.00    +0.000 A 
ATOM     15  C   UNL     1      -0.475   4.342  -0.831  0.00  0.00    +0.002 A 
ATOM     16  C   UNL     1       0.683   3.594  -0.933  0.00  0.00    -0.061 A 
ATOM     17  C   UNL     1       1.217   3.312  -2.176  0.00  0.00    +0.002 A 
ATOM     18  C   UNL     1       0.587   3.769  -3.319  0.00  0.00    +0.000 A 
ENDBRANCH   1  16
BRANCH   9  19
ATOM     19  C   UNL     1       0.447   3.623   3.914  0.00  0.00    -0.061 A 
ATOM     20  C   UNL     1      -0.692   4.374   3.692  0.00  0.00    +0.002 A 
ATOM     21  C   UNL     1      -1.430   4.844   4.763  0.00  0.00    +0.000 A 
ATOM     22  C   UNL     1      -1.022   4.572   6.055  0.00  0.00    +0.000 A 
ATOM     23  C   UNL     1       0.120   3.826   6.278  0.00  0.00    +0.000 A 
ATOM     24  C   UNL     1       0.855   3.352   5.207  0.00  0.00    +0.002 A 
ENDBRANCH   9  19
BRANCH   5  25
ATOM     25  C   UNL     1      -0.943   1.511   3.822  0.00  0.00    -0.018 A 
ATOM     26  C   UNL     1      -0.586   1.222   5.126  0.00  0.00    +0.006 A 
ATOM     27  C   UNL     1      -1.362   1.682   6.173  0.00  0.00    +0.000 A 
ATOM     28  C   UNL     1      -2.501   2.422   5.916  0.00  0.00    +0.000 A 
ATOM     29  C   UNL     1      -2.862   2.705   4.612  0.00  0.00    +0.000 A 
ATOM     30  C   UNL     1      -2.083   2.250   3.565  0.00  0.00    +0.006 A 
ENDBRANCH   5  25
BRANCH   3  31
ATOM     31  C   UNL     1      -0.708   1.481  -0.955  0.00  0.00    -0.018 A 
ATOM     32  C   UNL     1      -1.867   2.222  -0.821  0.00  0.00    +0.006 A 
ATOM     33  C   UNL     1      -2.536   2.668  -1.945  0.00  0.00    +0.000 A 
ATOM     34  C   UNL     1      -2.052   2.363  -3.204  0.00  0.00    +0.000 A 
ATOM     35  C   UNL     1      -0.896   1.617  -3.338  0.00  0.00    +0.000 A 
ATOM     36  C   UNL     1      -0.224   1.176  -2.213  0.00  0.00    +0.006 A 
ENDBRANCH   3  31
TORSDOF 4
