REMARK  Name = ZINC67605761
REMARK  6 active torsions:
REMARK  status: ('A' for Active; 'I' for Inactive)
REMARK    1  A    between atoms: C_1  and  C_2
REMARK    2  A    between atoms: C_4  and  C_7
REMARK    3  A    between atoms: C_16  and  C_19
REMARK    4  A    between atoms: C_25  and  C_27
REMARK    5  A    between atoms: C_27  and  C_28
REMARK    6  A    between atoms: C_27  and  C_29
REMARK                            x       y       z     vdW  Elec       q    Type
REMARK                         _______ _______ _______ _____ _____    ______ ____
ROOT
ATOM      1  C   UNL     1       0.011  -3.192  -1.676  0.00  0.00    +0.044 A 
ATOM      2  C   UNL     1       0.035  -2.997  -3.063  0.00  0.00    +0.031 A 
ATOM      3  C   UNL     1       0.070  -4.095  -3.895  0.00  0.00    +0.085 A 
ATOM      4  N   UNL     1       0.083  -5.320  -3.405  0.00  0.00    -0.350 N 
ATOM      5  C   UNL     1       0.062  -5.553  -2.102  0.00  0.00    +0.099 A 
ATOM      6  C   UNL     1       0.032  -4.502  -1.193  0.00  0.00    +0.055 A 
ATOM      7  N   UNL     1       0.075  -6.863  -1.637  0.00  0.00    -0.317 N 
ATOM      8  C   UNL     1       0.185  -7.147  -0.199  0.00  0.00    +0.107 C 
ATOM      9  C   UNL     1       1.357  -8.107   0.026  0.00  0.00    +0.028 C 
ATOM     10  C   UNL     1       1.168  -9.350  -0.847  0.00  0.00    +0.041 C 
ATOM     11  C   UNL     1       1.155  -8.942  -2.322  0.00  0.00    +0.028 C 
ATOM     12  C   UNL     1      -0.025  -7.991  -2.573  0.00  0.00    +0.107 C 
ATOM     13  H   UNL     1       0.107  -6.072  -4.017  0.00  0.00    +0.166 HD
ENDROOT
BRANCH  10  14
ATOM     14  C   UNL     1       2.302 -10.312  -0.602  0.00  0.00    +0.052 A 
ATOM     15  C   UNL     1       2.043 -11.567  -0.140  0.00  0.00    +0.093 A 
ATOM     16  C   UNL     1       3.127 -12.443   0.077  0.00  0.00    +0.252 A 
ATOM     17  O   UNL     1       2.940 -13.575   0.490  0.00  0.00    -0.268 OA
ATOM     18  N   UNL     1       4.377 -12.001  -0.181  0.00  0.00    -0.311 N 
ATOM     19  H   UNL     1       5.138 -12.585  -0.039  0.00  0.00    +0.170 HD
ATOM     20  C   UNL     1       4.565 -10.747  -0.636  0.00  0.00    +0.113 A 
ATOM     21  N   UNL     1       3.560  -9.937  -0.843  0.00  0.00    -0.238 NA
BRANCH  20  22
ATOM     22  C   UNL     1       5.966 -10.269  -0.920  0.00  0.00    +0.049 C 
ATOM     23  C   UNL     1       6.374 -10.693  -2.332  0.00  0.00    +0.015 C 
ATOM     24  C   UNL     1       6.016  -8.743  -0.811  0.00  0.00    +0.015 C 
ENDBRANCH  20  22
ENDBRANCH  10  14
BRANCH   1  28
ATOM     25  C   UNL     1      -0.114   1.501   0.009  0.00  0.00    +0.091 C 
ATOM     26  C   UNL     1      -0.083  -0.005   0.001  0.00  0.00    +0.169 A 
ATOM     27  N   UNL     1      -0.049  -0.773  -1.090  0.00  0.00    -0.192 NA
ATOM     28  C   UNL     1      -0.027  -2.041  -0.747  0.00  0.00    +0.259 A 
ATOM     29  O   UNL     1      -0.047  -2.108   0.595  0.00  0.00    -0.333 OA
ATOM     30  N   UNL     1      -0.078  -0.767   1.058  0.00  0.00    -0.061 NA
ENDBRANCH   1  28
TORSDOF 3
