REMARK  Name = ZINC35745168
REMARK  16 active torsions:
REMARK  status: ('A' for Active; 'I' for Inactive)
REMARK    1  A    between atoms: C_1  and  C_2
REMARK    2  A    between atoms: C_2  and  C_3
REMARK    3  A    between atoms: C_3  and  N_4
REMARK    4  A    between atoms: N_4  and  C_5
REMARK    5  A    between atoms: N_4  and  C_29
REMARK    6  A    between atoms: C_5  and  C_6
REMARK    7  A    between atoms: C_9  and  C_11
REMARK    8  A    between atoms: C_11  and  C_12
REMARK    9  A    between atoms: C_11  and  C_20
REMARK   10  A    between atoms: C_11  and  O_28
REMARK   11  A    between atoms: C_15  and  O_18
REMARK   12  A    between atoms: O_18  and  C_19
REMARK   13  A    between atoms: C_23  and  O_26
REMARK   14  A    between atoms: O_26  and  C_27
REMARK   15  A    between atoms: C_29  and  C_30
REMARK   16  A    between atoms: C_31  and  C_35
REMARK                            x       y       z     vdW  Elec       q    Type
REMARK                         _______ _______ _______ _____ _____    ______ ____
ROOT
ATOM      1  C   UNL     1       6.239   0.963  -1.612  0.00  0.00    +0.174 C 
ENDROOT
BRANCH   1   2
ATOM      2  C   UNL     1       5.641   1.285  -2.957  0.00  0.00    -0.004 A 
ATOM      3  C   UNL     1       6.467   1.547  -4.034  0.00  0.00    +0.011 A 
ATOM      4  C   UNL     1       5.922   1.843  -5.269  0.00  0.00    +0.046 A 
ATOM      5  C   UNL     1       4.544   1.877  -5.427  0.00  0.00    +0.120 A 
ATOM      6  C   UNL     1       3.717   1.613  -4.344  0.00  0.00    +0.046 A 
ATOM      7  C   UNL     1       4.268   1.313  -3.113  0.00  0.00    +0.011 A 
BRANCH   5   8
ATOM      8  O   UNL     1       4.005   2.168  -6.640  0.00  0.00    -0.495 OA
ATOM      9  C   UNL     1       2.579   2.186  -6.729  0.00  0.00    +0.277 C 
ENDBRANCH   5   8
ENDBRANCH   1   2
BRANCH   1  10
ATOM     10  C   UNL     1       5.726   1.941  -0.587  0.00  0.00    -0.004 A 
ATOM     11  C   UNL     1       4.453   1.791  -0.066  0.00  0.00    +0.011 A 
ATOM     12  C   UNL     1       3.980   2.686   0.873  0.00  0.00    +0.046 A 
ATOM     13  C   UNL     1       4.783   3.736   1.295  0.00  0.00    +0.120 A 
ATOM     14  C   UNL     1       6.059   3.884   0.771  0.00  0.00    +0.046 A 
ATOM     15  C   UNL     1       6.529   2.983  -0.164  0.00  0.00    +0.011 A 
BRANCH  13  16
ATOM     16  O   UNL     1       4.320   4.619   2.218  0.00  0.00    -0.495 OA
ATOM     17  C   UNL     1       5.201   5.676   2.605  0.00  0.00    +0.277 C 
ENDBRANCH  13  16
ENDBRANCH   1  10
BRANCH   1  21
ATOM     18  C   UNL     1       4.702  -2.297  -1.024  0.00  0.00    +0.089 A 
ATOM     19  C   UNL     1       5.836  -2.466  -0.320  0.00  0.00    +0.043 A 
ATOM     20  C   UNL     1       6.575  -1.266  -0.441  0.00  0.00    +0.048 A 
ATOM     21  C   UNL     1       5.848  -0.437  -1.211  0.00  0.00    +0.146 A 
ATOM     22  O   UNL     1       4.718  -1.069  -1.566  0.00  0.00    -0.463 OA
BRANCH  18  23
ATOM     23  C   UNL     1       3.604  -3.317  -1.182  0.00  0.00    -0.003 C 
BRANCH  23  24
ATOM     24  N   UNL     1       2.617  -3.144  -0.108  0.00  0.00    +0.387 N 
ATOM     25  H   UNL     1       3.082  -3.190   0.786  0.00  0.00    -0.081 HD
BRANCH  24  26
ATOM     26  C   UNL     1       1.959  -1.839  -0.253  0.00  0.00    -0.078 C 
BRANCH  26  28
ATOM     27  C   UNL     1       0.458  -0.184   0.865  0.00  0.00    +0.002 C 
ATOM     28  C   UNL     1       1.033  -1.599   0.942  0.00  0.00    -0.022 C 
ENDBRANCH  26  28
ENDBRANCH  24  26
BRANCH  24  29
ATOM     29  C   UNL     1       1.611  -4.212  -0.192  0.00  0.00    -0.035 C 
BRANCH  29  30
ATOM     30  C   UNL     1       2.262  -5.540   0.099  0.00  0.00    -0.024 A 
ATOM     31  C   UNL     1       2.459  -6.150   1.293  0.00  0.00    -0.042 A 
ATOM     32  C   UNL     1       3.086  -7.382   1.321  0.00  0.00    +0.011 A 
ATOM     33  C   UNL     1       3.484  -7.943   0.153  0.00  0.00    +0.045 A 
ATOM     34  S   UNL     1       2.965  -6.720  -1.040  0.00  0.00    -0.103 S 
ATOM     35  C   UNL     1       2.004  -5.495   2.572  0.00  0.00    +0.044 C 
ENDBRANCH  29  30
ENDBRANCH  24  29
ENDBRANCH  23  24
ENDBRANCH  18  23
ENDBRANCH   1  21
BRANCH   1  36
ATOM     36  O   UNL     1       7.663   1.056  -1.688  0.00  0.00    -0.372 OA
ATOM     37  H   UNL     1       8.062   0.453  -2.330  0.00  0.00    +0.212 HD
ENDBRANCH   1  36
TORSDOF 12
