REMARK  Name = ZINC39527017
REMARK  7 active torsions:
REMARK  status: ('A' for Active; 'I' for Inactive)
REMARK    1  A    between atoms: C_1  and  S_2
REMARK    2  A    between atoms: S_2  and  C_3
REMARK    3  A    between atoms: C_13  and  C_26
REMARK    4  A    between atoms: N_15  and  S_16
REMARK    5  A    between atoms: S_16  and  O_19
REMARK    6  A    between atoms: O_19  and  C_20
REMARK    7  A    between atoms: C_31  and  O_32
REMARK                            x       y       z     vdW  Elec       q    Type
REMARK                         _______ _______ _______ _____ _____    ______ ____
ROOT
ATOM      1  C   UNL     1      -1.754  -0.630   0.360  0.00  0.00    +0.048 C 
ATOM      2  C   UNL     1      -2.166  -0.243  -1.061  0.00  0.00    +0.014 C 
ATOM      3  C   UNL     1      -3.623  -0.646  -1.298  0.00  0.00    +0.003 C 
ATOM      4  C   UNL     1      -3.768  -2.159  -1.121  0.00  0.00    +0.024 C 
ATOM      5  C   UNL     1      -3.353  -2.548   0.299  0.00  0.00    +0.047 C 
ATOM      6  C   UNL     1      -1.899  -2.143   0.539  0.00  0.00    +0.038 C 
ATOM      7  C   UNL     1      -4.258  -1.838   1.310  0.00  0.00    +0.024 C 
ATOM      8  C   UNL     1      -5.691  -2.354   1.156  0.00  0.00    +0.004 C 
ATOM      9  C   UNL     1      -5.727  -3.857   1.442  0.00  0.00    +0.026 C 
ATOM     10  C   UNL     1      -4.840  -4.588   0.430  0.00  0.00    +0.117 C 
ATOM     11  N   UNL     1      -3.494  -3.999   0.469  0.00  0.00    -0.134 NA
ENDROOT
BRANCH  10  12
ATOM     12  C   UNL     1      -4.765  -6.050   0.787  0.00  0.00    +0.013 A 
ATOM     13  C   UNL     1      -4.888  -6.448   2.104  0.00  0.00    +0.009 A 
ATOM     14  C   UNL     1      -4.819  -7.789   2.432  0.00  0.00    +0.001 A 
ATOM     15  C   UNL     1      -4.628  -8.736   1.443  0.00  0.00    +0.004 A 
ATOM     16  C   UNL     1      -4.505  -8.344   0.124  0.00  0.00    +0.046 A 
ATOM     17  C   UNL     1      -4.579  -6.999  -0.208  0.00  0.00    +0.122 A 
BRANCH  17  18
ATOM     18  O   UNL     1      -4.464  -6.611  -1.505  0.00  0.00    -0.506 OA
ATOM     19  H   UNL     1      -3.555  -6.430  -1.783  0.00  0.00    +0.292 HD
ENDBRANCH  17  18
ENDBRANCH  10  12
BRANCH  11  20
ATOM     20  S   UNL     1      -2.161  -4.955   0.701  0.00  0.00    +0.195 S 
ATOM     21  O   UNL     1      -2.637  -6.283   0.865  0.00  0.00    -0.119 OA
ATOM     22  O   UNL     1      -1.226  -4.599  -0.309  0.00  0.00    -0.119 OA
BRANCH  20  23
ATOM     23  O   UNL     1      -1.541  -4.548   2.030  0.00  0.00    -0.333 OA
BRANCH  23  24
ATOM     24  C   UNL     1      -2.196  -5.035   3.117  0.00  0.00    +0.158 A 
ATOM     25  C   UNL     1      -3.136  -4.251   3.771  0.00  0.00    +0.048 A 
ATOM     26  C   UNL     1      -3.800  -4.749   4.875  0.00  0.00    +0.004 A 
ATOM     27  C   UNL     1      -3.528  -6.026   5.330  0.00  0.00    +0.000 A 
ATOM     28  C   UNL     1      -2.592  -6.809   4.680  0.00  0.00    +0.004 A 
ATOM     29  C   UNL     1      -1.929  -6.318   3.571  0.00  0.00    +0.048 A 
ENDBRANCH  23  24
ENDBRANCH  20  23
ENDBRANCH  11  20
BRANCH   1  31
ATOM     30  C   UNL     1      -0.053   1.660   0.544  0.00  0.00    +0.084 C 
ATOM     31  S   UNL     1      -0.027  -0.151   0.640  0.00  0.00    -0.161 S 
ENDBRANCH   1  31
TORSDOF 6
