REMARK  Name = ZINC05519636
REMARK  7 active torsions:
REMARK  status: ('A' for Active; 'I' for Inactive)
REMARK    1  A    between atoms: C_1  and  C_2
REMARK    2  A    between atoms: C_2  and  C_4
REMARK    3  A    between atoms: C_4  and  O_31
REMARK    4  A    between atoms: C_9  and  C_30
REMARK    5  A    between atoms: C_17  and  O_29
REMARK    6  A    between atoms: C_21  and  C_28
REMARK    7  A    between atoms: C_24  and  O_27
REMARK                            x       y       z     vdW  Elec       q    Type
REMARK                         _______ _______ _______ _____ _____    ______ ____
ROOT
ATOM      1  C   UNL     1      -4.388   2.807   4.304  0.00  0.00    +0.129 C 
ATOM      2  C   UNL     1      -5.336   3.713   3.490  0.00  0.00    +0.043 C 
ATOM      3  C   UNL     1      -4.669   5.105   3.435  0.00  0.00    +0.008 C 
ATOM      4  C   UNL     1      -3.155   4.801   3.641  0.00  0.00    +0.002 C 
ATOM      5  C   UNL     1      -3.204   3.695   4.708  0.00  0.00    +0.007 C 
ATOM      6  C   UNL     1      -1.907   2.925   4.813  0.00  0.00    +0.010 C 
ATOM      7  C   UNL     1      -1.497   2.368   3.452  0.00  0.00    +0.005 C 
ATOM      8  C   UNL     1      -1.311   3.536   2.473  0.00  0.00    -0.001 C 
ATOM      9  C   UNL     1      -2.636   4.263   2.303  0.00  0.00    -0.001 C 
ATOM     10  C   UNL     1      -2.519   5.441   1.335  0.00  0.00    +0.035 C 
ATOM     11  C   UNL     1      -1.625   5.094   0.146  0.00  0.00    +0.119 C 
ATOM     12  C   UNL     1      -1.609   3.579  -0.014  0.00  0.00    +0.026 C 
ATOM     13  C   UNL     1      -0.808   2.987   1.147  0.00  0.00    -0.024 C 
ATOM     14  C   UNL     1      -0.926   1.465   1.090  0.00  0.00    +0.010 C 
ATOM     15  C   UNL     1      -0.287   0.989  -0.223  0.00  0.00    +0.032 C 
ATOM     16  C   UNL     1      -1.014   1.614  -1.413  0.00  0.00    +0.115 C 
ATOM     17  C   UNL     1      -0.965   3.144  -1.327  0.00  0.00    +0.038 C 
ATOM     18  C   UNL     1       0.665   3.359   0.968  0.00  0.00    +0.012 C 
ATOM     19  C   UNL     1      -3.499   4.329   6.069  0.00  0.00    +0.015 C 
ENDROOT
BRANCH   1  21
ATOM     20  C   UNL     1      -4.635   1.003   6.174  0.00  0.00    +0.089 C 
ATOM     21  C   UNL     1      -5.092   2.287   5.530  0.00  0.00    +0.162 C 
ATOM     22  O   UNL     1      -6.024   2.898   5.997  0.00  0.00    -0.295 OA
ENDBRANCH   1  21
BRANCH  16  23
ATOM     23  O   UNL     1      -2.377   1.185  -1.413  0.00  0.00    -0.392 OA
ATOM     24  H   UNL     1      -2.488   0.227  -1.481  0.00  0.00    +0.210 HD
ENDBRANCH  16  23
BRANCH  11  25
ATOM     25  O   UNL     1      -2.144   5.699  -1.040  0.00  0.00    -0.391 OA
ATOM     26  H   UNL     1      -2.181   6.665  -1.005  0.00  0.00    +0.210 HD
ENDBRANCH  11  25
BRANCH   1  27
ATOM     27  O   UNL     1      -3.935   1.718   3.497  0.00  0.00    -0.381 OA
ATOM     28  H   UNL     1      -4.643   1.139   3.183  0.00  0.00    +0.211 HD
ENDBRANCH   1  27
TORSDOF 4
