REMARK  Name = ZINC59118041
REMARK  7 active torsions:
REMARK  status: ('A' for Active; 'I' for Inactive)
REMARK    1  A    between atoms: C_1  and  C_2
REMARK    2  A    between atoms: C_5  and  N_9
REMARK    3  A    between atoms: C_13  and  S_14
REMARK    4  A    between atoms: S_14  and  C_15
REMARK    5  A    between atoms: C_15  and  C_16
REMARK    6  A    between atoms: N_18  and  C_19
REMARK    7  A    between atoms: C_19  and  C_20
REMARK                            x       y       z     vdW  Elec       q    Type
REMARK                         _______ _______ _______ _____ _____    ______ ____
ROOT
ATOM      1  C   UNL     1       3.859  -5.772   3.528  0.00  0.00    +0.224 C 
ATOM      2  O   UNL     1       4.247  -4.628   3.632  0.00  0.00    -0.275 OA
ATOM      3  N   UNL     1       4.586  -6.780   4.049  0.00  0.00    -0.310 N 
ATOM      4  H   UNL     1       4.276  -7.696   3.966  0.00  0.00    +0.149 HD
ENDROOT
BRANCH   1   5
ATOM      5  C   UNL     1       2.565  -6.067   2.815  0.00  0.00    +0.173 C 
BRANCH   5   6
ATOM      6  S   UNL     1       1.829  -4.515   2.232  0.00  0.00    -0.076 S 
BRANCH   6  11
ATOM      7  N   UNL     1      -0.572  -4.207   0.823  0.00  0.00    -0.277 N 
ATOM      8  C   UNL     1      -1.547  -5.041   0.342  0.00  0.00    +0.230 A 
ATOM      9  N   UNL     1      -1.209  -6.258   0.664  0.00  0.00    -0.137 NA
ATOM     10  N   UNL     1      -0.098  -6.252   1.310  0.00  0.00    -0.122 NA
ATOM     11  C   UNL     1       0.343  -5.022   1.432  0.00  0.00    +0.196 A 
BRANCH   7  16
ATOM     12  C   UNL     1      -0.363   1.447   0.359  0.00  0.00    +0.045 C 
ATOM     13  C   UNL     1      -0.418  -0.054   0.482  0.00  0.00    -0.032 A 
ATOM     14  C   UNL     1      -0.656  -0.830  -0.637  0.00  0.00    +0.007 A 
ATOM     15  C   UNL     1      -0.707  -2.206  -0.527  0.00  0.00    +0.026 A 
ATOM     16  C   UNL     1      -0.520  -2.810   0.709  0.00  0.00    +0.051 A 
ATOM     17  C   UNL     1      -0.281  -2.030   1.831  0.00  0.00    +0.046 A 
ATOM     18  C   UNL     1      -0.226  -0.653   1.715  0.00  0.00    +0.046 A 
ATOM     19 CL   UNL     1       0.080   0.325   3.116  0.00  0.00    -0.083 Cl
ENDBRANCH   7  16
ENDBRANCH   6  11
ENDBRANCH   5   6
ENDBRANCH   1   5
BRANCH   3  20
ATOM     20  C   UNL     1       5.845  -6.494   4.742  0.00  0.00    +0.141 C 
BRANCH  20  21
ATOM     21  C   UNL     1       6.456  -7.784   5.226  0.00  0.00    -0.014 A 
ATOM     22  C   UNL     1       6.142  -8.280   6.485  0.00  0.00    +0.010 A 
ATOM     23  C   UNL     1       6.725  -9.466   6.891  0.00  0.00    +0.042 A 
ATOM     24  C   UNL     1       7.602 -10.119   6.030  0.00  0.00    +0.099 A 
ATOM     25  N   UNL     1       7.876  -9.614   4.837  0.00  0.00    -0.349 N 
ATOM     26  C   UNL     1       7.330  -8.487   4.421  0.00  0.00    +0.089 A 
ATOM     27  N   UNL     1       8.195 -11.312   6.425  0.00  0.00    -0.317 N 
ATOM     28  C   UNL     1       7.770 -11.919   7.667  0.00  0.00    +0.106 C 
ATOM     29  C   UNL     1       8.633 -11.375   8.832  0.00  0.00    +0.019 C 
ATOM     30  C   UNL     1       9.999 -11.912   8.751  0.00  0.00    +0.002 C 
ATOM     31  C   UNL     1      10.762 -11.503   7.494  0.00  0.00    +0.002 C 
ATOM     32  C   UNL     1      10.422 -12.452   6.372  0.00  0.00    +0.019 C 
ATOM     33  C   UNL     1       9.228 -11.910   5.557  0.00  0.00    +0.106 C 
ATOM     34  H   UNL     1       8.490 -10.086   4.253  0.00  0.00    +0.167 HD
ENDBRANCH  20  21
ENDBRANCH   3  20
TORSDOF 6
