REMARK  Name = ZINC06785461
REMARK  7 active torsions:
REMARK  status: ('A' for Active; 'I' for Inactive)
REMARK    1  A    between atoms: C_1  and  C_2
REMARK    2  A    between atoms: C_2  and  C_3
REMARK    3  A    between atoms: C_10  and  N_27
REMARK    4  A    between atoms: C_11  and  C_25
REMARK    5  A    between atoms: C_12  and  C_14
REMARK    6  A    between atoms: C_17  and  O_20
REMARK    7  A    between atoms: O_20  and  C_21
REMARK                            x       y       z     vdW  Elec       q    Type
REMARK                         _______ _______ _______ _____ _____    ______ ____
ROOT
ATOM      1  C   UNL     1       0.707  -0.490  -1.238  0.00  0.00    +0.070 A 
ATOM      2  C   UNL     1       0.111  -0.758  -2.463  0.00  0.00    +0.049 A 
ATOM      3  C   UNL     1       1.086  -1.176  -3.326  0.00  0.00    +0.222 A 
ATOM      4  N   UNL     1       2.250  -1.167  -2.658  0.00  0.00    -0.246 N 
ATOM      5  H   UNL     1       3.117  -1.416  -3.017  0.00  0.00    +0.192 HD
ATOM      6  N   UNL     1       1.993  -0.728  -1.349  0.00  0.00    -0.176 NA
ATOM      7  O   UNL     1       0.827  -1.521  -4.611  0.00  0.00    -0.423 OA
ATOM      8  C   UNL     1      -0.463  -1.708  -4.960  0.00  0.00    +0.200 C 
ATOM      9  C   UNL     1      -1.511  -1.327  -4.197  0.00  0.00    +0.098 C 
ATOM     10  C   UNL     1      -1.336  -0.639  -2.866  0.00  0.00    +0.101 C 
ENDROOT
BRANCH  10  11
ATOM     11  C   UNL     1      -1.711   0.815  -2.990  0.00  0.00    -0.034 A 
ATOM     12  C   UNL     1      -1.052   1.623  -3.898  0.00  0.00    +0.008 A 
ATOM     13  C   UNL     1      -1.394   2.957  -4.013  0.00  0.00    +0.046 A 
ATOM     14  C   UNL     1      -2.400   3.485  -3.217  0.00  0.00    +0.130 A 
ATOM     15  C   UNL     1      -3.061   2.671  -2.307  0.00  0.00    +0.046 A 
ATOM     16  C   UNL     1      -2.718   1.337  -2.200  0.00  0.00    +0.008 A 
BRANCH  14  17
ATOM     17  O   UNL     1      -2.739   4.796  -3.328  0.00  0.00    -0.406 OA
BRANCH  17  18
ATOM     18  C   UNL     1      -3.784   5.271  -2.477  0.00  0.00    +0.575 C 
ATOM     19  F   UNL     1      -3.415   5.090  -1.140  0.00  0.00    -0.133 F 
ATOM     20  F   UNL     1      -4.002   6.631  -2.720  0.00  0.00    -0.133 F 
ATOM     21  F   UNL     1      -4.958   4.557  -2.738  0.00  0.00    -0.133 F 
ENDBRANCH  17  18
ENDBRANCH  14  17
ENDBRANCH  10  11
BRANCH   8  22
ATOM     22  N   UNL     1      -0.725  -2.323  -6.159  0.00  0.00    -0.328 N 
ATOM     23  H   UNL     1       0.006  -2.608  -6.728  0.00  0.00    +0.145 HD
ATOM     24  H   UNL     1      -1.643  -2.471  -6.437  0.00  0.00    +0.145 HD
ENDBRANCH   8  22
BRANCH   1  26
ATOM     25  C   UNL     1      -0.019   1.526   0.010  0.00  0.00    +0.010 C 
ATOM     26  C   UNL     1       0.002  -0.004   0.002  0.00  0.00    +0.054 C 
ENDBRANCH   1  26
BRANCH   9  27
ATOM     27  C   UNL     1      -2.838  -1.583  -4.671  0.00  0.00    +0.101 C 
ATOM     28  N   UNL     1      -3.890  -1.787  -5.047  0.00  0.00    -0.191 NA
ENDBRANCH   9  27
TORSDOF 6
