REMARK  Name = ZINC45148142
REMARK  7 active torsions:
REMARK  status: ('A' for Active; 'I' for Inactive)
REMARK    1  A    between atoms: C_1  and  C_2
REMARK    2  A    between atoms: C_2  and  C_3
REMARK    3  A    between atoms: C_2  and  C_4
REMARK    4  A    between atoms: C_2  and  C_5
REMARK    5  A    between atoms: N_10  and  S_11
REMARK    6  A    between atoms: S_11  and  C_14
REMARK    7  A    between atoms: C_15  and  N_21
REMARK                            x       y       z     vdW  Elec       q    Type
REMARK                         _______ _______ _______ _____ _____    ______ ____
ROOT
ATOM      1  S   UNL     1       2.681  -3.656  -4.719  0.00  0.00    +0.106 S 
ATOM      2  O   UNL     1       1.658  -3.244  -5.615  0.00  0.00    -0.146 OA
ATOM      3  O   UNL     1       4.019  -3.188  -4.823  0.00  0.00    -0.146 OA
ENDROOT
BRANCH   1   9
ATOM      4  C   UNL     1       1.532  -0.112  -1.542  0.00  0.00    +0.030 A 
ATOM      5  C   UNL     1       1.860   0.665  -2.574  0.00  0.00    +0.070 A 
ATOM      6  S   UNL     1       2.306  -0.533  -3.820  0.00  0.00    -0.057 S 
ATOM      7  C   UNL     1       2.017  -2.008  -2.855  0.00  0.00    +0.192 A 
ATOM      8  N   UNL     1       1.607  -1.470  -1.654  0.00  0.00    -0.336 N 
ATOM      9  N   UNL     1       2.161  -3.265  -3.196  0.00  0.00    -0.103 NA
ATOM     10  H   UNL     1       1.375  -2.043  -0.907  0.00  0.00    +0.168 HD
BRANCH   4  12
ATOM     11  C   UNL     1       1.087   2.034  -0.382  0.00  0.00    +0.017 C 
ATOM     12  C   UNL     1       1.083   0.510  -0.245  0.00  0.00    +0.003 C 
ATOM     13  C   UNL     1       2.039   0.097   0.877  0.00  0.00    +0.017 C 
ATOM     14  C   UNL     1      -0.331   0.031   0.088  0.00  0.00    +0.017 C 
ENDBRANCH   4  12
ENDBRANCH   1   9
BRANCH   1  15
ATOM     15  C   UNL     1       2.753  -5.414  -4.810  0.00  0.00    +0.168 A 
ATOM     16  C   UNL     1       3.843  -6.094  -4.281  0.00  0.00    +0.055 A 
ATOM     17  C   UNL     1       3.895  -7.480  -4.354  0.00  0.00    +0.025 A 
ATOM     18  C   UNL     1       2.865  -8.179  -4.952  0.00  0.00    +0.005 A 
ATOM     19  C   UNL     1       1.781  -7.501  -5.479  0.00  0.00    +0.040 A 
ATOM     20  C   UNL     1       1.722  -6.119  -5.403  0.00  0.00    +0.152 A 
ATOM     21  F   UNL     1       0.658  -5.460  -5.913  0.00  0.00    -0.203 F 
BRANCH  16  22
ATOM     22  N   UNL     1       4.884  -5.385  -3.677  0.00  0.00    -0.356 N 
ATOM     23  H   UNL     1       4.777  -4.441  -3.479  0.00  0.00    +0.142 HD
ATOM     24  H   UNL     1       5.713  -5.836  -3.456  0.00  0.00    +0.142 HD
ENDBRANCH  16  22
ENDBRANCH   1  15
TORSDOF 4
