REMARK  Name = ZINC60240682
REMARK  7 active torsions:
REMARK  status: ('A' for Active; 'I' for Inactive)
REMARK    1  A    between atoms: C_1  and  C_2
REMARK    2  A    between atoms: N_11  and  C_15
REMARK    3  A    between atoms: C_15  and  C_16
REMARK    4  A    between atoms: N_18  and  C_19
REMARK    5  A    between atoms: C_19  and  C_20
REMARK    6  A    between atoms: N_23  and  S_26
REMARK    7  A    between atoms: S_26  and  C_29
REMARK                            x       y       z     vdW  Elec       q    Type
REMARK                         _______ _______ _______ _____ _____    ______ ____
ROOT
ATOM      1  C   UNL     1       3.425   2.876   2.253  0.00  0.00    +0.231 C 
ATOM      2  O   UNL     1       2.503   3.237   1.554  0.00  0.00    -0.274 OA
ATOM      3  N   UNL     1       4.441   3.721   2.519  0.00  0.00    -0.314 N 
ATOM      4  H   UNL     1       5.178   3.433   3.078  0.00  0.00    +0.149 HD
ENDROOT
BRANCH   1   5
ATOM      5  C   UNL     1       3.436   1.482   2.825  0.00  0.00    +0.213 C 
BRANCH   5  15
ATOM      6  C   UNL     1      -0.019   1.526   0.010  0.00  0.00    +0.010 C 
ATOM      7  C   UNL     1       0.002  -0.004   0.002  0.00  0.00    +0.018 C 
ATOM      8  C   UNL     1      -1.434  -0.534   0.012  0.00  0.00    +0.006 C 
ATOM      9  C   UNL     1      -1.412  -2.064   0.024  0.00  0.00    +0.000 C 
ATOM     10  C   UNL     1      -0.687  -2.556   1.279  0.00  0.00    +0.003 C 
ATOM     11  C   UNL     1       0.752  -2.033   1.273  0.00  0.00    +0.035 C 
ATOM     12  C   UNL     1       0.740  -0.509   1.237  0.00  0.00    +0.115 C 
ATOM     13  C   UNL     1       2.151   0.030   1.266  0.00  0.00    +0.247 C 
ATOM     14  O   UNL     1       3.026  -0.158   0.448  0.00  0.00    -0.273 OA
ATOM     15  N   UNL     1       2.233   0.767   2.394  0.00  0.00    -0.215 N 
ATOM     16  C   UNL     1       1.077   0.763   3.069  0.00  0.00    +0.310 C 
ATOM     17  O   UNL     1       0.904   1.356   4.116  0.00  0.00    -0.252 OA
ATOM     18  N   UNL     1       0.127   0.030   2.458  0.00  0.00    -0.285 N 
ATOM     19  H   UNL     1      -0.782  -0.114   2.764  0.00  0.00    +0.151 HD
ENDBRANCH   5  15
ENDBRANCH   1   5
BRANCH   3  20
ATOM     20  C   UNL     1       4.430   5.077   1.963  0.00  0.00    +0.107 C 
BRANCH  20  21
ATOM     21  C   UNL     1       5.687   5.823   2.414  0.00  0.00    +0.009 C 
ATOM     22  C   UNL     1       6.923   5.148   1.815  0.00  0.00    +0.022 C 
ATOM     23  C   UNL     1       8.181   5.877   2.296  0.00  0.00    +0.110 C 
ATOM     24  N   UNL     1       8.056   7.304   1.970  0.00  0.00    -0.177 NA
ATOM     25  C   UNL     1       6.860   8.028   2.420  0.00  0.00    +0.110 C 
ATOM     26  C   UNL     1       5.616   7.276   1.937  0.00  0.00    +0.022 C 
BRANCH  24  27
ATOM     27  S   UNL     1       9.240   8.080   1.111  0.00  0.00    +0.061 S 
ATOM     28  O   UNL     1       9.135   9.461   1.432  0.00  0.00    -0.153 OA
ATOM     29  O   UNL     1      10.437   7.341   1.310  0.00  0.00    -0.153 OA
BRANCH  27  30
ATOM     30  C   UNL     1       8.831   7.927  -0.596  0.00  0.00    +0.105 A 
ATOM     31  C   UNL     1       9.292   6.845  -1.322  0.00  0.00    +0.028 A 
ATOM     32  C   UNL     1       8.971   6.725  -2.662  0.00  0.00    +0.002 A 
ATOM     33  C   UNL     1       8.189   7.686  -3.274  0.00  0.00    +0.000 A 
ATOM     34  C   UNL     1       7.728   8.768  -2.547  0.00  0.00    +0.002 A 
ATOM     35  C   UNL     1       8.045   8.886  -1.207  0.00  0.00    +0.028 A 
ENDBRANCH  27  30
ENDBRANCH  24  27
ENDBRANCH  20  21
ENDBRANCH   3  20
TORSDOF 6
