REMARK  Name = ZINC21959003
REMARK  6 active torsions:
REMARK  status: ('A' for Active; 'I' for Inactive)
REMARK    1  A    between atoms: C_1  and  N_2
REMARK    2  A    between atoms: C_3  and  C_21
REMARK    3  A    between atoms: C_6  and  S_7
REMARK    4  A    between atoms: S_7  and  C_8
REMARK    5  A    between atoms: C_8  and  C_9
REMARK    6  A    between atoms: N_11  and  C_12
REMARK                            x       y       z     vdW  Elec       q    Type
REMARK                         _______ _______ _______ _____ _____    ______ ____
ROOT
ATOM      1  C   UNL     1       4.642  -5.817   0.553  0.00  0.00    +0.153 C 
ATOM      2  N   UNL     1       5.501  -4.632   0.500  0.00  0.00    -0.306 N 
ATOM      3  C   UNL     1       6.867  -4.599   0.545  0.00  0.00    +0.178 A 
ATOM      4  N   UNL     1       7.228  -3.349   0.470  0.00  0.00    -0.130 NA
ATOM      5  N   UNL     1       6.191  -2.595   0.376  0.00  0.00    -0.122 NA
ATOM      6  C   UNL     1       5.103  -3.330   0.394  0.00  0.00    +0.192 A 
ENDROOT
BRANCH   3   7
ATOM      7  C   UNL     1       7.786  -5.788   0.661  0.00  0.00    +0.278 C 
ATOM      8  C   UNL     1       8.458  -6.057  -0.692  0.00  0.00    +0.281 C 
ATOM      9  O   UNL     1       9.331  -7.182  -0.543  0.00  0.00    -0.484 OA
ATOM     10  C   UNL     1      10.142  -7.186   0.550  0.00  0.00    +0.162 A 
ATOM     11  C   UNL     1      11.242  -8.030   0.578  0.00  0.00    +0.049 A 
ATOM     12  C   UNL     1      12.074  -8.047   1.682  0.00  0.00    +0.004 A 
ATOM     13  C   UNL     1      11.811  -7.224   2.761  0.00  0.00    +0.004 A 
ATOM     14  C   UNL     1      10.717  -6.380   2.739  0.00  0.00    +0.049 A 
ATOM     15  C   UNL     1       9.880  -6.356   1.634  0.00  0.00    +0.163 A 
ATOM     16  O   UNL     1       8.810  -5.515   1.624  0.00  0.00    -0.474 OA
ENDBRANCH   3   7
BRANCH   6  17
ATOM     17  S   UNL     1       3.444  -2.746   0.294  0.00  0.00    -0.077 S 
BRANCH  17  18
ATOM     18  C   UNL     1       3.743  -0.965   0.179  0.00  0.00    +0.173 C 
BRANCH  18  19
ATOM     19  C   UNL     1       2.426  -0.239   0.081  0.00  0.00    +0.228 C 
ATOM     20  O   UNL     1       1.387  -0.865   0.088  0.00  0.00    -0.275 OA
ATOM     21  N   UNL     1       2.403   1.105  -0.014  0.00  0.00    -0.284 N 
ATOM     22  H   UNL     1       3.344   1.666  -0.112  0.00  0.00    +0.155 HD
BRANCH  21  23
ATOM     23  C   UNL     1       1.180   1.788   0.011  0.00  0.00    +0.053 A 
ATOM     24  C   UNL     1       0.076   1.214   0.627  0.00  0.00    +0.046 A 
ATOM     25  C   UNL     1      -1.130   1.887   0.646  0.00  0.00    +0.061 A 
ATOM     26  C   UNL     1      -1.236   3.139   0.062  0.00  0.00    +0.061 A 
ATOM     27  C   UNL     1      -0.137   3.713  -0.552  0.00  0.00    +0.043 A 
ATOM     28  C   UNL     1       1.071   3.041  -0.579  0.00  0.00    +0.064 A 
ATOM     29 CL   UNL     1       2.449   3.762  -1.350  0.00  0.00    -0.082 Cl
ATOM     30 CL   UNL     1      -2.751   3.985   0.094  0.00  0.00    -0.082 Cl
ATOM     31 CL   UNL     1      -2.514   1.167   1.409  0.00  0.00    -0.082 Cl
ENDBRANCH  21  23
ENDBRANCH  18  19
ENDBRANCH  17  18
ENDBRANCH   6  17
TORSDOF 5
