REMARK  Name = ZINC63480056
REMARK  5 active torsions:
REMARK  status: ('A' for Active; 'I' for Inactive)
REMARK    1  A    between atoms: C_1  and  C_2
REMARK    2  A    between atoms: C_2  and  C_4
REMARK    3  A    between atoms: C_7  and  N_10
REMARK    4  A    between atoms: C_15  and  C_32
REMARK    5  A    between atoms: C_32  and  C_33
REMARK                            x       y       z     vdW  Elec       q    Type
REMARK                         _______ _______ _______ _____ _____    ______ ____
ROOT
ATOM      1  N   UNL     1      -4.842  -2.889   0.034  0.00  0.00    -0.210 N 
ATOM      2  C   UNL     1      -6.036  -2.296   0.136  0.00  0.00    +0.232 C 
ATOM      3  O   UNL     1      -6.219  -1.102   0.236  0.00  0.00    -0.274 OA
ATOM      4  C   UNL     1      -7.123  -3.346   0.109  0.00  0.00    +0.107 C 
ATOM      5  C   UNL     1      -7.814  -3.403   1.488  0.00  0.00    +0.072 C 
ATOM      6  N   UNL     1      -6.990  -4.346   2.290  0.00  0.00    -0.295 NA
ATOM      7  C   UNL     1      -6.608  -5.398   1.330  0.00  0.00    +0.136 C 
ATOM      8  C   UNL     1      -6.331  -4.678  -0.013  0.00  0.00    +0.123 C 
ATOM      9  C   UNL     1      -4.890  -4.222  -0.065  0.00  0.00    +0.233 C 
ATOM     10  O   UNL     1      -3.928  -4.952  -0.175  0.00  0.00    -0.274 OA
ATOM     11  C   UNL     1      -7.691  -6.430   1.183  0.00  0.00    +0.003 A 
ATOM     12  C   UNL     1      -9.010  -6.371   0.793  0.00  0.00    +0.008 A 
ATOM     13  C   UNL     1      -9.774  -7.524   0.758  0.00  0.00    +0.000 A 
ATOM     14  C   UNL     1      -9.209  -8.735   1.116  0.00  0.00    +0.002 A 
ATOM     15  C   UNL     1      -7.888  -8.798   1.508  0.00  0.00    +0.023 A 
ATOM     16  C   UNL     1      -7.112  -7.642   1.546  0.00  0.00    +0.039 A 
ATOM     17  N   UNL     1      -5.775  -7.452   1.903  0.00  0.00    -0.283 N 
ATOM     18  C   UNL     1      -5.402  -6.162   1.804  0.00  0.00    +0.243 C 
ATOM     19  O   UNL     1      -4.305  -5.704   2.048  0.00  0.00    -0.273 OA
ATOM     20  H   UNL     1      -6.174  -3.885   2.664  0.00  0.00    +0.124 HD
ATOM     21  H   UNL     1      -5.184  -8.166   2.188  0.00  0.00    +0.155 HD
ENDROOT
BRANCH   1  25
ATOM     22  C   UNL     1      -1.261  -0.755   0.008  0.00  0.00    +0.017 A 
ATOM     23  C   UNL     1      -1.685  -1.429  -1.143  0.00  0.00    +0.013 A 
ATOM     24  C   UNL     1      -2.867  -2.133  -1.130  0.00  0.00    +0.024 A 
ATOM     25  C   UNL     1      -3.641  -2.174   0.026  0.00  0.00    +0.044 A 
ATOM     26  C   UNL     1      -3.224  -1.506   1.172  0.00  0.00    +0.024 A 
ATOM     27  C   UNL     1      -2.040  -0.804   1.170  0.00  0.00    +0.013 A 
BRANCH  22  29
ATOM     28  C   UNL     1       0.838   0.050  -1.253  0.00  0.00    +0.091 C 
ATOM     29  C   UNL     1       0.001  -0.002  -0.001  0.00  0.00    +0.160 C 
ATOM     30  O   UNL     1       0.369   0.578   0.999  0.00  0.00    -0.292 OA
ENDBRANCH  22  29
ENDBRANCH   1  25
BRANCH   5  31
ATOM     31  C   UNL     1      -7.824  -2.017   2.135  0.00  0.00    +0.052 C 
BRANCH  31  32
ATOM     32  C   UNL     1      -8.608  -2.068   3.421  0.00  0.00    -0.040 C 
ATOM     33  C   UNL     1      -8.116  -2.245   4.668  0.00  0.00    -0.001 A 
ATOM     34  C   UNL     1      -6.754  -2.436   5.181  0.00  0.00    +0.010 A 
ATOM     35  C   UNL     1      -6.570  -2.591   6.512  0.00  0.00    +0.001 A 
ATOM     36  C   UNL     1      -7.645  -2.574   7.412  0.00  0.00    +0.002 A 
ATOM     37  C   UNL     1      -8.924  -2.403   7.016  0.00  0.00    +0.026 A 
ATOM     38  C   UNL     1      -9.234  -2.231   5.638  0.00  0.00    +0.043 A 
ATOM     39  N   UNL     1     -10.373  -2.052   5.015  0.00  0.00    -0.380 N 
ATOM     40  C   UNL     1     -10.106  -1.927   3.578  0.00  0.00    +0.144 C 
ATOM     41  H   UNL     1     -11.247  -2.006   5.435  0.00  0.00    +0.160 HD
ENDBRANCH  31  32
ENDBRANCH   5  31
TORSDOF 4
