REMARK  Name = ZINC19536675
REMARK  6 active torsions:
REMARK  status: ('A' for Active; 'I' for Inactive)
REMARK    1  A    between atoms: C_1  and  C_2
REMARK    2  A    between atoms: C_3  and  C_21
REMARK    3  A    between atoms: C_4  and  C_14
REMARK    4  A    between atoms: C_18  and  O_20
REMARK    5  A    between atoms: C_21  and  O_23
REMARK    6  A    between atoms: O_23  and  C_24
REMARK                            x       y       z     vdW  Elec       q    Type
REMARK                         _______ _______ _______ _____ _____    ______ ____
ROOT
ATOM      1  C   UNL     1       0.355   3.048   4.584  0.00  0.00    +0.061 C 
ATOM      2  C   UNL     1      -0.523   2.522   3.477  0.00  0.00    +0.016 C 
ATOM      3  C   UNL     1      -1.854   2.695   3.541  0.00  0.00    +0.065 C 
ATOM      4  C   UNL     1      -2.759   2.180   2.461  0.00  0.00    +0.092 C 
ATOM      5  C   UNL     1      -1.984   1.884   1.202  0.00  0.00    +0.024 C 
ATOM      6  C   UNL     1      -0.643   1.736   1.236  0.00  0.00    +0.015 C 
ATOM      7  N   UNL     1       0.041   1.872   2.415  0.00  0.00    -0.321 N 
ATOM      8  C   UNL     1       0.137   1.420  -0.016  0.00  0.00    +0.051 C 
ATOM      9  C   UNL     1      -0.565   2.038  -1.227  0.00  0.00    +0.014 C 
ATOM     10  C   UNL     1      -1.990   1.478  -1.302  0.00  0.00    +0.080 C 
ATOM     11  C   UNL     1      -2.696   1.763  -0.004  0.00  0.00    +0.162 C 
ATOM     12  O   UNL     1      -3.905   1.891   0.001  0.00  0.00    -0.292 OA
ATOM     13  H   UNL     1       1.054   1.452   2.501  0.00  0.00    +0.152 HD
ENDROOT
BRANCH   4  14
ATOM     14  C   UNL     1      -3.429   0.917   2.938  0.00  0.00    -0.032 A 
ATOM     15  C   UNL     1      -2.666  -0.190   3.262  0.00  0.00    +0.005 A 
ATOM     16  C   UNL     1      -3.277  -1.350   3.699  0.00  0.00    +0.004 A 
ATOM     17  C   UNL     1      -4.653  -1.406   3.815  0.00  0.00    +0.045 A 
ATOM     18  C   UNL     1      -5.421  -0.297   3.491  0.00  0.00    +0.117 A 
ATOM     19  C   UNL     1      -4.804   0.868   3.057  0.00  0.00    +0.050 A 
BRANCH  18  20
ATOM     20  O   UNL     1      -6.774  -0.349   3.604  0.00  0.00    -0.507 OA
ATOM     21  H   UNL     1      -7.382   0.531   3.347  0.00  0.00    +0.292 HD
ENDBRANCH  18  20
ENDBRANCH   4  14
BRANCH   3  22
ATOM     22  C   UNL     1      -2.413   3.376   4.648  0.00  0.00    +0.338 C 
ATOM     23  O   UNL     1      -2.823   4.514   4.518  0.00  0.00    -0.245 OA
BRANCH  22  24
ATOM     24  O   UNL     1      -2.490   2.764   5.848  0.00  0.00    -0.458 OA
BRANCH  24  25
ATOM     25  C   UNL     1      -3.066   3.511   6.922  0.00  0.00    +0.177 C 
ATOM     26  C   UNL     1      -1.959   4.244   7.708  0.00  0.00    +0.044 C 
ATOM     27  C   UNL     1      -2.426   4.165   9.183  0.00  0.00    +0.004 C 
ATOM     28  C   UNL     1      -3.044   2.748   9.271  0.00  0.00    +0.004 C 
ATOM     29  C   UNL     1      -3.755   2.560   7.915  0.00  0.00    +0.044 C 
ENDBRANCH  24  25
ENDBRANCH  22  24
ENDBRANCH   3  22
TORSDOF 5
