REMARK  Name = ZINC13192425
REMARK  10 active torsions:
REMARK  status: ('A' for Active; 'I' for Inactive)
REMARK    1  A    between atoms: C_1  and  O_2
REMARK    2  A    between atoms: O_2  and  C_3
REMARK    3  A    between atoms: C_8  and  C_9
REMARK    4  A    between atoms: C_9  and  C_11
REMARK    5  A    between atoms: C_9  and  N_66
REMARK    6  A    between atoms: C_11  and  N_12
REMARK    7  A    between atoms: N_12  and  C_13
REMARK    8  A    between atoms: C_16  and  S_21
REMARK    9  A    between atoms: C_18  and  C_19
REMARK   10  A    between atoms: S_21  and  N_24
REMARK                            x       y       z     vdW  Elec       q    Type
REMARK                         _______ _______ _______ _____ _____    ______ ____
ROOT
ATOM      1  N   UNL     1       5.244  -2.377  -4.813  0.00  0.00    -0.344 N 
ATOM      2  H   UNL     1       6.001  -1.850  -5.113  0.00  0.00    +0.146 HD
ENDROOT
BRANCH   1   3
ATOM      3  C   UNL     1       4.642  -2.096  -3.594  0.00  0.00    +0.041 A 
ATOM      4  C   UNL     1       3.642  -2.926  -3.102  0.00  0.00    +0.025 A 
ATOM      5  C   UNL     1       3.048  -2.648  -1.888  0.00  0.00    +0.030 A 
ATOM      6  C   UNL     1       3.435  -1.536  -1.156  0.00  0.00    +0.106 A 
ATOM      7  C   UNL     1       4.424  -0.702  -1.627  0.00  0.00    +0.045 A 
ATOM      8  C   UNL     1       5.040  -0.973  -2.853  0.00  0.00    +0.086 A 
BRANCH   8   9
ATOM      9  C   UNL     1       6.098  -0.085  -3.363  0.00  0.00    +0.388 C 
ATOM     10  O   UNL     1       6.700  -0.378  -4.377  0.00  0.00    -0.241 OA
ATOM     11  O   UNL     1       6.400   1.052  -2.704  0.00  0.00    -0.241 OA
ENDBRANCH   8   9
BRANCH   6  12
ATOM     12  S   UNL     1       2.662  -1.192   0.390  0.00  0.00    +0.061 S 
ATOM     13  O   UNL     1       3.581  -0.409   1.139  0.00  0.00    -0.153 OA
ATOM     14  O   UNL     1       2.146  -2.426   0.869  0.00  0.00    -0.153 OA
BRANCH  12  15
ATOM     15  N   UNL     1       1.356  -0.222   0.079  0.00  0.00    -0.177 NA
ATOM     16  C   UNL     1       0.038  -0.807  -0.198  0.00  0.00    +0.109 C 
ATOM     17  C   UNL     1      -0.485  -0.241  -1.522  0.00  0.00    +0.017 C 
ATOM     18  C   UNL     1      -0.477   1.288  -1.457  0.00  0.00    +0.003 C 
ATOM     19  C   UNL     1       0.956   1.784  -1.251  0.00  0.00    +0.017 C 
ATOM     20  C   UNL     1       1.495   1.241   0.076  0.00  0.00    +0.109 C 
ENDBRANCH  12  15
ENDBRANCH   6  12
ENDBRANCH   1   3
BRANCH   1  21
ATOM     21  C   UNL     1       4.736  -3.470  -5.647  0.00  0.00    +0.091 C 
BRANCH  21  22
ATOM     22  C   UNL     1       5.640  -3.641  -6.870  0.00  0.00    -0.017 C 
BRANCH  22  28
ATOM     23  C   UNL     1       5.280  -6.015  -7.590  0.00  0.00    +0.122 A 
ATOM     24  C   UNL     1       4.722  -6.956  -8.444  0.00  0.00    +0.046 A 
ATOM     25  C   UNL     1       3.938  -6.546  -9.504  0.00  0.00    +0.004 A 
ATOM     26  C   UNL     1       3.705  -5.199  -9.713  0.00  0.00    +0.000 A 
ATOM     27  C   UNL     1       4.255  -4.260  -8.861  0.00  0.00    +0.005 A 
ATOM     28  C   UNL     1       5.040  -4.665  -7.798  0.00  0.00    -0.018 A 
BRANCH  23  30
ATOM     29  C   UNL     1       6.261  -7.822  -6.396  0.00  0.00    +0.277 C 
ATOM     30  O   UNL     1       6.056  -6.416  -6.549  0.00  0.00    -0.495 OA
ENDBRANCH  23  30
ENDBRANCH  22  28
BRANCH  22  35
ATOM     31  C   UNL     1       6.302  -2.547  -8.942  0.00  0.00    -0.078 C 
ATOM     32  C   UNL     1       5.873  -1.252  -9.676  0.00  0.00    -0.020 C 
ATOM     33  C   UNL     1       4.470  -0.971  -9.091  0.00  0.00    -0.020 C 
ATOM     34  C   UNL     1       4.439  -1.718  -7.745  0.00  0.00    -0.078 C 
ATOM     35  N   UNL     1       5.756  -2.338  -7.592  0.00  0.00    +0.385 N 
ATOM     36  H   UNL     1       6.374  -1.713  -7.061  0.00  0.00    -0.081 HD
ENDBRANCH  22  35
ENDBRANCH  21  22
ENDBRANCH   1  21
TORSDOF 9
