REMARK  Name = ZINC23635050
REMARK  10 active torsions:
REMARK  status: ('A' for Active; 'I' for Inactive)
REMARK    1  A    between atoms: C_1  and  C_2
REMARK    2  A    between atoms: C_2  and  N_3
REMARK    3  A    between atoms: C_4  and  C_25
REMARK    4  A    between atoms: C_7  and  S_8
REMARK    5  A    between atoms: S_8  and  C_9
REMARK    6  A    between atoms: C_9  and  C_10
REMARK    7  A    between atoms: N_15  and  C_16
REMARK    8  A    between atoms: C_22  and  C_24
REMARK    9  A    between atoms: C_30  and  O_31
REMARK   10  A    between atoms: O_31  and  C_32
REMARK                            x       y       z     vdW  Elec       q    Type
REMARK                         _______ _______ _______ _____ _____    ______ ____
ROOT
ATOM      1  S   UNL     1       0.035  -0.002   0.108  0.00  0.00    -0.077 S 
ENDROOT
BRANCH   1   6
ATOM      2  N   UNL     1       1.056   2.590  -0.155  0.00  0.00    -0.302 N 
ATOM      3  C   UNL     1       0.543   3.866  -0.116  0.00  0.00    +0.168 A 
ATOM      4  N   UNL     1      -0.747   3.756   0.104  0.00  0.00    -0.128 NA
ATOM      5  N   UNL     1      -1.072   2.517   0.198  0.00  0.00    -0.122 NA
ATOM      6  C   UNL     1      -0.009   1.758   0.053  0.00  0.00    +0.192 A 
BRANCH   3   7
ATOM      7  C   UNL     1       1.301   5.123  -0.287  0.00  0.00    +0.061 A 
ATOM      8  C   UNL     1       2.484   5.330   0.423  0.00  0.00    +0.015 A 
ATOM      9  C   UNL     1       3.188   6.505   0.259  0.00  0.00    +0.001 A 
ATOM     10  C   UNL     1       2.725   7.480  -0.609  0.00  0.00    +0.004 A 
ATOM     11  C   UNL     1       1.554   7.285  -1.317  0.00  0.00    +0.046 A 
ATOM     12  C   UNL     1       0.839   6.109  -1.167  0.00  0.00    +0.131 A 
BRANCH  12  13
ATOM     13  O   UNL     1      -0.309   5.914  -1.867  0.00  0.00    -0.494 OA
ATOM     14  C   UNL     1      -0.718   6.964  -2.746  0.00  0.00    +0.277 C 
ENDBRANCH  12  13
ENDBRANCH   3   7
BRANCH   2  16
ATOM     15  C   UNL     1       2.713   2.064  -1.875  0.00  0.00    +0.027 C 
ATOM     16  C   UNL     1       2.451   2.203  -0.374  0.00  0.00    +0.122 C 
ENDBRANCH   2  16
ENDBRANCH   1   6
BRANCH   1  17
ATOM     17  C   UNL     1      -1.715  -0.351   0.413  0.00  0.00    +0.173 C 
BRANCH  17  18
ATOM     18  C   UNL     1      -1.922  -1.841   0.501  0.00  0.00    +0.231 C 
ATOM     19  O   UNL     1      -0.980  -2.593   0.371  0.00  0.00    -0.274 OA
ATOM     20  N   UNL     1      -3.155  -2.337   0.725  0.00  0.00    -0.239 N 
ATOM     21  C   UNL     1      -3.341  -3.670   0.803  0.00  0.00    +0.306 C 
ATOM     22  O   UNL     1      -2.396  -4.424   0.673  0.00  0.00    -0.252 OA
ATOM     23  N   UNL     1      -4.573  -4.167   1.027  0.00  0.00    -0.296 N 
ATOM     24  H   UNL     1      -4.010  -1.655   0.843  0.00  0.00    +0.159 HD
ATOM     25  H   UNL     1      -5.428  -3.484   1.146  0.00  0.00    +0.151 HD
BRANCH  23  26
ATOM     26  C   UNL     1      -4.775  -5.615   1.113  0.00  0.00    +0.077 C 
ATOM     27  C   UNL     1      -4.959  -6.188  -0.294  0.00  0.00    +0.022 C 
ATOM     28  C   UNL     1      -6.179  -5.541  -0.952  0.00  0.00    +0.002 C 
ATOM     29  C   UNL     1      -7.426  -5.834  -0.115  0.00  0.00    +0.000 C 
ATOM     30  C   UNL     1      -7.242  -5.261   1.292  0.00  0.00    +0.005 C 
ATOM     31  C   UNL     1      -6.022  -5.908   1.950  0.00  0.00    +0.006 C 
ATOM     32  C   UNL     1      -5.838  -5.335   3.357  0.00  0.00    +0.009 C 
ENDBRANCH  23  26
ENDBRANCH  17  18
ENDBRANCH   1  17
TORSDOF 7
