REMARK  Name = ZINC04689223
REMARK  17 active torsions:
REMARK  status: ('A' for Active; 'I' for Inactive)
REMARK    1  A    between atoms: C_1  and  C_2
REMARK    2  A    between atoms: C_2  and  O_3
REMARK    3  A    between atoms: O_3  and  C_4
REMARK    4  A    between atoms: C_4  and  C_6
REMARK    5  A    between atoms: C_7  and  C_22
REMARK    6  A    between atoms: C_12  and  C_14
REMARK    7  A    between atoms: C_16  and  C_21
REMARK    8  A    between atoms: C_19  and  C_20
REMARK    9  A    between atoms: C_22  and  N_66
REMARK   10  A    between atoms: C_23  and  C_24
REMARK   11  A    between atoms: C_23  and  C_25
REMARK   12  A    between atoms: C_23  and  C_26
REMARK   13  A    between atoms: C_23  and  N_66
REMARK   14  A    between atoms: C_26  and  C_27
REMARK   15  A    between atoms: C_27  and  C_28
REMARK   16  A    between atoms: C_27  and  C_29
REMARK   17  A    between atoms: C_27  and  C_30
REMARK                            x       y       z     vdW  Elec       q    Type
REMARK                         _______ _______ _______ _____ _____    ______ ____
ROOT
ATOM      1  C   UNL     1      -0.816   3.709  -1.156  0.00  0.00    +0.076 C 
ATOM      2  C   UNL     1       0.400   4.286  -1.042  0.00  0.00    +0.007 C 
ATOM      3  N   UNL     1       1.542   3.543  -1.116  0.00  0.00    -0.274 N 
ATOM      4  C   UNL     1       1.555   2.217  -1.303  0.00  0.00    +0.304 C 
ATOM      5  O   UNL     1       2.624   1.640  -1.355  0.00  0.00    -0.252 OA
ATOM      6  N   UNL     1       0.421   1.500  -1.435  0.00  0.00    -0.288 N 
ATOM      7  C   UNL     1      -0.868   2.211  -1.376  0.00  0.00    +0.144 C 
ATOM      8  H   UNL     1       2.393   4.000  -1.029  0.00  0.00    +0.156 HD
ATOM      9  H   UNL     1       0.453   0.540  -1.570  0.00  0.00    +0.151 HD
ENDROOT
BRANCH   7  10
ATOM     10  C   UNL     1      -1.601   1.951  -2.666  0.00  0.00    -0.019 A 
ATOM     11  C   UNL     1      -1.624   2.917  -3.655  0.00  0.00    +0.009 A 
ATOM     12  C   UNL     1      -2.293   2.676  -4.841  0.00  0.00    -0.050 A 
ATOM     13  C   UNL     1      -2.947   1.474  -5.034  0.00  0.00    +0.003 A 
ATOM     14  C   UNL     1      -2.929   0.510  -4.043  0.00  0.00    +0.004 A 
ATOM     15  C   UNL     1      -2.256   0.749  -2.859  0.00  0.00    -0.045 A 
ATOM     16  C   UNL     1      -2.236  -0.302  -1.779  0.00  0.00    +0.044 C 
ATOM     17  C   UNL     1      -2.313   3.727  -5.921  0.00  0.00    +0.044 C 
ENDBRANCH   7  10
BRANCH   1  18
ATOM     18  C   UNL     1      -2.001   4.479  -1.080  0.00  0.00    +0.339 C 
ATOM     19  O   UNL     1      -2.706   4.414  -0.090  0.00  0.00    -0.245 OA
BRANCH  18  20
ATOM     20  O   UNL     1      -2.349   5.285  -2.105  0.00  0.00    -0.462 OA
BRANCH  20  22
ATOM     21  C   UNL     1      -3.799   6.871  -3.211  0.00  0.00    +0.048 C 
ATOM     22  C   UNL     1      -3.494   6.118  -1.914  0.00  0.00    +0.229 C 
ENDBRANCH  20  22
ENDBRANCH  18  20
ENDBRANCH   1  18
BRANCH   2  23
ATOM     23  C   UNL     1       0.496   5.775  -0.830  0.00  0.00    -0.029 C 
BRANCH  23  24
ATOM     24  N   UNL     1       1.240   6.038   0.416  0.00  0.00    +0.386 N 
ATOM     25  H   UNL     1       2.182   5.635   0.340  0.00  0.00    -0.085 HD
ATOM     26  H   UNL     1       0.745   5.606   1.204  0.00  0.00    -0.085 HD
BRANCH  24  27
ATOM     27  C   UNL     1       1.351   7.491   0.649  0.00  0.00    -0.073 C 
ATOM     28  C   UNL     1       2.094   8.144  -0.518  0.00  0.00    -0.010 C 
ATOM     29  C   UNL     1      -0.047   8.100   0.769  0.00  0.00    -0.010 C 
BRANCH  27  30
ATOM     30  C   UNL     1       2.126   7.733   1.946  0.00  0.00    -0.007 C 
BRANCH  30  31
ATOM     31  C   UNL     1       2.003   9.204   2.347  0.00  0.00    -0.039 C 
ATOM     32  C   UNL     1       0.649   9.439   3.021  0.00  0.00    +0.010 C 
ATOM     33  C   UNL     1       3.127   9.563   3.321  0.00  0.00    +0.010 C 
ATOM     34  C   UNL     1       2.110  10.083   1.099  0.00  0.00    +0.010 C 
ENDBRANCH  30  31
ENDBRANCH  27  30
ENDBRANCH  24  27
ENDBRANCH  23  24
ENDBRANCH   2  23
TORSDOF 9
