REMARK  Name = ZINC09779154
REMARK  7 active torsions:
REMARK  status: ('A' for Active; 'I' for Inactive)
REMARK    1  A    between atoms: C_7  and  O_33
REMARK    2  A    between atoms: C_8  and  C_12
REMARK    3  A    between atoms: C_12  and  C_13
REMARK    4  A    between atoms: C_12  and  C_21
REMARK    5  A    between atoms: C_16  and  O_20
REMARK    6  A    between atoms: C_17  and  O_19
REMARK    7  A    between atoms: C_22  and  O_32
REMARK                            x       y       z     vdW  Elec       q    Type
REMARK                         _______ _______ _______ _____ _____    ______ ____
ROOT
ATOM      1  C   UNL     1       3.545   6.165   0.001  0.00  0.00    +0.100 C 
ENDROOT
BRANCH   1   9
ATOM      2  C   UNL     1      -0.358   1.464   1.108  0.00  0.00    +0.001 A 
ATOM      3  C   UNL     1      -1.477   2.256   1.322  0.00  0.00    +0.004 A 
ATOM      4  C   UNL     1      -1.392   3.630   1.244  0.00  0.00    +0.047 A 
ATOM      5  C   UNL     1      -0.178   4.233   0.940  0.00  0.00    +0.143 A 
ATOM      6  C   UNL     1       0.954   3.433   0.718  0.00  0.00    +0.059 A 
ATOM      7  C   UNL     1       0.855   2.042   0.804  0.00  0.00    +0.015 A 
ATOM      8  C   UNL     1       2.233   4.083   0.396  0.00  0.00    +0.138 A 
ATOM      9  C   UNL     1       2.260   5.449   0.328  0.00  0.00    +0.091 A 
ATOM     10  C   UNL     1       1.085   6.180   0.562  0.00  0.00    +0.345 A 
ATOM     11  O   UNL     1       1.122   7.397   0.498  0.00  0.00    -0.245 OA
ATOM     12  O   UNL     1      -0.078   5.577   0.855  0.00  0.00    -0.422 OA
BRANCH   8  13
ATOM     13  O   UNL     1       3.350   3.353   0.174  0.00  0.00    -0.506 OA
ATOM     14  H   UNL     1       3.478   3.102  -0.751  0.00  0.00    +0.292 HD
ENDBRANCH   8  13
ENDBRANCH   1   9
BRANCH   1  15
ATOM     15  C   UNL     1       3.832   7.192   1.067  0.00  0.00    +0.091 A 
ATOM     16  C   UNL     1       3.350   7.019   2.335  0.00  0.00    +0.138 A 
ATOM     17  C   UNL     1       3.659   8.050   3.338  0.00  0.00    +0.059 A 
ATOM     18  C   UNL     1       3.200   7.937   4.652  0.00  0.00    +0.015 A 
ATOM     19  C   UNL     1       3.507   8.919   5.567  0.00  0.00    +0.001 A 
ATOM     20  C   UNL     1       4.269  10.015   5.189  0.00  0.00    +0.004 A 
ATOM     21  C   UNL     1       4.728  10.139   3.894  0.00  0.00    +0.047 A 
ATOM     22  C   UNL     1       4.430   9.159   2.956  0.00  0.00    +0.143 A 
ATOM     23  O   UNL     1       4.873   9.264   1.684  0.00  0.00    -0.422 OA
ATOM     24  C   UNL     1       4.601   8.326   0.763  0.00  0.00    +0.345 A 
ATOM     25  O   UNL     1       5.029   8.466  -0.369  0.00  0.00    -0.245 OA
BRANCH  16  26
ATOM     26  O   UNL     1       2.612   5.932   2.657  0.00  0.00    -0.506 OA
ATOM     27  H   UNL     1       3.135   5.181   2.971  0.00  0.00    +0.292 HD
ENDBRANCH  16  26
ENDBRANCH   1  15
BRANCH   1  28
ATOM     28  C   UNL     1       3.412   6.851  -1.334  0.00  0.00    -0.031 A 
ATOM     29  C   UNL     1       2.776   8.075  -1.421  0.00  0.00    +0.008 A 
ATOM     30  C   UNL     1       2.657   8.711  -2.642  0.00  0.00    +0.049 A 
ATOM     31  C   UNL     1       3.166   8.116  -3.785  0.00  0.00    +0.158 A 
ATOM     32  C   UNL     1       3.802   6.881  -3.699  0.00  0.00    +0.159 A 
ATOM     33  C   UNL     1       3.923   6.252  -2.471  0.00  0.00    +0.053 A 
BRANCH  32  34
ATOM     34  O   UNL     1       4.303   6.293  -4.818  0.00  0.00    -0.503 OA
ATOM     35  H   UNL     1       3.676   5.716  -5.274  0.00  0.00    +0.292 HD
ENDBRANCH  32  34
BRANCH  31  36
ATOM     36  O   UNL     1       3.045   8.738  -4.989  0.00  0.00    -0.503 OA
ATOM     37  H   UNL     1       2.236   8.510  -5.469  0.00  0.00    +0.292 HD
ENDBRANCH  31  36
ENDBRANCH   1  28
TORSDOF 7
