REMARK  Name = ZINC19641010
REMARK  11 active torsions:
REMARK  status: ('A' for Active; 'I' for Inactive)
REMARK    1  A    between atoms: C_1  and  C_2
REMARK    2  A    between atoms: C_2  and  C_3
REMARK    3  A    between atoms: C_3  and  C_4
REMARK    4  A    between atoms: N_6  and  C_25
REMARK    5  A    between atoms: C_10  and  C_11
REMARK    6  A    between atoms: C_10  and  N_12
REMARK    7  A    between atoms: N_12  and  C_13
REMARK    8  A    between atoms: C_13  and  C_14
REMARK    9  A    between atoms: C_14  and  C_15
REMARK   10  A    between atoms: C_18  and  S_21
REMARK   11  A    between atoms: S_21  and  N_24
REMARK                            x       y       z     vdW  Elec       q    Type
REMARK                         _______ _______ _______ _____ _____    ______ ____
ROOT
ATOM      1  C   UNL     1       0.739  -2.004  -1.265  0.00  0.00    +0.074 C 
ATOM      2  N   UNL     1       0.229  -2.783  -0.360  0.00  0.00    -0.176 NA
ATOM      3  N   UNL     1       0.425  -4.127  -0.679  0.00  0.00    -0.156 N 
ATOM      4  C   UNL     1       1.094  -4.234  -1.845  0.00  0.00    +0.274 C 
ATOM      5  O   UNL     1       1.426  -5.263  -2.408  0.00  0.00    -0.268 OA
ATOM      6  C   UNL     1       1.334  -2.860  -2.303  0.00  0.00    +0.078 C 
ATOM      7  C   UNL     1       1.982  -2.457  -3.458  0.00  0.00    +0.015 C 
ATOM      8  C   UNL     1       2.531  -3.486  -4.412  0.00  0.00    +0.061 C 
ENDROOT
BRANCH   3   9
ATOM      9  C   UNL     1      -0.008  -5.208   0.100  0.00  0.00    +0.061 A 
ATOM     10  C   UNL     1       0.248  -6.509  -0.312  0.00  0.00    +0.028 A 
ATOM     11  C   UNL     1      -0.180  -7.573   0.457  0.00  0.00    +0.040 A 
ATOM     12  C   UNL     1      -0.864  -7.343   1.639  0.00  0.00    +0.124 A 
ATOM     13  C   UNL     1      -1.121  -6.047   2.052  0.00  0.00    +0.040 A 
ATOM     14  C   UNL     1      -0.690  -4.980   1.288  0.00  0.00    +0.028 A 
ATOM     15  F   UNL     1      -1.282  -8.386   2.389  0.00  0.00    -0.205 F 
ENDBRANCH   3   9
BRANCH   7  16
ATOM     16  N   UNL     1       2.121  -1.143  -3.730  0.00  0.00    -0.346 N 
ATOM     17  H   UNL     1       1.767  -0.481  -3.116  0.00  0.00    +0.146 HD
BRANCH  16  18
ATOM     18  C   UNL     1       2.806  -0.717  -4.953  0.00  0.00    +0.106 C 
BRANCH  18  19
ATOM     19  C   UNL     1       2.827   0.811  -5.020  0.00  0.00    +0.054 C 
BRANCH  19  20
ATOM     20  C   UNL     1       3.532   1.250  -6.277  0.00  0.00    -0.046 A 
ATOM     21  C   UNL     1       4.899   1.457  -6.267  0.00  0.00    +0.005 A 
ATOM     22  C   UNL     1       5.545   1.859  -7.421  0.00  0.00    +0.029 A 
ATOM     23  C   UNL     1       4.825   2.054  -8.585  0.00  0.00    +0.105 A 
ATOM     24  C   UNL     1       3.459   1.846  -8.595  0.00  0.00    +0.029 A 
ATOM     25  C   UNL     1       2.813   1.439  -7.442  0.00  0.00    +0.005 A 
BRANCH  23  26
ATOM     26  S   UNL     1       5.649   2.567 -10.055  0.00  0.00    +0.056 S 
ATOM     27  O   UNL     1       4.673   3.206 -10.866  0.00  0.00    -0.153 OA
ATOM     28  O   UNL     1       6.843   3.220  -9.645  0.00  0.00    -0.153 OA
BRANCH  26  29
ATOM     29  N   UNL     1       6.112   1.197 -10.861  0.00  0.00    -0.204 NA
ATOM     30  H   UNL     1       5.909   0.324 -10.490  0.00  0.00    +0.144 HD
ATOM     31  H   UNL     1       6.586   1.267 -11.704  0.00  0.00    +0.144 HD
ENDBRANCH  26  29
ENDBRANCH  23  26
ENDBRANCH  19  20
ENDBRANCH  18  19
ENDBRANCH  16  18
ENDBRANCH   7  16
BRANCH   1  32
ATOM     32  C   UNL     1       0.718  -0.497  -1.257  0.00  0.00    +0.057 C 
BRANCH  32  34
ATOM     33  C   UNL     1      -0.019   1.526   0.010  0.00  0.00    +0.004 C 
ATOM     34  C   UNL     1       0.002  -0.004   0.002  0.00  0.00    +0.003 C 
ENDBRANCH  32  34
ENDBRANCH   1  32
TORSDOF 9
