REMARK  Name = ZINC38008994
REMARK  4 active torsions:
REMARK  status: ('A' for Active; 'I' for Inactive)
REMARK    1  A    between atoms: C_3  and  N_8
REMARK    2  A    between atoms: N_8  and  S_9
REMARK    3  A    between atoms: S_9  and  C_12
REMARK    4  A    between atoms: N_18  and  N_19
REMARK                            x       y       z     vdW  Elec       q    Type
REMARK                         _______ _______ _______ _____ _____    ______ ____
ROOT
ATOM      1  C   UNL     1       6.329   2.307  -0.046  0.00  0.00    +0.115 A 
ATOM      2  C   UNL     1       6.845   2.788  -1.242  0.00  0.00    +0.046 A 
ATOM      3  C   UNL     1       7.879   3.702  -1.213  0.00  0.00    +0.086 A 
ATOM      4  N   UNL     1       8.379   4.122  -0.066  0.00  0.00    -0.349 N 
ATOM      5  C   UNL     1       7.914   3.687   1.095  0.00  0.00    +0.112 A 
ATOM      6  C   UNL     1       6.870   2.769   1.140  0.00  0.00    +0.071 A 
ATOM      7  N   UNL     1       8.471   4.155   2.279  0.00  0.00    -0.269 N 
ATOM      8  H   UNL     1       8.134   3.839   3.132  0.00  0.00    +0.167 HD
ATOM      9  H   UNL     1       9.105   4.765  -0.074  0.00  0.00    +0.167 HD
ENDROOT
BRANCH   1  10
ATOM     10  S   UNL     1       5.009   1.139  -0.040  0.00  0.00    +0.093 S 
ATOM     11  O   UNL     1       5.081   0.451   1.201  0.00  0.00    -0.148 OA
ATOM     12  O   UNL     1       5.058   0.464  -1.289  0.00  0.00    -0.148 OA
BRANCH  10  13
ATOM     13  N   UNL     1       3.594   2.000  -0.021  0.00  0.00    -0.078 NA
BRANCH  13  16
ATOM     14  C   UNL     1      -0.017   1.385   0.010  0.00  0.00    +0.020 A 
ATOM     15  C   UNL     1       1.190   2.061   0.002  0.00  0.00    +0.048 A 
ATOM     16  C   UNL     1       2.374   1.332  -0.013  0.00  0.00    +0.163 A 
ATOM     17  N   UNL     1       2.351   0.008  -0.021  0.00  0.00    -0.236 NA
ATOM     18  C   UNL     1       1.216  -0.664  -0.014  0.00  0.00    +0.128 A 
ATOM     19  C   UNL     1       0.002  -0.004   0.002  0.00  0.00    +0.036 A 
ATOM     20 BR   UNL     1      -1.617  -0.982   0.013  0.00  0.00    -0.049 Br
ENDBRANCH  13  16
ENDBRANCH  10  13
ENDBRANCH   1  10
BRANCH   7  21
ATOM     21  N   UNL     1       9.493   5.061   2.242  0.00  0.00    -0.255 NA
ATOM     22  H   UNL     1       9.793   5.306   3.174  0.00  0.00    +0.140 HD
ATOM     23  H   UNL     1      10.266   4.712   1.694  0.00  0.00    +0.140 HD
ENDBRANCH   7  21
TORSDOF 4
