REMARK  Name = ZINC20210522
REMARK  12 active torsions:
REMARK  status: ('A' for Active; 'I' for Inactive)
REMARK    1  A    between atoms: C_1  and  C_2
REMARK    2  A    between atoms: C_2  and  N_3
REMARK    3  A    between atoms: N_3  and  C_4
REMARK    4  A    between atoms: N_3  and  C_6
REMARK    5  A    between atoms: C_4  and  C_5
REMARK    6  A    between atoms: C_9  and  C_12
REMARK    7  A    between atoms: C_12  and  N_13
REMARK    8  A    between atoms: C_15  and  N_30
REMARK    9  A    between atoms: C_18  and  C_20
REMARK   10  A    between atoms: N_22  and  C_23
REMARK   11  A    between atoms: C_23  and  C_24
REMARK   12  A    between atoms: N_30  and  C_31
REMARK                            x       y       z     vdW  Elec       q    Type
REMARK                         _______ _______ _______ _____ _____    ______ ____
ROOT
ATOM      1  N   UNL     1      -2.301  -0.209  -6.759  0.00  0.00    +0.391 N 
ATOM      2  C   UNL     1      -3.072   0.828  -6.049  0.00  0.00    -0.059 C 
ATOM      3  C   UNL     1      -4.252   1.224  -6.960  0.00  0.00    +0.036 C 
ATOM      4  C   UNL     1      -3.763   0.802  -8.370  0.00  0.00    +0.010 C 
ATOM      5  C   UNL     1      -2.965  -0.487  -8.051  0.00  0.00    +0.021 C 
ATOM      6  H   UNL     1      -1.362   0.121  -6.924  0.00  0.00    -0.080 HD
ENDROOT
BRANCH   5   7
ATOM      7  C   UNL     1      -1.938  -0.746  -9.123  0.00  0.00    +0.200 C 
ATOM      8  O   UNL     1      -0.756  -0.708  -8.853  0.00  0.00    -0.278 OA
ATOM      9  N   UNL     1      -2.332  -1.021 -10.382  0.00  0.00    -0.312 N 
ATOM     10  H   UNL     1      -3.277  -1.052 -10.598  0.00  0.00    +0.149 HD
BRANCH   9  11
ATOM     11  C   UNL     1      -1.334  -1.273 -11.424  0.00  0.00    +0.141 C 
BRANCH  11  12
ATOM     12  C   UNL     1      -2.031  -1.553 -12.731  0.00  0.00    -0.012 A 
ATOM     13  C   UNL     1      -2.383  -2.849 -13.075  0.00  0.00    +0.008 A 
ATOM     14  C   UNL     1      -3.023  -3.059 -14.287  0.00  0.00    +0.020 A 
ATOM     15  C   UNL     1      -3.287  -1.977 -15.106  0.00  0.00    +0.111 A 
ATOM     16  N   UNL     1      -2.938  -0.758 -14.746  0.00  0.00    -0.263 NA
ATOM     17  C   UNL     1      -2.333  -0.520 -13.598  0.00  0.00    +0.115 A 
ENDBRANCH  11  12
ENDBRANCH   9  11
ENDBRANCH   5   7
BRANCH   3  18
ATOM     18  N   UNL     1      -4.490   2.673  -6.901  0.00  0.00    -0.312 NA
ATOM     19  H   UNL     1      -4.245   3.043  -5.995  0.00  0.00    +0.122 HD
BRANCH  18  20
ATOM     20  C   UNL     1      -5.883   2.992  -7.241  0.00  0.00    +0.060 C 
ATOM     21  C   UNL     1      -6.026   3.097  -8.761  0.00  0.00    +0.007 C 
ATOM     22  C   UNL     1      -7.476   3.429  -9.116  0.00  0.00    +0.008 C 
ATOM     23  C   UNL     1      -7.865   4.762  -8.474  0.00  0.00    -0.010 C 
ATOM     24  C   UNL     1      -6.946   5.868  -8.997  0.00  0.00    +0.007 C 
ATOM     25  C   UNL     1      -5.496   5.535  -8.643  0.00  0.00    -0.010 C 
ATOM     26  C   UNL     1      -5.106   4.202  -9.285  0.00  0.00    +0.008 C 
ATOM     27  C   UNL     1      -5.353   5.431  -7.123  0.00  0.00    +0.008 C 
ATOM     28  C   UNL     1      -6.272   4.325  -6.600  0.00  0.00    +0.007 C 
ATOM     29  C   UNL     1      -7.723   4.658  -6.954  0.00  0.00    +0.008 C 
ENDBRANCH  18  20
ENDBRANCH   3  18
BRANCH   1  30
ATOM     30  C   UNL     1      -2.261  -1.436  -5.951  0.00  0.00    -0.042 C 
BRANCH  30  34
ATOM     31  C   UNL     1      -0.038  -0.713  -2.373  0.00  0.00    +0.030 A 
ATOM     32  C   UNL     1      -1.410  -0.495  -2.396  0.00  0.00    +0.023 A 
ATOM     33  C   UNL     1      -2.125  -0.729  -3.554  0.00  0.00    +0.003 A 
ATOM     34  C   UNL     1      -1.477  -1.180  -4.690  0.00  0.00    -0.064 A 
ATOM     35  C   UNL     1      -0.112  -1.398  -4.670  0.00  0.00    +0.003 A 
ATOM     36  C   UNL     1       0.610  -1.161  -3.517  0.00  0.00    +0.023 A 
BRANCH  31  37
ATOM     37  N   UNL     1       0.688  -0.476  -1.203  0.00  0.00    -0.330 N 
BRANCH  37  39
ATOM     38  C   UNL     1      -0.019   1.526   0.010  0.00  0.00    +0.024 C 
ATOM     39  C   UNL     1       0.002  -0.004   0.002  0.00  0.00    +0.102 C 
ENDBRANCH  37  39
BRANCH  37  40
ATOM     40  C   UNL     1       2.135  -0.701  -1.182  0.00  0.00    +0.102 C 
ATOM     41  C   UNL     1       2.421  -2.145  -0.763  0.00  0.00    +0.024 C 
ENDBRANCH  37  40
ENDBRANCH  31  37
ENDBRANCH  30  34
ENDBRANCH   1  30
TORSDOF 10
