REMARK  Name = ZINC63139647
REMARK  6 active torsions:
REMARK  status: ('A' for Active; 'I' for Inactive)
REMARK    1  A    between atoms: C_1  and  O_2
REMARK    2  A    between atoms: O_2  and  C_3
REMARK    3  A    between atoms: C_6  and  C_9
REMARK    4  A    between atoms: C_9  and  C_10
REMARK    5  A    between atoms: C_10  and  N_11
REMARK    6  A    between atoms: C_31  and  C_33
REMARK                            x       y       z     vdW  Elec       q    Type
REMARK                         _______ _______ _______ _____ _____    ______ ____
ROOT
ATOM      1  N   UNL     1      -6.921  -3.244  -1.176  0.00  0.00    -0.291 N 
ATOM      2  C   UNL     1      -6.809  -4.692  -1.248  0.00  0.00    +0.203 C 
ATOM      3  C   UNL     1      -8.143  -5.357  -1.325  0.00  0.00    +0.234 C 
ATOM      4  O   UNL     1      -8.165  -6.568  -1.391  0.00  0.00    -0.274 OA
ATOM      5  N   UNL     1      -9.316  -4.713  -1.325  0.00  0.00    -0.279 N 
ATOM      6  C   UNL     1      -9.418  -3.261  -1.231  0.00  0.00    +0.167 C 
ATOM      7  C   UNL     1      -8.084  -2.595  -1.162  0.00  0.00    +0.237 C 
ATOM      8  O   UNL     1      -8.056  -1.384  -1.092  0.00  0.00    -0.274 OA
ATOM      9  C   UNL     1     -10.251  -2.871   0.004  0.00  0.00    +0.065 C 
ATOM     10  C   UNL     1     -11.474  -3.756  -0.007  0.00  0.00    -0.034 C 
ATOM     11  C   UNL     1     -12.767  -3.471   0.086  0.00  0.00    -0.001 A 
ATOM     12  C   UNL     1     -13.476  -2.207   0.343  0.00  0.00    +0.010 A 
ATOM     13  C   UNL     1     -14.834  -2.273   0.349  0.00  0.00    +0.001 A 
ATOM     14  C   UNL     1     -15.549  -3.454   0.128  0.00  0.00    +0.002 A 
ATOM     15  C   UNL     1     -14.978  -4.663  -0.106  0.00  0.00    +0.026 A 
ATOM     16  C   UNL     1     -13.554  -4.723  -0.129  0.00  0.00    +0.043 A 
ATOM     17  N   UNL     1     -12.758  -5.736  -0.304  0.00  0.00    -0.375 N 
ATOM     18  C   UNL     1     -11.378  -5.269  -0.164  0.00  0.00    +0.131 C 
ATOM     19  C   UNL     1     -10.550  -5.525  -1.425  0.00  0.00    +0.133 C 
ATOM     20  H   UNL     1     -13.032  -6.647  -0.496  0.00  0.00    +0.160 HD
ENDROOT
BRANCH  19  21
ATOM     21  C   UNL     1     -11.335  -5.113  -2.644  0.00  0.00    -0.025 A 
ATOM     22  C   UNL     1     -11.765  -3.807  -2.780  0.00  0.00    +0.005 A 
ATOM     23  C   UNL     1     -12.485  -3.429  -3.899  0.00  0.00    +0.000 A 
ATOM     24  C   UNL     1     -12.774  -4.358  -4.881  0.00  0.00    +0.000 A 
ATOM     25  C   UNL     1     -12.343  -5.664  -4.745  0.00  0.00    +0.000 A 
ATOM     26  C   UNL     1     -11.620  -6.041  -3.629  0.00  0.00    +0.005 A 
ENDBRANCH  19  21
BRANCH   1  27
ATOM     27  C   UNL     1      -5.687  -2.458  -1.109  0.00  0.00    +0.113 C 
BRANCH  27  28
ATOM     28  C   UNL     1      -5.284  -2.263   0.354  0.00  0.00    +0.054 C 
BRANCH  28  32
ATOM     29  C   UNL     1      -1.685   0.032   0.548  0.00  0.00    +0.120 A 
ATOM     30  C   UNL     1      -2.917   0.669   0.561  0.00  0.00    +0.046 A 
ATOM     31  C   UNL     1      -4.079  -0.075   0.497  0.00  0.00    +0.007 A 
ATOM     32  C   UNL     1      -4.015  -1.454   0.422  0.00  0.00    -0.046 A 
ATOM     33  C   UNL     1      -2.788  -2.091   0.410  0.00  0.00    +0.007 A 
ATOM     34  C   UNL     1      -1.623  -1.351   0.467  0.00  0.00    +0.046 A 
BRANCH  29  36
ATOM     35  C   UNL     1      -0.680   2.182   0.693  0.00  0.00    +0.277 C 
ATOM     36  O   UNL     1      -0.540   0.762   0.610  0.00  0.00    -0.495 OA
ENDBRANCH  29  36
ENDBRANCH  28  32
ENDBRANCH  27  28
ENDBRANCH   1  27
TORSDOF 5
