REMARK  Name = ZINC39984004
REMARK  7 active torsions:
REMARK  status: ('A' for Active; 'I' for Inactive)
REMARK    1  A    between atoms: C_1  and  C_2
REMARK    2  A    between atoms: C_5  and  N_9
REMARK    3  A    between atoms: C_7  and  C_8
REMARK    4  A    between atoms: C_10  and  S_15
REMARK    5  A    between atoms: S_15  and  C_16
REMARK    6  A    between atoms: C_16  and  C_17
REMARK    7  A    between atoms: C_23  and  C_25
REMARK                            x       y       z     vdW  Elec       q    Type
REMARK                         _______ _______ _______ _____ _____    ______ ____
ROOT
ATOM      1  N   UNL     1       0.059  -4.167  -0.021  0.00  0.00    -0.174 N 
ATOM      2  C   UNL     1       0.071  -5.049  -1.203  0.00  0.00    +0.260 C 
ATOM      3  N   UNL     1       0.091  -6.398  -0.607  0.00  0.00    -0.218 N 
ATOM      4  N   UNL     1       0.088  -6.204   0.780  0.00  0.00    -0.063 NA
ATOM      5  N   UNL     1       0.077  -5.016   1.091  0.00  0.00    -0.056 NA
ATOM      6  H   UNL     1       0.102  -7.246  -1.078  0.00  0.00    +0.173 HD
ENDROOT
BRANCH   1  11
ATOM      7  C   UNL     1      -0.018   1.503   0.010  0.00  0.00    +0.044 C 
ATOM      8  C   UNL     1       0.002  -0.004   0.002  0.00  0.00    -0.047 A 
ATOM      9  C   UNL     1       0.006  -0.687  -1.201  0.00  0.00    +0.005 A 
ATOM     10  C   UNL     1       0.025  -2.068  -1.212  0.00  0.00    +0.025 A 
ATOM     11  C   UNL     1       0.041  -2.771  -0.013  0.00  0.00    +0.056 A 
ATOM     12  C   UNL     1       0.037  -2.081   1.193  0.00  0.00    +0.028 A 
ATOM     13  C   UNL     1       0.023  -0.700   1.197  0.00  0.00    -0.046 A 
ATOM     14  C   UNL     1       0.025   0.049   2.504  0.00  0.00    +0.044 C 
ENDBRANCH   1  11
BRANCH   2  15
ATOM     15  S   UNL     1      -1.423  -4.805  -2.202  0.00  0.00    -0.107 S 
BRANCH  15  16
ATOM     16  C   UNL     1      -2.779  -5.221  -1.071  0.00  0.00    +0.168 C 
BRANCH  16  17
ATOM     17  C   UNL     1      -4.096  -5.058  -1.785  0.00  0.00    +0.229 C 
ATOM     18  O   UNL     1      -4.118  -4.697  -2.943  0.00  0.00    -0.275 OA
ATOM     19  N   UNL     1      -5.250  -5.314  -1.137  0.00  0.00    -0.263 N 
ATOM     20  C   UNL     1      -6.466  -5.163  -1.796  0.00  0.00    +0.188 A 
ATOM     21  N   UNL     1      -6.697  -4.791  -3.040  0.00  0.00    -0.126 NA
ATOM     22  N   UNL     1      -7.869  -4.699  -3.502  0.00  0.00    -0.145 NA
ATOM     23  C   UNL     1      -8.891  -4.983  -2.720  0.00  0.00    +0.101 A 
ATOM     24  S   UNL     1      -8.028  -5.417  -1.216  0.00  0.00    -0.036 S 
ATOM     25  C   UNL     1     -10.369  -4.957  -3.013  0.00  0.00    +0.075 C 
ATOM     26  H   UNL     1      -5.233  -5.603  -0.212  0.00  0.00    +0.157 HD
ENDBRANCH  16  17
ENDBRANCH  15  16
ENDBRANCH   2  15
TORSDOF 4
