REMARK  Name = ZINC54361136
REMARK  4 active torsions:
REMARK  status: ('A' for Active; 'I' for Inactive)
REMARK    1  A    between atoms: C_4  and  C_7
REMARK    2  A    between atoms: C_7  and  C_9
REMARK    3  A    between atoms: C_7  and  N_12
REMARK    4  A    between atoms: C_16  and  C_17
REMARK                            x       y       z     vdW  Elec       q    Type
REMARK                         _______ _______ _______ _____ _____    ______ ____
ROOT
ATOM      1  N   UNL     1       3.534  -1.663  -1.144  0.00  0.00    -0.237 N 
ATOM      2  C   UNL     1       4.445  -1.731  -2.100  0.00  0.00    +0.259 C 
ATOM      3  O   UNL     1       5.305  -0.880  -2.226  0.00  0.00    -0.269 OA
ATOM      4  C   UNL     1       4.364  -2.896  -3.009  0.00  0.00    +0.077 C 
ATOM      5  C   UNL     1       5.151  -3.226  -4.063  0.00  0.00    +0.028 C 
ATOM      6  S   UNL     1       2.946  -3.749  -2.334  0.00  0.00    -0.061 S 
ATOM      7  C   UNL     1       2.586  -2.612  -1.005  0.00  0.00    +0.122 C 
ATOM      8  S   UNL     1       1.336  -2.703   0.162  0.00  0.00    -0.027 S 
ENDROOT
BRANCH   5   9
ATOM      9  C   UNL     1       4.777  -4.346  -4.937  0.00  0.00    -0.022 A 
ATOM     10  C   UNL     1       3.436  -4.779  -4.986  0.00  0.00    +0.010 A 
ATOM     11  C   UNL     1       3.068  -5.811  -5.784  0.00  0.00    +0.030 A 
ATOM     12  C   UNL     1       4.027  -6.467  -6.579  0.00  0.00    +0.089 A 
ATOM     13  C   UNL     1       5.381  -6.042  -6.540  0.00  0.00    +0.090 A 
ATOM     14  C   UNL     1       5.745  -4.970  -5.713  0.00  0.00    +0.037 A 
ATOM     15  N   UNL     1       6.291  -6.667  -7.297  0.00  0.00    -0.252 NA
ATOM     16  C   UNL     1       5.924  -7.665  -8.067  0.00  0.00    +0.131 A 
ATOM     17  C   UNL     1       4.592  -8.082  -8.105  0.00  0.00    +0.131 A 
ATOM     18  N   UNL     1       3.680  -7.486  -7.372  0.00  0.00    -0.252 NA
ENDBRANCH   5   9
BRANCH   1  19
ATOM     19  C   UNL     1       3.558  -0.534  -0.211  0.00  0.00    +0.226 C 
BRANCH  19  23
ATOM     20  C   UNL     1       7.437  -0.227   1.552  0.00  0.00    +0.000 A 
ATOM     21  C   UNL     1       6.752   0.916   1.186  0.00  0.00    +0.000 A 
ATOM     22  C   UNL     1       5.497   0.817   0.616  0.00  0.00    +0.006 A 
ATOM     23  C   UNL     1       4.927  -0.426   0.410  0.00  0.00    -0.016 A 
ATOM     24  C   UNL     1       5.613  -1.569   0.775  0.00  0.00    +0.006 A 
ATOM     25  C   UNL     1       6.867  -1.470   1.347  0.00  0.00    +0.000 A 
ENDBRANCH  19  23
BRANCH  19  26
ATOM     26  C   UNL     1       3.242   0.738  -0.953  0.00  0.00    +0.381 C 
ATOM     27  O   UNL     1       3.543   0.849  -2.130  0.00  0.00    -0.244 OA
ATOM     28  O   UNL     1       2.684   1.657  -0.378  0.00  0.00    -0.244 OA
ENDBRANCH  19  26
ENDBRANCH   1  19
TORSDOF 4
