REMARK  Name = ZINC66887624
REMARK  8 active torsions:
REMARK  status: ('A' for Active; 'I' for Inactive)
REMARK    1  A    between atoms: C_1  and  C_2
REMARK    2  A    between atoms: C_2  and  C_4
REMARK    3  A    between atoms: C_2  and  N_15
REMARK    4  A    between atoms: C_7  and  S_10
REMARK    5  A    between atoms: S_10  and  N_13
REMARK    6  A    between atoms: N_13  and  C_14
REMARK    7  A    between atoms: C_16  and  C_17
REMARK    8  A    between atoms: C_19  and  N_24
REMARK                            x       y       z     vdW  Elec       q    Type
REMARK                         _______ _______ _______ _____ _____    ______ ____
ROOT
ATOM      1  C   UNL     1       0.279   1.312   0.255  0.00  0.00    +0.035 C 
ATOM      2  C   UNL     1       0.086  -0.198   0.106  0.00  0.00    +0.106 C 
ENDROOT
BRANCH   2   3
ATOM      3  C   UNL     1       0.684  -0.901   1.298  0.00  0.00    -0.025 A 
ATOM      4  C   UNL     1       2.048  -1.111   1.363  0.00  0.00    +0.007 A 
ATOM      5  C   UNL     1       2.597  -1.756   2.456  0.00  0.00    +0.029 A 
ATOM      6  C   UNL     1       1.781  -2.189   3.484  0.00  0.00    +0.105 A 
ATOM      7  C   UNL     1       0.416  -1.978   3.419  0.00  0.00    +0.029 A 
ATOM      8  C   UNL     1      -0.132  -1.330   2.328  0.00  0.00    +0.007 A 
BRANCH   6   9
ATOM      9  S   UNL     1       2.479  -3.012   4.877  0.00  0.00    +0.058 S 
ATOM     10  O   UNL     1       1.443  -3.802   5.444  0.00  0.00    -0.153 OA
ATOM     11  O   UNL     1       3.712  -3.571   4.442  0.00  0.00    -0.153 OA
BRANCH   9  12
ATOM     12  N   UNL     1       2.855  -1.850   5.994  0.00  0.00    -0.193 NA
ATOM     13  C   UNL     1       1.788  -1.063   6.620  0.00  0.00    +0.127 C 
ATOM     14  H   UNL     1       3.781  -1.689   6.235  0.00  0.00    +0.148 HD
ENDBRANCH   9  12
ENDBRANCH   6   9
ENDBRANCH   2   3
BRANCH   2  15
ATOM     15  N   UNL     1       0.751  -0.657  -1.116  0.00  0.00    -0.383 N 
ATOM     16  C   UNL     1       0.038  -1.252  -2.084  0.00  0.00    +0.090 C 
ATOM     17  H   UNL     1       1.706  -0.531  -1.225  0.00  0.00    +0.160 HD
BRANCH  16  18
ATOM     18  C   UNL     1       0.656  -1.616  -3.283  0.00  0.00    +0.039 A 
ATOM     19  C   UNL     1      -0.049  -2.343  -4.267  0.00  0.00    +0.045 A 
ATOM     20  C   UNL     1       0.570  -2.688  -5.427  0.00  0.00    +0.127 A 
ATOM     21  C   UNL     1       1.895  -2.342  -5.676  0.00  0.00    +0.036 A 
ATOM     22  C   UNL     1       2.631  -1.643  -4.769  0.00  0.00    +0.054 A 
ATOM     23  C   UNL     1       2.052  -1.247  -3.550  0.00  0.00    +0.188 A 
ATOM     24  O   UNL     1       2.699  -0.613  -2.728  0.00  0.00    -0.287 OA
BRANCH  20  25
ATOM     25  N   UNL     1      -0.183  -3.450  -6.449  0.00  0.00    +0.056 N 
ATOM     26  O   UNL     1      -1.334  -3.758  -6.247  0.00  0.00    -0.126 OA
ATOM     27  O   UNL     1       0.354  -3.764  -7.486  0.00  0.00    -0.126 OA
ENDBRANCH  20  25
ENDBRANCH  16  18
ENDBRANCH   2  15
TORSDOF 6
