REMARK  Name = ZINC26402305
REMARK  5 active torsions:
REMARK  status: ('A' for Active; 'I' for Inactive)
REMARK    1  A    between atoms: C_1  and  C_2
REMARK    2  A    between atoms: C_2  and  C_4
REMARK    3  A    between atoms: C_2  and  N_10
REMARK    4  A    between atoms: N_16  and  S_19
REMARK    5  A    between atoms: S_19  and  C_22
REMARK                            x       y       z     vdW  Elec       q    Type
REMARK                         _______ _______ _______ _____ _____    ______ ____
ROOT
ATOM      1  N   UNL     1       2.345  -2.972  -6.281  0.00  0.00    -0.294 N 
ATOM      2  C   UNL     1       1.188  -2.889  -5.596  0.00  0.00    +0.303 C 
ATOM      3  O   UNL     1       0.138  -3.170  -6.140  0.00  0.00    -0.253 OA
ATOM      4  N   UNL     1       1.195  -2.497  -4.306  0.00  0.00    -0.283 N 
ATOM      5  C   UNL     1       2.463  -2.265  -3.602  0.00  0.00    +0.126 C 
ATOM      6  C   UNL     1       2.484  -3.127  -2.333  0.00  0.00    +0.128 C 
ATOM      7  N   UNL     1       1.223  -2.923  -1.607  0.00  0.00    -0.173 NA
ATOM      8  C   UNL     1      -0.046  -3.160  -2.310  0.00  0.00    +0.128 C 
ATOM      9  C   UNL     1      -0.066  -2.293  -3.580  0.00  0.00    +0.126 C 
ATOM     10  H   UNL     1       3.303  -2.798  -5.767  0.00  0.00    +0.151 HD
ENDROOT
BRANCH   7  11
ATOM     11  S   UNL     1       1.231  -2.441  -0.022  0.00  0.00    +0.066 S 
ATOM     12  O   UNL     1       2.486  -2.837   0.516  0.00  0.00    -0.153 OA
ATOM     13  O   UNL     1      -0.005  -2.864   0.537  0.00  0.00    -0.153 OA
BRANCH  11  14
ATOM     14  C   UNL     1       1.212  -0.680  -0.013  0.00  0.00    +0.175 A 
ATOM     15  C   UNL     1       0.006   0.000   0.001  0.00  0.00    +0.152 A 
ATOM     16  C   UNL     1      -0.007   1.385   0.009  0.00  0.00    +0.040 A 
ATOM     17  C   UNL     1       1.182   2.088   0.002  0.00  0.00    +0.006 A 
ATOM     18  C   UNL     1       2.387   1.411  -0.012  0.00  0.00    +0.040 A 
ATOM     19  C   UNL     1       2.403   0.026  -0.019  0.00  0.00    +0.152 A 
ATOM     20  F   UNL     1       3.581  -0.636  -0.032  0.00  0.00    -0.203 F 
ATOM     21  F   UNL     1      -1.157  -0.687   0.007  0.00  0.00    -0.203 F 
ENDBRANCH  11  14
ENDBRANCH   7  11
BRANCH   1  23
ATOM     22  C   UNL     1       2.112  -2.011  -8.518  0.00  0.00    +0.030 C 
ATOM     23  C   UNL     1       2.329  -3.292  -7.711  0.00  0.00    +0.100 C 
BRANCH  23  24
ATOM     24  C   UNL     1       3.665  -3.925  -8.107  0.00  0.00    +0.138 C 
ATOM     25  C   UNL     1       3.615  -4.372  -9.581  0.00  0.00    +0.035 C 
ATOM     26  C   UNL     1       4.775  -3.597 -10.252  0.00  0.00    +0.031 C 
ATOM     27  C   UNL     1       5.670  -3.237  -9.039  0.00  0.00    +0.160 C 
ATOM     28  O   UNL     1       4.719  -2.955  -7.987  0.00  0.00    -0.375 OA
ENDBRANCH  23  24
ENDBRANCH   1  23
TORSDOF 4
