REMARK  Name = ZINC04106529
REMARK  10 active torsions:
REMARK  status: ('A' for Active; 'I' for Inactive)
REMARK    1  A    between atoms: C_1  and  O_2
REMARK    2  A    between atoms: O_2  and  C_3
REMARK    3  A    between atoms: C_3  and  C_5
REMARK    4  A    between atoms: C_9  and  C_29
REMARK    5  A    between atoms: C_12  and  C_14
REMARK    6  A    between atoms: C_14  and  N_55
REMARK    7  A    between atoms: N_17  and  C_20
REMARK    8  A    between atoms: C_23  and  N_26
REMARK    9  A    between atoms: C_29  and  O_31
REMARK   10  A    between atoms: O_31  and  C_32
REMARK                            x       y       z     vdW  Elec       q    Type
REMARK                         _______ _______ _______ _____ _____    ______ ____
ROOT
ATOM      1  C   UNL     1      -3.457  -0.827   1.234  0.00  0.00    +0.019 C 
ENDROOT
BRANCH   1   7
ATOM      2  C   UNL     1      -3.059   0.680  -1.175  0.00  0.00    +0.196 C 
ATOM      3  C   UNL     1      -2.695   1.543  -2.408  0.00  0.00    +0.105 C 
ATOM      4  S   UNL     1      -1.796   2.925  -1.582  0.00  0.00    -0.125 S 
ATOM      5  C   UNL     1      -1.160   1.936  -0.157  0.00  0.00    +0.244 C 
ATOM      6  N   UNL     1      -2.232   0.928  -0.006  0.00  0.00    -0.267 N 
ATOM      7  C   UNL     1      -2.432   0.274   1.155  0.00  0.00    +0.201 C 
ATOM      8  O   UNL     1      -1.786   0.572   2.138  0.00  0.00    -0.278 OA
BRANCH   2   9
ATOM      9  C   UNL     1      -4.496   0.950  -0.810  0.00  0.00    +0.328 C 
ATOM     10  O   UNL     1      -4.759   1.738   0.068  0.00  0.00    -0.249 OA
BRANCH   9  12
ATOM     11  C   UNL     1      -6.845   0.631  -1.062  0.00  0.00    +0.280 C 
ATOM     12  O   UNL     1      -5.484   0.318  -1.463  0.00  0.00    -0.467 OA
ENDBRANCH   9  12
ENDBRANCH   2   9
BRANCH   5  13
ATOM     13  C   UNL     1      -1.037   2.786   1.081  0.00  0.00    +0.338 C 
ATOM     14  O   UNL     1      -0.070   2.674   1.797  0.00  0.00    -0.248 OA
BRANCH  13  15
ATOM     15  O   UNL     1      -2.001   3.668   1.388  0.00  0.00    -0.466 OA
ATOM     16  C   UNL     1      -1.815   4.454   2.595  0.00  0.00    +0.280 C 
ENDBRANCH  13  15
ENDBRANCH   5  13
ENDBRANCH   1   7
BRANCH   1  22
ATOM     17  C   UNL     1      -2.094  -2.188   2.701  0.00  0.00    -0.059 C 
ATOM     18  C   UNL     1      -2.013  -2.788   4.107  0.00  0.00    +0.086 C 
ATOM     19  N   UNL     1      -3.144  -3.704   4.312  0.00  0.00    -0.333 N 
ATOM     20  C   UNL     1      -4.423  -2.998   4.157  0.00  0.00    +0.086 C 
ATOM     21  C   UNL     1      -4.505  -2.397   2.751  0.00  0.00    -0.059 C 
ATOM     22  N   UNL     1      -3.374  -1.463   2.566  0.00  0.00    +0.387 N 
ATOM     23  H   UNL     1      -3.423  -0.734   3.287  0.00  0.00    -0.081 HD
BRANCH  19  24
ATOM     24  C   UNL     1      -3.064  -4.326   5.559  0.00  0.00    +0.030 A 
ATOM     25  C   UNL     1      -4.117  -4.219   6.460  0.00  0.00    +0.025 A 
ATOM     26  C   UNL     1      -4.037  -4.841   7.690  0.00  0.00    +0.034 A 
ATOM     27  C   UNL     1      -2.906  -5.560   8.031  0.00  0.00    +0.126 A 
ATOM     28  C   UNL     1      -1.854  -5.664   7.140  0.00  0.00    +0.034 A 
ATOM     29  C   UNL     1      -1.930  -5.050   5.905  0.00  0.00    +0.025 A 
BRANCH  27  30
ATOM     30  N   UNL     1      -2.822  -6.221   9.353  0.00  0.00    +0.056 N 
ATOM     31  O   UNL     1      -1.827  -6.855   9.655  0.00  0.00    -0.126 OA
ATOM     32  O   UNL     1      -3.748  -6.130  10.139  0.00  0.00    -0.126 OA
ENDBRANCH  27  30
ENDBRANCH  19  24
ENDBRANCH   1  22
TORSDOF 8
