REMARK  Name = ZINC12942647
REMARK  3 active torsions:
REMARK  status: ('A' for Active; 'I' for Inactive)
REMARK    1  A    between atoms: C_7  and  S_10
REMARK    2  A    between atoms: S_10  and  C_11
REMARK    3  A    between atoms: N_15  and  C_16
REMARK                            x       y       z     vdW  Elec       q    Type
REMARK                         _______ _______ _______ _____ _____    ______ ____
ROOT
ATOM      1  S   UNL     1      -0.065  -2.206  -1.631  0.00  0.00    -0.072 S 
ENDROOT
BRANCH   1   8
ATOM      2  C   UNL     1      -0.018   1.514   0.010  0.00  0.00    +0.003 C 
ATOM      3  C   UNL     1       1.362   2.145   0.001  0.00  0.00    +0.019 C 
ATOM      4  C   UNL     1       2.077   1.871  -1.324  0.00  0.00    +0.104 C 
ATOM      5  N   UNL     1       2.768   0.575  -1.227  0.00  0.00    -0.314 N 
ATOM      6  C   UNL     1       2.071  -0.563  -1.228  0.00  0.00    +0.226 C 
ATOM      7  O   UNL     1       2.651  -1.626  -1.153  0.00  0.00    -0.275 OA
ATOM      8  C   UNL     1       0.560  -0.531  -1.323  0.00  0.00    +0.140 C 
ATOM      9  C   UNL     1       0.002  -0.004   0.002  0.00  0.00    +0.024 C 
ATOM     10  H   UNL     1       3.735   0.548  -1.162  0.00  0.00    +0.149 HD
ENDBRANCH   1   8
BRANCH   1  11
ATOM     11  C   UNL     1       0.565  -2.609  -3.227  0.00  0.00    +0.210 A 
ATOM     12  N   UNL     1       1.320  -1.844  -3.985  0.00  0.00    -0.101 NA
ATOM     13  N   UNL     1       1.603  -2.442  -5.086  0.00  0.00    -0.022 NA
ATOM     14  N   UNL     1       1.061  -3.611  -5.114  0.00  0.00    -0.043 NA
ATOM     15  N   UNL     1       0.368  -3.767  -3.900  0.00  0.00    -0.217 N 
BRANCH  15  16
ATOM     16  C   UNL     1      -0.403  -4.932  -3.460  0.00  0.00    +0.112 C 
ATOM     17  C   UNL     1       0.491  -6.189  -3.460  0.00  0.00    +0.027 C 
ATOM     18  C   UNL     1      -0.449  -7.324  -3.935  0.00  0.00    +0.002 C 
ATOM     19  C   UNL     1      -1.313  -6.624  -5.013  0.00  0.00    +0.002 C 
ATOM     20  C   UNL     1      -1.550  -5.209  -4.447  0.00  0.00    +0.027 C 
ENDBRANCH  15  16
ENDBRANCH   1  11
TORSDOF 3
