REMARK  Name = ZINC16576119
REMARK  10 active torsions:
REMARK  status: ('A' for Active; 'I' for Inactive)
REMARK    1  A    between atoms: C_1  and  C_2
REMARK    2  A    between atoms: C_2  and  C_4
REMARK    3  A    between atoms: C_2  and  N_58
REMARK    4  A    between atoms: C_14  and  C_15
REMARK    5  A    between atoms: C_14  and  N_58
REMARK    6  A    between atoms: C_17  and  O_27
REMARK    7  A    between atoms: C_18  and  O_22
REMARK    8  A    between atoms: O_22  and  C_23
REMARK    9  A    between atoms: C_23  and  C_24
REMARK   10  A    between atoms: O_27  and  C_28
REMARK                            x       y       z     vdW  Elec       q    Type
REMARK                         _______ _______ _______ _____ _____    ______ ____
ROOT
ATOM      1  C   UNL     1       0.492   3.588   1.846  0.00  0.00    -0.046 C 
ENDROOT
BRANCH   1   2
ATOM      2  C   UNL     1       0.435   5.094   1.837  0.00  0.00    -0.060 A 
ATOM      3  C   UNL     1      -0.087   5.771   2.924  0.00  0.00    +0.051 A 
ATOM      4  C   UNL     1      -0.140   7.155   2.919  0.00  0.00    +0.163 A 
ATOM      5  C   UNL     1       0.334   7.862   1.818  0.00  0.00    +0.176 A 
ATOM      6  C   UNL     1       0.856   7.178   0.731  0.00  0.00    +0.063 A 
ATOM      7  C   UNL     1       0.910   5.796   0.745  0.00  0.00    +0.021 A 
ATOM      8 BR   UNL     1       1.500   8.135  -0.768  0.00  0.00    -0.046 Br
BRANCH   4   9
ATOM      9  O   UNL     1      -0.653   7.822   3.987  0.00  0.00    -0.491 OA
ATOM     10  C   UNL     1      -1.119   7.031   5.082  0.00  0.00    +0.277 C 
ENDBRANCH   4   9
BRANCH   5  11
ATOM     11  O   UNL     1       0.283   9.222   1.808  0.00  0.00    -0.478 OA
BRANCH  11  12
ATOM     12  C   UNL     1       1.417   9.917   2.330  0.00  0.00    +0.324 C 
BRANCH  12  13
ATOM     13  C   UNL     1       1.182  11.402   2.237  0.00  0.00    +0.248 C 
ATOM     14  O   UNL     1       0.146  11.824   1.769  0.00  0.00    -0.272 OA
ATOM     15  N   UNL     1       2.124  12.262   2.674  0.00  0.00    -0.327 N 
ATOM     16  H   UNL     1       2.953  11.924   3.048  0.00  0.00    +0.145 HD
ATOM     17  H   UNL     1       1.973  13.218   2.614  0.00  0.00    +0.145 HD
ENDBRANCH  12  13
ENDBRANCH  11  12
ENDBRANCH   5  11
ENDBRANCH   1   2
BRANCH   1  18
ATOM     18  N   UNL     1      -0.757   3.054   1.271  0.00  0.00    +0.384 N 
ATOM     19  H   UNL     1      -1.553   3.376   1.834  0.00  0.00    -0.085 HD
ATOM     20  H   UNL     1      -0.859   3.394   0.308  0.00  0.00    -0.085 HD
BRANCH  18  22
ATOM     21  C   UNL     1      -0.013   1.086   0.008  0.00  0.00    -0.013 C 
ATOM     22  C   UNL     1      -0.729   1.579   1.267  0.00  0.00    -0.068 C 
BRANCH  22  23
ATOM     23  C   UNL     1      -2.164   1.050   1.278  0.00  0.00    -0.041 C 
ATOM     24  C   UNL     1      -2.904   1.556   0.038  0.00  0.00    +0.009 C 
ATOM     25  C   UNL     1      -4.340   1.027   0.049  0.00  0.00    -0.010 C 
ATOM     26  C   UNL     1      -4.319  -0.503   0.041  0.00  0.00    +0.007 C 
ATOM     27  C   UNL     1      -3.579  -1.010   1.280  0.00  0.00    -0.010 C 
ATOM     28  C   UNL     1      -2.143  -0.480   1.269  0.00  0.00    +0.009 C 
ATOM     29  C   UNL     1      -4.295  -0.516   2.539  0.00  0.00    +0.007 C 
ATOM     30  C   UNL     1      -4.316   1.014   2.547  0.00  0.00    -0.010 C 
ATOM     31  C   UNL     1      -5.056   1.520   1.308  0.00  0.00    +0.007 C 
ATOM     32  C   UNL     1      -2.880   1.543   2.537  0.00  0.00    +0.009 C 
ENDBRANCH  22  23
ENDBRANCH  18  22
ENDBRANCH   1  18
TORSDOF 8
