REMARK  Name = ZINC63667509
REMARK  5 active torsions:
REMARK  status: ('A' for Active; 'I' for Inactive)
REMARK    1  A    between atoms: C_6  and  C_10
REMARK    2  A    between atoms: C_10  and  C_11
REMARK    3  A    between atoms: N_13  and  N_14
REMARK    4  A    between atoms: C_15  and  C_16
REMARK    5  A    between atoms: C_21  and  O_22
REMARK                            x       y       z     vdW  Elec       q    Type
REMARK                         _______ _______ _______ _____ _____    ______ ____
ROOT
ATOM      1  C   UNL     1       3.024  -4.202  -1.290  0.00  0.00    +0.236 C 
ATOM      2  O   UNL     1       2.346  -4.592  -0.363  0.00  0.00    -0.274 OA
ATOM      3  N   UNL     1       3.315  -5.034  -2.310  0.00  0.00    -0.207 N 
ATOM      4  H   UNL     1       3.857  -4.722  -3.051  0.00  0.00    +0.177 HD
ENDROOT
BRANCH   3   5
ATOM      5  N   UNL     1       2.834  -6.350  -2.300  0.00  0.00    -0.188 NA
ATOM      6  C   UNL     1       3.114  -7.151  -3.281  0.00  0.00    +0.142 C 
BRANCH   6   7
ATOM      7  C   UNL     1       2.608  -8.535  -3.270  0.00  0.00    +0.037 A 
ATOM      8  C   UNL     1       2.912  -9.402  -4.322  0.00  0.00    +0.028 A 
ATOM      9  C   UNL     1       2.435 -10.697  -4.306  0.00  0.00    +0.019 A 
ATOM     10  C   UNL     1       1.656 -11.140  -3.249  0.00  0.00    +0.019 A 
ATOM     11  C   UNL     1       1.349 -10.291  -2.203  0.00  0.00    +0.047 A 
ATOM     12  C   UNL     1       1.824  -8.990  -2.201  0.00  0.00    +0.126 A 
ATOM     13 BR   UNL     1       2.846 -11.871  -5.730  0.00  0.00    -0.050 Br
BRANCH  12  14
ATOM     14  O   UNL     1       1.527  -8.157  -1.171  0.00  0.00    -0.506 OA
ATOM     15  H   UNL     1       0.711  -7.653  -1.295  0.00  0.00    +0.292 HD
ENDBRANCH  12  14
ENDBRANCH   6   7
ENDBRANCH   3   5
BRANCH   1  16
ATOM     16  C   UNL     1       3.542  -2.787  -1.302  0.00  0.00    +0.144 C 
BRANCH  16  22
ATOM     17  C   UNL     1      -0.016   1.344   0.009  0.00  0.00    +0.002 A 
ATOM     18  C   UNL     1       1.158   2.118   0.002  0.00  0.00    +0.002 A 
ATOM     19  C   UNL     1       2.389   1.570  -0.013  0.00  0.00    +0.027 A 
ATOM     20  C   UNL     1       2.533   0.108  -0.022  0.00  0.00    +0.060 A 
ATOM     21  N   UNL     1       3.569  -0.680  -0.036  0.00  0.00    -0.363 N 
ATOM     22  C   UNL     1       3.071  -2.062  -0.039  0.00  0.00    +0.183 C 
ATOM     23  N   UNL     1       1.606  -1.974  -0.024  0.00  0.00    -0.363 N 
ATOM     24  C   UNL     1       1.290  -0.712  -0.014  0.00  0.00    +0.060 A 
ATOM     25  C   UNL     1       0.002  -0.004   0.002  0.00  0.00    +0.027 A 
ATOM     26  H   UNL     1       4.499  -0.405  -0.045  0.00  0.00    +0.162 HD
ATOM     27  H   UNL     1       0.987  -2.721  -0.022  0.00  0.00    +0.162 HD
ENDBRANCH  16  22
ENDBRANCH   1  16
TORSDOF 5
