REMARK  Name = ZINC32416952
REMARK  6 active torsions:
REMARK  status: ('A' for Active; 'I' for Inactive)
REMARK    1  A    between atoms: C_1  and  C_2
REMARK    2  A    between atoms: C_7  and  S_8
REMARK    3  A    between atoms: S_8  and  N_11
REMARK    4  A    between atoms: N_14  and  C_17
REMARK    5  A    between atoms: C_17  and  C_18
REMARK    6  A    between atoms: C_25  and  C_27
REMARK                            x       y       z     vdW  Elec       q    Type
REMARK                         _______ _______ _______ _____ _____    ______ ____
ROOT
ATOM      1  N   UNL     1       7.365  -3.200  -1.328  0.00  0.00    -0.180 NA
ATOM      2  C   UNL     1       7.598  -1.995  -2.139  0.00  0.00    +0.091 C 
ATOM      3  C   UNL     1       6.775  -0.845  -1.548  0.00  0.00    -0.061 C 
ATOM      4  N   UNL     1       5.370  -1.258  -1.439  0.00  0.00    +0.387 N 
ATOM      5  C   UNL     1       5.217  -2.387  -0.511  0.00  0.00    -0.061 C 
ATOM      6  C   UNL     1       5.975  -3.600  -1.059  0.00  0.00    +0.091 C 
ATOM      7  H   UNL     1       5.041  -1.595  -2.433  0.00  0.00    -0.081 HD
ENDROOT
BRANCH   1   8
ATOM      8  S   UNL     1       8.634  -4.083  -0.734  0.00  0.00    +0.061 S 
ATOM      9  O   UNL     1       8.190  -5.431  -0.656  0.00  0.00    -0.153 OA
ATOM     10  O   UNL     1       9.780  -3.701  -1.482  0.00  0.00    -0.153 OA
BRANCH   8  17
ATOM     11  C   UNL     1       9.648  -1.334   0.014  0.00  0.00    +0.046 C 
ATOM     12  C   UNL     1       9.377  -2.269   1.165  0.00  0.00    -0.024 A 
ATOM     13  C   UNL     1       9.595  -1.847   2.464  0.00  0.00    +0.008 A 
ATOM     14  C   UNL     1       9.348  -2.704   3.519  0.00  0.00    +0.039 A 
ATOM     15  C   UNL     1       8.882  -3.985   3.277  0.00  0.00    +0.125 A 
ATOM     16  C   UNL     1       8.659  -4.404   1.976  0.00  0.00    +0.067 A 
ATOM     17  C   UNL     1       8.912  -3.548   0.921  0.00  0.00    +0.111 A 
ATOM     18  F   UNL     1       8.640  -4.823   4.308  0.00  0.00    -0.205 F 
ENDBRANCH   8  17
ENDBRANCH   1   8
BRANCH   4  19
ATOM     19  C   UNL     1       4.519  -0.129  -1.039  0.00  0.00    +0.019 C 
BRANCH  19  20
ATOM     20  C   UNL     1       3.070  -0.520  -1.174  0.00  0.00    +0.199 C 
ATOM     21  O   UNL     1       2.775  -1.630  -1.564  0.00  0.00    -0.278 OA
ATOM     22  N   UNL     1       2.101   0.364  -0.861  0.00  0.00    -0.300 N 
ATOM     23  C   UNL     1       2.439   1.746  -0.496  0.00  0.00    +0.108 C 
ATOM     24  C   UNL     1       1.793   2.073   0.854  0.00  0.00    +0.019 C 
ATOM     25  C   UNL     1       0.290   1.792   0.777  0.00  0.00    +0.003 C 
ATOM     26  C   UNL     1       0.061   0.309   0.477  0.00  0.00    +0.022 C 
ATOM     27  C   UNL     1       0.688  -0.037  -0.877  0.00  0.00    +0.073 C 
ATOM     28  C   UNL     1       0.582  -1.544  -1.121  0.00  0.00    +0.028 C 
ENDBRANCH  19  20
ENDBRANCH   4  19
TORSDOF 4
