REMARK  Name = ZINC07944952
REMARK  6 active torsions:
REMARK  status: ('A' for Active; 'I' for Inactive)
REMARK    1  A    between atoms: N_9  and  N_12
REMARK    2  A    between atoms: C_13  and  C_14
REMARK    3  A    between atoms: C_17  and  O_24
REMARK    4  A    between atoms: C_19  and  O_20
REMARK    5  A    between atoms: O_20  and  C_21
REMARK    6  A    between atoms: O_24  and  C_25
REMARK                            x       y       z     vdW  Elec       q    Type
REMARK                         _______ _______ _______ _____ _____    ______ ____
ROOT
ATOM      1  C   UNL     1       4.754   1.914  -0.241  0.00  0.00    +0.037 A 
ATOM      2  C   UNL     1       5.809   2.824  -0.351  0.00  0.00    +0.016 A 
ATOM      3  C   UNL     1       7.103   2.365  -0.469  0.00  0.00    +0.047 A 
ATOM      4  C   UNL     1       7.364   1.000  -0.478  0.00  0.00    +0.130 A 
ATOM      5  C   UNL     1       6.323   0.089  -0.368  0.00  0.00    +0.092 A 
ATOM      6  C   UNL     1       5.020   0.537  -0.244  0.00  0.00    +0.139 A 
ENDROOT
BRANCH   1   8
ATOM      7  N   UNL     1       2.391   1.553  -0.012  0.00  0.00    -0.177 NA
ATOM      8  C   UNL     1       3.370   2.400  -0.115  0.00  0.00    +0.142 C 
BRANCH   7  17
ATOM      9  C   UNL     1      -3.036   4.159   0.051  0.00  0.00    +0.001 A 
ATOM     10  C   UNL     1      -3.487   2.852   0.038  0.00  0.00    +0.001 A 
ATOM     11  C   UNL     1      -2.587   1.798   0.020  0.00  0.00    +0.014 A 
ATOM     12  C   UNL     1      -1.226   2.057   0.015  0.00  0.00    +0.051 A 
ATOM     13  C   UNL     1      -0.766   3.389   0.034  0.00  0.00    +0.051 A 
ATOM     14  C   UNL     1      -1.677   4.433   0.047  0.00  0.00    +0.014 A 
ATOM     15  C   UNL     1       0.710   3.307   0.019  0.00  0.00    +0.274 C 
ATOM     16  O   UNL     1       1.473   4.252   0.026  0.00  0.00    -0.268 OA
ATOM     17  N   UNL     1       1.067   2.010   0.001  0.00  0.00    -0.119 N 
ATOM     18  C   UNL     1      -0.014   1.210  -0.002  0.00  0.00    +0.274 C 
ATOM     19  O   UNL     1       0.002  -0.004  -0.016  0.00  0.00    -0.268 OA
ENDBRANCH   7  17
ENDBRANCH   1   8
BRANCH   6  20
ATOM     20  O   UNL     1       4.001  -0.353  -0.131  0.00  0.00    -0.433 OA
BRANCH  20  21
ATOM     21  C   UNL     1       4.346  -1.740  -0.142  0.00  0.00    +0.541 C 
ATOM     22  F   UNL     1       4.986  -2.051  -1.347  0.00  0.00    -0.166 F 
ATOM     23  F   UNL     1       5.206  -2.014   0.927  0.00  0.00    -0.166 F 
ENDBRANCH  20  21
ENDBRANCH   6  20
BRANCH   4  24
ATOM     24  O   UNL     1       8.642   0.555  -0.594  0.00  0.00    -0.434 OA
BRANCH  24  25
ATOM     25  C   UNL     1       9.666   1.546  -0.703  0.00  0.00    +0.541 C 
ATOM     26  F   UNL     1       9.436   2.332  -1.838  0.00  0.00    -0.166 F 
ATOM     27  F   UNL     1       9.652   2.358   0.437  0.00  0.00    -0.166 F 
ENDBRANCH  24  25
ENDBRANCH   4  24
TORSDOF 6
