REMARK  Name = ZINC36503309
REMARK  17 active torsions:
REMARK  status: ('A' for Active; 'I' for Inactive)
REMARK    1  A    between atoms: C_1  and  C_2
REMARK    2  A    between atoms: C_2  and  C_3
REMARK    3  A    between atoms: C_2  and  C_4
REMARK    4  A    between atoms: C_2  and  C_5
REMARK    5  A    between atoms: C_5  and  C_6
REMARK    6  A    between atoms: C_6  and  C_7
REMARK    7  A    between atoms: C_6  and  C_8
REMARK    8  A    between atoms: C_6  and  N_9
REMARK    9  A    between atoms: C_10  and  C_12
REMARK   10  A    between atoms: C_12  and  C_14
REMARK   11  A    between atoms: C_12  and  N_23
REMARK   12  A    between atoms: C_15  and  O_22
REMARK   13  A    between atoms: C_17  and  O_21
REMARK   14  A    between atoms: C_19  and  O_20
REMARK   15  A    between atoms: N_23  and  C_24
REMARK   16  A    between atoms: C_24  and  C_25
REMARK   17  A    between atoms: C_30  and  C_32
REMARK                            x       y       z     vdW  Elec       q    Type
REMARK                         _______ _______ _______ _____ _____    ______ ____
ROOT
ATOM      1  C   UNL     1       5.065   0.196  -4.707  0.00  0.00    +0.200 C 
ENDROOT
BRANCH   1   2
ATOM      2  C   UNL     1       4.988  -1.094  -5.482  0.00  0.00    +0.065 A 
ATOM      3  C   UNL     1       5.687  -2.209  -5.044  0.00  0.00    +0.129 A 
ATOM      4  C   UNL     1       5.617  -3.396  -5.758  0.00  0.00    +0.091 A 
ATOM      5  C   UNL     1       4.848  -3.468  -6.910  0.00  0.00    +0.124 A 
ATOM      6  C   UNL     1       4.148  -2.353  -7.347  0.00  0.00    +0.091 A 
ATOM      7  C   UNL     1       4.215  -1.167  -6.631  0.00  0.00    +0.129 A 
BRANCH   7   8
ATOM      8  O   UNL     1       3.526  -0.076  -7.057  0.00  0.00    -0.506 OA
ATOM      9  H   UNL     1       4.022   0.489  -7.665  0.00  0.00    +0.292 HD
ENDBRANCH   7   8
BRANCH   5  10
ATOM     10  O   UNL     1       4.779  -4.630  -7.609  0.00  0.00    -0.507 OA
ATOM     11  H   UNL     1       4.062  -5.216  -7.330  0.00  0.00    +0.292 HD
ENDBRANCH   5  10
BRANCH   3  12
ATOM     12  O   UNL     1       6.441  -2.138  -3.916  0.00  0.00    -0.506 OA
ATOM     13  H   UNL     1       5.992  -2.461  -3.122  0.00  0.00    +0.292 HD
ENDBRANCH   3  12
ENDBRANCH   1   2
BRANCH   1  15
ATOM     14  N   UNL     1       3.175  -0.453  -3.248  0.00  0.00    -0.308 N 
ATOM     15  C   UNL     1       4.439   0.004  -3.349  0.00  0.00    +0.239 C 
ATOM     16  O   UNL     1       5.073   0.260  -2.347  0.00  0.00    -0.273 OA
ATOM     17  H   UNL     1       2.668  -0.658  -4.050  0.00  0.00    +0.149 HD
BRANCH  14  18
ATOM     18  C   UNL     1       2.567  -0.640  -1.929  0.00  0.00    +0.030 C 
ATOM     19  C   UNL     1       2.756   0.629  -1.095  0.00  0.00    +0.031 C 
ATOM     20  C   UNL     1       3.236  -1.820  -1.221  0.00  0.00    +0.031 C 
BRANCH  18  21
ATOM     21  C   UNL     1       1.072  -0.925  -2.092  0.00  0.00    +0.031 C 
BRANCH  21  23
ATOM     22  C   UNL     1       0.716  -0.560  -4.537  0.00  0.00    +0.010 C 
ATOM     23  C   UNL     1       0.485   0.021  -3.141  0.00  0.00    -0.036 C 
ATOM     24  C   UNL     1       1.168   1.386  -3.037  0.00  0.00    +0.010 C 
ATOM     25  C   UNL     1      -1.017   0.183  -2.898  0.00  0.00    +0.010 C 
ENDBRANCH  21  23
ENDBRANCH  18  21
ENDBRANCH  14  18
ENDBRANCH   1  15
BRANCH   1  26
ATOM     26  N   UNL     1       6.467   0.587  -4.547  0.00  0.00    -0.277 N 
ATOM     27  C   UNL     1       7.316   0.496  -5.590  0.00  0.00    +0.231 C 
ATOM     28  O   UNL     1       8.497   0.721  -5.433  0.00  0.00    -0.274 OA
BRANCH  27  29
ATOM     29  C   UNL     1       6.796   0.115  -6.952  0.00  0.00    +0.204 C 
ATOM     30 CL   UNL     1       8.125   0.253  -8.163  0.00  0.00    -0.116 Cl
ENDBRANCH  27  29
BRANCH  26  31
ATOM     31  C   UNL     1       6.948   1.078  -3.252  0.00  0.00    +0.183 C 
BRANCH  31  32
ATOM     32  C   UNL     1       7.499  -0.074  -2.452  0.00  0.00    +0.122 A 
ATOM     33  C   UNL     1       8.668  -0.700  -2.677  0.00  0.00    +0.046 A 
ATOM     34  C   UNL     1       8.787  -1.712  -1.697  0.00  0.00    +0.041 A 
ATOM     35  C   UNL     1       7.683  -1.643  -0.931  0.00  0.00    +0.195 A 
ATOM     36  O   UNL     1       6.909  -0.646  -1.390  0.00  0.00    -0.466 OA
ENDBRANCH  31  32
ENDBRANCH  26  31
ENDBRANCH   1  26
TORSDOF 12
