REMARK  Name = ZINC14474189
REMARK  6 active torsions:
REMARK  status: ('A' for Active; 'I' for Inactive)
REMARK    1  A    between atoms: C_4  and  C_7
REMARK    2  A    between atoms: C_7  and  N_8
REMARK    3  A    between atoms: N_8  and  S_9
REMARK    4  A    between atoms: S_9  and  C_12
REMARK    5  A    between atoms: C_25  and  C_28
REMARK    6  A    between atoms: C_33  and  O_34
REMARK                            x       y       z     vdW  Elec       q    Type
REMARK                         _______ _______ _______ _____ _____    ______ ____
ROOT
ATOM      1  C   UNL     1       0.224  -2.969   1.982  0.00  0.00    +0.106 A 
ATOM      2  C   UNL     1       0.309  -3.216   0.624  0.00  0.00    +0.030 A 
ATOM      3  C   UNL     1       0.986  -2.331  -0.191  0.00  0.00    +0.025 A 
ATOM      4  C   UNL     1       1.576  -1.197   0.354  0.00  0.00    +0.031 A 
ATOM      5  C   UNL     1       1.492  -0.945   1.715  0.00  0.00    -0.018 A 
ATOM      6  C   UNL     1       0.810  -1.844   2.524  0.00  0.00    +0.034 A 
ATOM      7  C   UNL     1       2.111   0.262   2.345  0.00  0.00    +0.049 C 
ATOM      8  C   UNL     1       1.056   1.287   2.688  0.00  0.00    -0.023 C 
ATOM      9  C   UNL     1       1.519   2.497   2.489  0.00  0.00    -0.030 C 
ATOM     10  C   UNL     1       2.950   2.444   1.991  0.00  0.00    +0.033 C 
ATOM     11  C   UNL     1       3.073   1.008   1.400  0.00  0.00    +0.029 C 
ATOM     12  C   UNL     1       2.490   1.047  -0.015  0.00  0.00    +0.108 C 
ATOM     13  N   UNL     1       2.278  -0.328  -0.479  0.00  0.00    -0.336 N 
ATOM     14  H   UNL     1       2.600  -0.615  -1.349  0.00  0.00    +0.147 HD
ENDROOT
BRANCH  12  15
ATOM     15  C   UNL     1       1.175   1.782   0.000  0.00  0.00    +0.014 A 
ATOM     16  C   UNL     1      -0.000   1.093   0.230  0.00  0.00    +0.009 A 
ATOM     17  C   UNL     1      -1.208   1.766   0.240  0.00  0.00    +0.001 A 
ATOM     18  C   UNL     1      -1.241   3.133   0.030  0.00  0.00    +0.004 A 
ATOM     19  C   UNL     1      -0.069   3.827  -0.200  0.00  0.00    +0.046 A 
ATOM     20  C   UNL     1       1.143   3.152  -0.215  0.00  0.00    +0.122 A 
BRANCH  20  21
ATOM     21  O   UNL     1       2.298   3.832  -0.442  0.00  0.00    -0.506 OA
ATOM     22  H   UNL     1       2.543   3.890  -1.375  0.00  0.00    +0.292 HD
ENDBRANCH  20  21
ENDBRANCH  12  15
BRANCH   1  23
ATOM     23  S   UNL     1      -0.639  -4.097   3.026  0.00  0.00    +0.059 S 
ATOM     24  O   UNL     1      -1.043  -3.362   4.173  0.00  0.00    -0.153 OA
ATOM     25  O   UNL     1      -1.564  -4.789   2.200  0.00  0.00    -0.153 OA
BRANCH  23  26
ATOM     26  N   UNL     1       0.461  -5.220   3.548  0.00  0.00    -0.186 NA
ATOM     27  H   UNL     1       0.369  -6.149   3.283  0.00  0.00    +0.148 HD
BRANCH  26  28
ATOM     28  C   UNL     1       1.573  -4.811   4.409  0.00  0.00    +0.141 C 
BRANCH  28  32
ATOM     29  C   UNL     1       3.347  -8.268   6.183  0.00  0.00    +0.000 A 
ATOM     30  C   UNL     1       3.811  -7.800   4.969  0.00  0.00    +0.000 A 
ATOM     31  C   UNL     1       3.237  -6.681   4.395  0.00  0.00    +0.005 A 
ATOM     32  C   UNL     1       2.199  -6.031   5.035  0.00  0.00    -0.032 A 
ATOM     33  C   UNL     1       1.738  -6.497   6.252  0.00  0.00    +0.005 A 
ATOM     34  C   UNL     1       2.309  -7.618   6.824  0.00  0.00    +0.000 A 
ENDBRANCH  28  32
ENDBRANCH  26  28
ENDBRANCH  23  26
ENDBRANCH   1  23
TORSDOF 6
