REMARK  Name = ZINC04475154
REMARK  14 active torsions:
REMARK  status: ('A' for Active; 'I' for Inactive)
REMARK    1  A    between atoms: C_1  and  C_2
REMARK    2  A    between atoms: C_7  and  C_8
REMARK    3  A    between atoms: C_8  and  C_10
REMARK    4  A    between atoms: C_8  and  C_34
REMARK    5  A    between atoms: C_10  and  N_11
REMARK    6  A    between atoms: N_18  and  C1*_21
REMARK    7  A    between atoms: C2*_23  and  O2*_33
REMARK    8  A    between atoms: C3*_25  and  O3*_32
REMARK    9  A    between atoms: C4*_27  and  C5*_30
REMARK   10  A    between atoms: C5*_30  and  O5*_31
REMARK   11  A    between atoms: C_36  and  O_42
REMARK   12  A    between atoms: C_38  and  O_40
REMARK   13  A    between atoms: O_40  and  C_41
REMARK   14  A    between atoms: O_42  and  C_43
REMARK                            x       y       z     vdW  Elec       q    Type
REMARK                         _______ _______ _______ _____ _____    ______ ____
ROOT
ATOM      1  N   UNL     1       0.931   3.773   0.663  0.00  0.00    -0.326 N 
ATOM      2  C   UNL     1       1.613   2.624   1.022  0.00  0.00    +0.150 A 
ATOM      3  C   UNL     1       0.969   1.375   1.017  0.00  0.00    +0.147 A 
ATOM      4  C   UNL     1       1.714   0.243   1.390  0.00  0.00    +0.167 A 
ATOM      5  N   UNL     1       2.990   0.393   1.731  0.00  0.00    -0.216 NA
ATOM      6  C   UNL     1       3.551   1.584   1.721  0.00  0.00    +0.225 A 
ATOM      7  N   UNL     1       2.892   2.676   1.378  0.00  0.00    -0.219 NA
ATOM      8  N   UNL     1       0.854  -0.822   1.298  0.00  0.00    -0.286 N 
ATOM      9  C   UNL     1      -0.352  -0.340   0.887  0.00  0.00    +0.203 A 
ATOM     10  N   UNL     1      -0.283   0.949   0.722  0.00  0.00    -0.231 NA
ATOM     11  H   UNL     1       0.157   3.802   1.296  0.00  0.00    +0.148 HD
ENDROOT
BRANCH   8  12
ATOM     12  C1* UNL     1       1.175  -2.222   1.589  0.00  0.00    +0.253 C 
ATOM     13  C2* UNL     1       0.970  -2.528   3.094  0.00  0.00    +0.195 C 
ATOM     14  C3* UNL     1       0.722  -4.056   3.083  0.00  0.00    +0.178 C 
ATOM     15  C4* UNL     1       0.280  -4.357   1.638  0.00  0.00    +0.177 C 
ATOM     16  O4* UNL     1       0.240  -3.104   0.931  0.00  0.00    -0.346 OA
BRANCH  14  17
ATOM     17  O3* UNL     1       1.926  -4.760   3.395  0.00  0.00    -0.386 OA
ATOM     18  H3* UNL     1       1.828  -5.723   3.402  0.00  0.00    +0.210 HD
ENDBRANCH  14  17
BRANCH  13  19
ATOM     19  O2* UNL     1       2.143  -2.207   3.844  0.00  0.00    -0.385 OA
ATOM     20  H2* UNL     1       2.063  -2.381   4.792  0.00  0.00    +0.210 HD
ENDBRANCH  13  19
BRANCH  15  21
ATOM     21  C5* UNL     1      -1.109  -4.999   1.641  0.00  0.00    +0.190 C 
BRANCH  21  22
ATOM     22  O5* UNL     1      -1.461  -5.380   0.310  0.00  0.00    -0.392 OA
ATOM     23  H5* UNL     1      -2.332  -5.794   0.236  0.00  0.00    +0.210 HD
ENDBRANCH  21  22
ENDBRANCH  15  21
ENDBRANCH   8  12
BRANCH   1  24
ATOM     24  C   UNL     1       1.619   5.067   0.674  0.00  0.00    +0.115 C 
BRANCH  24  25
ATOM     25  C   UNL     1       0.646   6.165   0.240  0.00  0.00    +0.066 C 
BRANCH  25  32
ATOM     26  C   UNL     1      -2.116   5.994  -0.589  0.00  0.00    +0.044 C 
ATOM     27  C   UNL     1      -1.777   6.210   0.864  0.00  0.00    -0.047 A 
ATOM     28  C   UNL     1      -2.788   6.325   1.800  0.00  0.00    +0.003 A 
ATOM     29  C   UNL     1      -2.477   6.523   3.132  0.00  0.00    +0.000 A 
ATOM     30  C   UNL     1      -1.155   6.605   3.529  0.00  0.00    +0.000 A 
ATOM     31  C   UNL     1      -0.145   6.484   2.594  0.00  0.00    +0.004 A 
ATOM     32  C   UNL     1      -0.456   6.292   1.260  0.00  0.00    -0.036 A 
ENDBRANCH  25  32
BRANCH  25  33
ATOM     33  C   UNL     1       1.383   7.475   0.132  0.00  0.00    -0.032 A 
ATOM     34  C   UNL     1       2.145   7.928   1.192  0.00  0.00    +0.050 A 
ATOM     35  C   UNL     1       2.829   9.131   1.093  0.00  0.00    +0.124 A 
ATOM     36  C   UNL     1       2.740   9.884  -0.067  0.00  0.00    +0.091 A 
ATOM     37  C   UNL     1       1.971   9.431  -1.127  0.00  0.00    +0.124 A 
ATOM     38  C   UNL     1       1.292   8.225  -1.025  0.00  0.00    +0.050 A 
BRANCH  37  39
ATOM     39  O   UNL     1       1.881  10.167  -2.266  0.00  0.00    -0.495 OA
ATOM     40  C   UNL     1       2.606  11.398  -2.302  0.00  0.00    +0.277 C 
ENDBRANCH  37  39
BRANCH  35  41
ATOM     41  O   UNL     1       3.583   9.572   2.135  0.00  0.00    -0.495 OA
ATOM     42  C   UNL     1       4.256  10.821   1.964  0.00  0.00    +0.277 C 
ENDBRANCH  35  41
ENDBRANCH  25  33
ENDBRANCH  24  25
ENDBRANCH   1  24
TORSDOF 11
