REMARK  Name = ZINC33292282
REMARK  8 active torsions:
REMARK  status: ('A' for Active; 'I' for Inactive)
REMARK    1  A    between atoms: C_1  and  C_2
REMARK    2  A    between atoms: C_2  and  N_3
REMARK    3  A    between atoms: C_7  and  C_9
REMARK    4  A    between atoms: C_9  and  N_10
REMARK    5  A    between atoms: C_11  and  C_13
REMARK    6  A    between atoms: C_16  and  C_18
REMARK    7  A    between atoms: C_21  and  S_24
REMARK    8  A    between atoms: S_24  and  N_27
REMARK                            x       y       z     vdW  Elec       q    Type
REMARK                         _______ _______ _______ _____ _____    ______ ____
ROOT
ATOM      1  C   UNL     1       5.169   3.727  -0.622  0.00  0.00    +0.304 A 
ATOM      2  N   UNL     1       5.821   2.612  -0.869  0.00  0.00    -0.102 NA
ATOM      3  N   UNL     1       4.978   1.661  -1.069  0.00  0.00    -0.107 NA
ATOM      4  C   UNL     1       3.752   2.133  -0.959  0.00  0.00    +0.249 A 
ATOM      5  O   UNL     1       3.850   3.445  -0.680  0.00  0.00    -0.412 OA
ENDROOT
BRANCH   4   6
ATOM      6  C   UNL     1       2.502   1.364  -1.117  0.00  0.00    +0.039 A 
ATOM      7  C   UNL     1       1.265   1.997  -0.971  0.00  0.00    +0.015 A 
ATOM      8  C   UNL     1       0.101   1.272  -1.121  0.00  0.00    +0.029 A 
ATOM      9  C   UNL     1       0.156  -0.079  -1.415  0.00  0.00    +0.106 A 
ATOM     10  C   UNL     1       1.378  -0.712  -1.560  0.00  0.00    +0.029 A 
ATOM     11  C   UNL     1       2.550   0.000  -1.413  0.00  0.00    +0.015 A 
BRANCH   9  12
ATOM     12  S   UNL     1      -1.336  -0.996  -1.604  0.00  0.00    +0.061 S 
ATOM     13  O   UNL     1      -1.014  -2.354  -1.337  0.00  0.00    -0.153 OA
ATOM     14  O   UNL     1      -2.338  -0.295  -0.881  0.00  0.00    -0.153 OA
BRANCH  12  15
ATOM     15  N   UNL     1      -1.761  -0.916  -3.203  0.00  0.00    -0.177 NA
ATOM     16  C   UNL     1      -2.621   0.110  -3.810  0.00  0.00    +0.109 C 
ATOM     17  C   UNL     1      -2.756  -0.233  -5.308  0.00  0.00    +0.018 C 
ATOM     18  C   UNL     1      -2.435  -1.750  -5.345  0.00  0.00    +0.018 C 
ATOM     19  C   UNL     1      -1.344  -1.864  -4.251  0.00  0.00    +0.109 C 
ENDBRANCH  12  15
ENDBRANCH   9  12
ENDBRANCH   4   6
BRANCH   1  21
ATOM     20  N   UNL     1       7.108   5.182  -0.320  0.00  0.00    -0.309 N 
ATOM     21  C   UNL     1       5.768   5.042  -0.341  0.00  0.00    +0.301 C 
ATOM     22  O   UNL     1       5.053   6.003  -0.128  0.00  0.00    -0.265 OA
ATOM     23  H   UNL     1       7.755   4.313  -0.512  0.00  0.00    +0.149 HD
BRANCH  20  24
ATOM     24  C   UNL     1       7.704   6.491  -0.040  0.00  0.00    +0.089 C 
BRANCH  24  29
ATOM     25  N   UNL     1       9.569   5.441   1.193  0.00  0.00    +0.382 N 
ATOM     26  C   UNL     1      10.785   5.952   1.851  0.00  0.00    -0.078 C 
ATOM     27  C   UNL     1      11.192   7.247   1.118  0.00  0.00    -0.020 C 
ATOM     28  C   UNL     1       9.867   7.703   0.452  0.00  0.00    -0.016 C 
ATOM     29  C   UNL     1       9.223   6.346   0.076  0.00  0.00    -0.051 C 
ATOM     30  H   UNL     1       8.742   5.409   1.918  0.00  0.00    -0.081 HD
BRANCH  25  32
ATOM     31  C   UNL     1      10.242   3.187   1.873  0.00  0.00    -0.017 C 
ATOM     32  C   UNL     1       9.768   4.066   0.714  0.00  0.00    -0.082 C 
ENDBRANCH  25  32
ENDBRANCH  24  29
ENDBRANCH  20  24
ENDBRANCH   1  21
TORSDOF 7
