REMARK  Name = ZINC13498804
REMARK  12 active torsions:
REMARK  status: ('A' for Active; 'I' for Inactive)
REMARK    1  A    between atoms: C_1  and  C_2
REMARK    2  A    between atoms: C_2  and  C_3
REMARK    3  A    between atoms: C_2  and  C_4
REMARK    4  A    between atoms: C_4  and  C_6
REMARK    5  A    between atoms: C_4  and  N_72
REMARK    6  A    between atoms: N_10  and  C_11
REMARK    7  A    between atoms: C_17  and  C_18
REMARK    8  A    between atoms: C_17  and  N_72
REMARK    9  A    between atoms: C_18  and  C_19
REMARK   10  A    between atoms: C_19  and  O_20
REMARK   11  A    between atoms: C_21  and  C_22
REMARK   12  A    between atoms: C_21  and  N_72
REMARK                            x       y       z     vdW  Elec       q    Type
REMARK                         _______ _______ _______ _____ _____    ______ ____
ROOT
ATOM      1  N   UNL     1      -0.661   1.441   1.197  0.00  0.00    +0.389 N 
ATOM      2  H   UNL     1      -1.566   1.018   1.435  0.00  0.00    -0.080 HD
ENDROOT
BRANCH   1   3
ATOM      3  C   UNL     1      -0.141   0.805  -0.031  0.00  0.00    +0.006 C 
BRANCH   3   4
ATOM      4  C   UNL     1       1.279   1.239  -0.290  0.00  0.00    +0.139 A 
ATOM      5  N   UNL     1       2.277   1.197   0.558  0.00  0.00    -0.115 NA
ATOM      6  N   UNL     1       3.325   1.651  -0.037  0.00  0.00    -0.023 NA
ATOM      7  N   UNL     1       3.020   1.990  -1.241  0.00  0.00    -0.044 NA
ATOM      8  N   UNL     1       1.767   1.751  -1.435  0.00  0.00    -0.228 N 
BRANCH   8   9
ATOM      9  C   UNL     1       1.016   1.992  -2.670  0.00  0.00    +0.111 C 
ATOM     10  C   UNL     1       1.634   1.178  -3.809  0.00  0.00    +0.027 C 
ATOM     11  C   UNL     1       0.850   1.429  -5.099  0.00  0.00    +0.002 C 
ATOM     12  C   UNL     1       0.905   2.917  -5.448  0.00  0.00    +0.000 C 
ATOM     13  C   UNL     1       0.288   3.731  -4.309  0.00  0.00    +0.002 C 
ATOM     14  C   UNL     1       1.072   3.480  -3.019  0.00  0.00    +0.027 C 
ENDBRANCH   8   9
ENDBRANCH   3   4
BRANCH   3  16
ATOM     15  C   UNL     1      -1.607  -1.143   0.515  0.00  0.00    +0.006 C 
ATOM     16  C   UNL     1      -0.186  -0.714   0.142  0.00  0.00    -0.024 C 
ATOM     17  C   UNL     1       0.223  -1.390  -1.168  0.00  0.00    +0.006 C 
ENDBRANCH   3  16
ENDBRANCH   1   3
BRANCH   1  18
ATOM     18  C   UNL     1      -0.853   2.890   0.974  0.00  0.00    -0.075 C 
BRANCH  18  19
ATOM     19  C   UNL     1      -2.070   3.091   0.068  0.00  0.00    +0.009 C 
BRANCH  19  20
ATOM     20  C   UNL     1      -2.228   4.579  -0.251  0.00  0.00    +0.154 C 
BRANCH  20  21
ATOM     21  O   UNL     1      -3.364   4.766  -1.097  0.00  0.00    -0.395 OA
ATOM     22  H   UNL     1      -3.525   5.688  -1.341  0.00  0.00    +0.209 HD
ENDBRANCH  20  21
ENDBRANCH  19  20
ENDBRANCH  18  19
ENDBRANCH   1  18
BRANCH   1  23
ATOM     23  C   UNL     1       0.280   1.223   2.316  0.00  0.00    -0.037 C 
BRANCH  23  24
ATOM     24  C   UNL     1      -0.425   1.542   3.610  0.00  0.00    +0.001 A 
ATOM     25  C   UNL     1      -1.044   0.554   4.304  0.00  0.00    +0.017 A 
ATOM     26  C   UNL     1      -1.719   0.895   5.555  0.00  0.00    +0.002 A 
ATOM     27  C   UNL     1      -2.376  -0.083   6.313  0.00  0.00    +0.059 A 
ATOM     28  C   UNL     1      -3.006   0.270   7.487  0.00  0.00    +0.163 A 
ATOM     29  C   UNL     1      -2.989   1.597   7.925  0.00  0.00    +0.164 A 
ATOM     30  C   UNL     1      -2.341   2.570   7.183  0.00  0.00    +0.075 A 
ATOM     31  C   UNL     1      -1.703   2.232   5.997  0.00  0.00    +0.053 A 
ATOM     32  N   UNL     1      -1.054   3.190   5.244  0.00  0.00    -0.322 N 
ATOM     33  H   UNL     1      -1.043   4.111   5.549  0.00  0.00    +0.169 HD
ATOM     34  C   UNL     1      -0.433   2.864   4.097  0.00  0.00    +0.251 A 
ATOM     35  O   UNL     1       0.135   3.736   3.461  0.00  0.00    -0.268 OA
ATOM     36  O   UNL     1      -3.605   1.953   9.085  0.00  0.00    -0.485 OA
ATOM     37  C   UNL     1      -4.563   1.030   9.614  0.00  0.00    +0.270 C 
ATOM     38  C   UNL     1      -3.951  -0.376   9.573  0.00  0.00    +0.270 C 
ATOM     39  O   UNL     1      -3.645  -0.692   8.210  0.00  0.00    -0.485 OA
ENDBRANCH  23  24
ENDBRANCH   1  23
TORSDOF 10
