REMARK  Name = ZINC22167553
REMARK  5 active torsions:
REMARK  status: ('A' for Active; 'I' for Inactive)
REMARK    1  A    between atoms: C_4  and  S_8
REMARK    2  A    between atoms: C_5  and  N_7
REMARK    3  A    between atoms: S_8  and  N_11
REMARK    4  A    between atoms: N_11  and  C_12
REMARK    5  A    between atoms: C_15  and  O_18
REMARK                            x       y       z     vdW  Elec       q    Type
REMARK                         _______ _______ _______ _____ _____    ______ ____
ROOT
ATOM      1  S   UNL     1      -0.113   2.027  -3.859  0.00  0.00    +0.060 S 
ATOM      2  O   UNL     1       0.496   1.342  -4.945  0.00  0.00    -0.153 OA
ATOM      3  O   UNL     1      -1.468   2.454  -3.891  0.00  0.00    -0.153 OA
ENDROOT
BRANCH   1   7
ATOM      4  C   UNL     1       2.391   5.725  -3.089  0.00  0.00    +0.002 A 
ATOM      5  C   UNL     1       1.017   5.828  -3.211  0.00  0.00    +0.002 A 
ATOM      6  C   UNL     1       0.254   4.700  -3.446  0.00  0.00    +0.030 A 
ATOM      7  C   UNL     1       0.861   3.465  -3.560  0.00  0.00    +0.126 A 
ATOM      8  C   UNL     1       2.240   3.356  -3.433  0.00  0.00    +0.051 A 
ATOM      9  C   UNL     1       3.005   4.493  -3.202  0.00  0.00    +0.025 A 
BRANCH   8  10
ATOM     10  N   UNL     1       2.857   2.108  -3.543  0.00  0.00    -0.356 N 
ATOM     11  H   UNL     1       3.949   2.024  -3.442  0.00  0.00    +0.142 HD
ATOM     12  H   UNL     1       2.251   1.209  -3.730  0.00  0.00    +0.142 HD
ENDBRANCH   8  10
ENDBRANCH   1   7
BRANCH   1  13
ATOM     13  N   UNL     1       0.043   1.046  -2.534  0.00  0.00    -0.187 NA
ATOM     14  H   UNL     1       0.669   0.144  -2.603  0.00  0.00    +0.148 HD
BRANCH  13  15
ATOM     15  C   UNL     1      -0.464   1.487  -1.232  0.00  0.00    +0.077 C 
ATOM     16  C   UNL     1       0.466   0.985  -0.125  0.00  0.00    +0.023 C 
ATOM     17  C   UNL     1      -0.064   1.446   1.234  0.00  0.00    +0.033 C 
ATOM     18  C   UNL     1      -1.468   0.880   1.453  0.00  0.00    +0.115 C 
ATOM     19  C   UNL     1      -2.398   1.382   0.346  0.00  0.00    +0.033 C 
ATOM     20  C   UNL     1      -1.869   0.921  -1.013  0.00  0.00    +0.023 C 
BRANCH  18  21
ATOM     21  O   UNL     1      -1.963   1.310   2.722  0.00  0.00    -0.392 OA
ATOM     22  H   UNL     1      -2.965   1.001   3.056  0.00  0.00    +0.210 HD
ENDBRANCH  18  21
ENDBRANCH  13  15
ENDBRANCH   1  13
TORSDOF 5
