REMARK  Name = ZINC63514246
REMARK  9 active torsions:
REMARK  status: ('A' for Active; 'I' for Inactive)
REMARK    1  A    between atoms: C_1  and  C_2
REMARK    2  A    between atoms: C_4  and  C_14
REMARK    3  A    between atoms: C_7  and  O_12
REMARK    4  A    between atoms: O_12  and  C_13
REMARK    5  A    between atoms: C_14  and  C_15
REMARK    6  A    between atoms: C_15  and  N_16
REMARK    7  A    between atoms: C_17  and  C_19
REMARK    8  A    between atoms: C_27  and  C_34
REMARK    9  A    between atoms: C_29  and  C_30
REMARK                            x       y       z     vdW  Elec       q    Type
REMARK                         _______ _______ _______ _____ _____    ______ ____
ROOT
ATOM      1  N   UNL     1       0.997  -0.729  -4.977  0.00  0.00    -0.311 N 
ATOM      2  C   UNL     1       1.750  -1.249  -5.967  0.00  0.00    +0.245 C 
ATOM      3  O   UNL     1       2.735  -1.913  -5.698  0.00  0.00    -0.270 OA
ATOM      4  H   UNL     1       0.212  -0.201  -5.192  0.00  0.00    +0.149 HD
ENDROOT
BRANCH   2   5
ATOM      5  C   UNL     1       1.396  -1.024  -7.318  0.00  0.00    +0.073 C 
ATOM      6  H   UNL     1       1.675  -1.385 -10.450  0.00  0.00    +0.170 HD
ATOM      7  C   UNL     1       2.047  -1.483  -8.407  0.00  0.00    +0.100 C 
ATOM      8  N   UNL     1       1.447  -1.070  -9.561  0.00  0.00    -0.269 N 
ATOM      9  N   UNL     1       0.464  -0.133  -9.274  0.00  0.00    -0.220 N 
ATOM     10  C   UNL     1       0.213  -0.229  -7.818  0.00  0.00    +0.246 C 
ATOM     11  N   UNL     1       0.234   1.138  -7.289  0.00  0.00    -0.251 NA
ATOM     12  C   UNL     1      -0.089   2.147  -8.065  0.00  0.00    +0.105 C 
ATOM     13  C   UNL     1      -0.481   1.956  -9.466  0.00  0.00    +0.060 C 
ATOM     14  C   UNL     1      -0.170   0.784 -10.076  0.00  0.00    +0.132 C 
BRANCH  12  15
ATOM     15  C   UNL     1      -0.056   3.513  -7.511  0.00  0.00    +0.153 A 
ATOM     16  C   UNL     1       0.290   3.852  -6.238  0.00  0.00    +0.051 A 
ATOM     17  C   UNL     1       0.181   5.251  -6.148  0.00  0.00    +0.042 A 
ATOM     18  C   UNL     1      -0.222   5.696  -7.357  0.00  0.00    +0.196 A 
ATOM     19  O   UNL     1      -0.358   4.645  -8.178  0.00  0.00    -0.461 OA
ENDBRANCH  12  15
BRANCH  14  20
ATOM     20  C   UNL     1      -0.508   0.506 -11.518  0.00  0.00    +0.432 C 
ATOM     21  F   UNL     1      -1.146   1.621 -12.071  0.00  0.00    -0.165 F 
ATOM     22  F   UNL     1       0.668   0.241 -12.229  0.00  0.00    -0.165 F 
ATOM     23  F   UNL     1      -1.358  -0.603 -11.592  0.00  0.00    -0.165 F 
ENDBRANCH  14  20
ENDBRANCH   2   5
BRANCH   1  24
ATOM     24  C   UNL     1       1.363  -0.963  -3.578  0.00  0.00    +0.109 C 
BRANCH  24  25
ATOM     25  C   UNL     1       0.352  -0.269  -2.664  0.00  0.00    +0.052 C 
BRANCH  25  28
ATOM     26  C   UNL     1      -0.019   1.526   0.010  0.00  0.00    +0.035 C 
ATOM     27  C   UNL     1       0.002  -0.004   0.002  0.00  0.00    +0.103 C 
ATOM     28  C   UNL     1       0.729  -0.509  -1.224  0.00  0.00    -0.037 C 
ATOM     29  C   UNL     1       1.785  -1.220  -0.768  0.00  0.00    +0.003 A 
ATOM     30  C   UNL     1       2.858  -1.954  -1.447  0.00  0.00    +0.055 A 
ATOM     31  C   UNL     1       3.803  -2.586  -0.711  0.00  0.00    +0.121 A 
ATOM     32  C   UNL     1       3.796  -2.567   0.695  0.00  0.00    +0.047 A 
ATOM     33  C   UNL     1       2.851  -1.919   1.409  0.00  0.00    +0.029 A 
ATOM     34  C   UNL     1       1.779  -1.200   0.713  0.00  0.00    +0.043 A 
ATOM     35  N   UNL     1       0.758  -0.506   1.155  0.00  0.00    -0.378 N 
ATOM     36  H   UNL     1       0.540  -0.349   2.087  0.00  0.00    +0.160 HD
BRANCH  31  37
ATOM     37  O   UNL     1       4.792  -3.263  -1.353  0.00  0.00    -0.495 OA
ATOM     38  C   UNL     1       5.767  -3.915  -0.537  0.00  0.00    +0.277 C 
ENDBRANCH  31  37
ENDBRANCH  25  28
ENDBRANCH  24  25
ENDBRANCH   1  24
TORSDOF 7
