REMARK  Name = ZINC38679309
REMARK  12 active torsions:
REMARK  status: ('A' for Active; 'I' for Inactive)
REMARK    1  A    between atoms: C_1  and  C_2
REMARK    2  A    between atoms: C_2  and  O_3
REMARK    3  A    between atoms: O_3  and  C_4
REMARK    4  A    between atoms: C_7  and  C_13
REMARK    5  A    between atoms: C_9  and  O_10
REMARK    6  A    between atoms: O_10  and  C_11
REMARK    7  A    between atoms: C_11  and  C_12
REMARK    8  A    between atoms: C_18  and  O_27
REMARK    9  A    between atoms: C_22  and  N_26
REMARK   10  A    between atoms: C_23  and  C_24
REMARK   11  A    between atoms: O_27  and  C_28
REMARK   12  A    between atoms: C_28  and  C_30
REMARK                            x       y       z     vdW  Elec       q    Type
REMARK                         _______ _______ _______ _____ _____    ______ ____
ROOT
ATOM      1  C   UNL     1       1.146  -6.076   1.771  0.00  0.00    +0.098 C 
ATOM      2  C   UNL     1      -0.233  -6.677   1.833  0.00  0.00    +0.008 A 
ATOM      3  C   UNL     1      -0.942  -6.633   3.021  0.00  0.00    +0.012 A 
ATOM      4  C   UNL     1      -2.208  -7.180   3.096  0.00  0.00    +0.047 A 
ATOM      5  C   UNL     1      -2.774  -7.776   1.978  0.00  0.00    +0.135 A 
ATOM      6  C   UNL     1      -2.067  -7.820   0.787  0.00  0.00    +0.093 A 
ATOM      7  C   UNL     1      -0.794  -7.270   0.713  0.00  0.00    +0.138 A 
ATOM      8  O   UNL     1      -0.115  -7.323  -0.460  0.00  0.00    -0.441 OA
ATOM      9  C   UNL     1       1.218  -7.163  -0.470  0.00  0.00    +0.199 C 
ATOM     10  C   UNL     1       1.875  -6.579   0.557  0.00  0.00    +0.098 C 
ENDROOT
BRANCH   1  14
ATOM     11  C   UNL     1       0.824  -1.817   1.562  0.00  0.00    +0.162 A 
ATOM     12  C   UNL     1       0.260  -2.606   0.573  0.00  0.00    +0.050 A 
ATOM     13  C   UNL     1       0.366  -3.983   0.643  0.00  0.00    +0.008 A 
ATOM     14  C   UNL     1       1.034  -4.575   1.699  0.00  0.00    -0.031 A 
ATOM     15  C   UNL     1       1.598  -3.793   2.690  0.00  0.00    +0.054 A 
ATOM     16  C   UNL     1       1.501  -2.412   2.622  0.00  0.00    +0.162 A 
BRANCH  11  17
ATOM     17  O   UNL     1       0.721  -0.462   1.494  0.00  0.00    -0.489 OA
BRANCH  17  19
ATOM     18  C   UNL     1       0.001   1.606   0.473  0.00  0.00    +0.048 C 
ATOM     19  C   UNL     1       0.012   0.079   0.378  0.00  0.00    +0.226 C 
ENDBRANCH  17  19
ENDBRANCH  11  17
BRANCH  16  20
ATOM     20  O   UNL     1       2.060  -1.641   3.593  0.00  0.00    -0.489 OA
BRANCH  20  21
ATOM     21  C   UNL     1       2.739  -2.321   4.650  0.00  0.00    +0.226 C 
ATOM     22  C   UNL     1       3.298  -1.296   5.639  0.00  0.00    +0.048 C 
ENDBRANCH  20  21
ENDBRANCH  16  20
ENDBRANCH   1  14
BRANCH   9  23
ATOM     23  N   UNL     1       1.934  -7.606  -1.554  0.00  0.00    -0.328 N 
ATOM     24  H   UNL     1       1.476  -8.026  -2.299  0.00  0.00    +0.145 HD
ATOM     25  H   UNL     1       2.898  -7.498  -1.576  0.00  0.00    +0.145 HD
ENDBRANCH   9  23
BRANCH  10  26
ATOM     26  C   UNL     1       3.298  -6.439   0.484  0.00  0.00    +0.101 C 
ATOM     27  N   UNL     1       4.427  -6.327   0.426  0.00  0.00    -0.191 NA
ENDBRANCH  10  26
BRANCH   5  28
ATOM     28  O   UNL     1      -4.019  -8.315   2.051  0.00  0.00    -0.422 OA
BRANCH  28  29
ATOM     29  C   UNL     1      -5.060  -7.479   2.238  0.00  0.00    +0.345 C 
ATOM     30  O   UNL     1      -4.882  -6.277   2.239  0.00  0.00    -0.245 OA
BRANCH  29  31
ATOM     31  C   UNL     1      -6.414  -8.023   2.442  0.00  0.00    +0.067 A 
ATOM     32  C   UNL     1      -6.616  -9.392   2.571  0.00  0.00    +0.015 A 
ATOM     33  C   UNL     1      -7.893  -9.902   2.763  0.00  0.00    +0.001 A 
ATOM     34  C   UNL     1      -8.986  -9.094   2.833  0.00  0.00    +0.008 A 
ATOM     35  C   UNL     1      -8.856  -7.700   2.710  0.00  0.00    -0.017 A 
ATOM     36  C   UNL     1      -7.572  -7.135   2.518  0.00  0.00    -0.004 A 
ATOM     37  C   UNL     1      -7.437  -5.746   2.401  0.00  0.00    +0.009 A 
ATOM     38  C   UNL     1      -8.544  -4.954   2.478  0.00  0.00    +0.001 A 
ATOM     39  C   UNL     1      -9.808  -5.506   2.671  0.00  0.00    +0.001 A 
ATOM     40  C   UNL     1      -9.976  -6.853   2.779  0.00  0.00    +0.008 A 
ENDBRANCH  29  31
ENDBRANCH  28  29
ENDBRANCH   5  28
TORSDOF 10
