REMARK  Name = ZINC63205738
REMARK  7 active torsions:
REMARK  status: ('A' for Active; 'I' for Inactive)
REMARK    1  A    between atoms: C_7  and  C_10
REMARK    2  A    between atoms: C_10  and  C_11
REMARK    3  A    between atoms: C_11  and  N_12
REMARK    4  A    between atoms: C_13  and  C_15
REMARK    5  A    between atoms: C_15  and  N_16
REMARK    6  A    between atoms: N_19  and  S_22
REMARK    7  A    between atoms: S_22  and  C_25
REMARK                            x       y       z     vdW  Elec       q    Type
REMARK                         _______ _______ _______ _____ _____    ______ ____
ROOT
ATOM      1  N   UNL     1      -1.976  -7.006  -4.002  0.00  0.00    -0.291 NA
ATOM      2  C   UNL     1      -2.687  -5.983  -4.780  0.00  0.00    +0.102 C 
ATOM      3  C   UNL     1      -2.742  -6.410  -6.250  0.00  0.00    +0.125 C 
ATOM      4  N   UNL     1      -3.320  -7.760  -6.324  0.00  0.00    -0.174 NA
ATOM      5  C   UNL     1      -2.748  -8.810  -5.468  0.00  0.00    +0.125 C 
ATOM      6  C   UNL     1      -2.693  -8.289  -4.029  0.00  0.00    +0.102 C 
ENDROOT
BRANCH   4   7
ATOM      7  S   UNL     1      -4.583  -8.089  -7.344  0.00  0.00    +0.061 S 
ATOM      8  O   UNL     1      -5.252  -9.223  -6.809  0.00  0.00    -0.153 OA
ATOM      9  O   UNL     1      -5.246  -6.854  -7.581  0.00  0.00    -0.153 OA
BRANCH   7  10
ATOM     10  C   UNL     1      -3.891  -8.593  -8.884  0.00  0.00    +0.109 A 
ATOM     11  C   UNL     1      -3.612  -7.649  -9.855  0.00  0.00    +0.032 A 
ATOM     12  C   UNL     1      -3.069  -8.037 -11.067  0.00  0.00    +0.051 A 
ATOM     13  C   UNL     1      -2.804  -9.376 -11.303  0.00  0.00    +0.162 A 
ATOM     14  C   UNL     1      -3.084 -10.322 -10.328  0.00  0.00    +0.164 A 
ATOM     15  C   UNL     1      -3.624  -9.930  -9.115  0.00  0.00    +0.078 A 
ATOM     16  O   UNL     1      -2.818 -11.639 -10.571  0.00  0.00    -0.488 OA
ATOM     17  C   UNL     1      -3.631 -12.268 -11.563  0.00  0.00    +0.232 C 
ATOM     18  C   UNL     1      -3.075 -12.014 -12.956  0.00  0.00    +0.082 C 
ATOM     19  C   UNL     1      -3.122 -10.544 -13.339  0.00  0.00    +0.232 C 
ATOM     20  O   UNL     1      -2.267  -9.772 -12.493  0.00  0.00    -0.488 OA
ENDBRANCH   7  10
ENDBRANCH   4   7
BRANCH   1  21
ATOM     21  C   UNL     1      -1.752  -6.557  -2.622  0.00  0.00    +0.180 C 
BRANCH  21  23
ATOM     22  N   UNL     1      -0.458  -4.798  -1.460  0.00  0.00    -0.314 N 
ATOM     23  C   UNL     1      -0.811  -5.380  -2.623  0.00  0.00    +0.227 C 
ATOM     24  O   UNL     1      -0.371  -4.957  -3.671  0.00  0.00    -0.274 OA
ATOM     25  H   UNL     1      -0.810  -5.136  -0.622  0.00  0.00    +0.149 HD
BRANCH  22  26
ATOM     26  C   UNL     1       0.457  -3.653  -1.462  0.00  0.00    +0.108 C 
BRANCH  26  27
ATOM     27  C   UNL     1       0.691  -3.186  -0.024  0.00  0.00    +0.052 C 
BRANCH  27  34
ATOM     28  C   UNL     1      -0.016   1.348   0.009  0.00  0.00    +0.001 A 
ATOM     29  C   UNL     1       1.166   2.101   0.002  0.00  0.00    +0.002 A 
ATOM     30  C   UNL     1       2.391   1.535  -0.013  0.00  0.00    +0.026 A 
ATOM     31  C   UNL     1       2.529   0.120  -0.022  0.00  0.00    +0.043 A 
ATOM     32  N   UNL     1       3.587  -0.654  -0.037  0.00  0.00    -0.380 N 
ATOM     33  C   UNL     1       3.143  -2.053  -0.041  0.00  0.00    +0.144 C 
ATOM     34  C   UNL     1       1.631  -2.008  -0.025  0.00  0.00    -0.040 C 
ATOM     35  C   UNL     1       1.295  -0.698  -0.014  0.00  0.00    -0.001 A 
ATOM     36  C   UNL     1       0.002  -0.004   0.002  0.00  0.00    +0.010 A 
ATOM     37  H   UNL     1       4.509  -0.353  -0.045  0.00  0.00    +0.160 HD
ENDBRANCH  27  34
ENDBRANCH  26  27
ENDBRANCH  22  26
ENDBRANCH  21  23
ENDBRANCH   1  21
TORSDOF 7
