REMARK  Name = ZINC38870164
REMARK  10 active torsions:
REMARK  status: ('A' for Active; 'I' for Inactive)
REMARK    1  A    between atoms: C_1  and  C_2
REMARK    2  A    between atoms: C_4  and  N_9
REMARK    3  A    between atoms: C_5  and  C_8
REMARK    4  A    between atoms: C_10  and  C_12
REMARK    5  A    between atoms: C_12  and  S_13
REMARK    6  A    between atoms: S_13  and  C_14
REMARK    7  A    between atoms: C_18  and  C_27
REMARK    8  A    between atoms: N_20  and  C_21
REMARK    9  A    between atoms: C_27  and  O_28
REMARK   10  A    between atoms: O_28  and  C_29
REMARK                            x       y       z     vdW  Elec       q    Type
REMARK                         _______ _______ _______ _____ _____    ______ ____
ROOT
ATOM      1  C   UNL     1       1.901  -0.808  -7.644  0.00  0.00    +0.217 C 
ATOM      2  N   UNL     1       0.550  -1.327  -7.959  0.00  0.00    -0.226 NA
ATOM      3  N   UNL     1      -0.057  -0.282  -8.798  0.00  0.00    -0.231 NA
ATOM      4  C   UNL     1       0.445   0.975  -8.183  0.00  0.00    +0.195 C 
ATOM      5  N   UNL     1       1.834   0.657  -7.788  0.00  0.00    -0.285 N 
ATOM      6  H   UNL     1       0.606  -2.203  -8.456  0.00  0.00    +0.143 HD
ATOM      7  H   UNL     1       0.251  -0.363  -9.756  0.00  0.00    +0.143 HD
ENDROOT
BRANCH   5   8
ATOM      8  C   UNL     1       2.876   1.566  -7.589  0.00  0.00    +0.033 A 
ATOM      9  C   UNL     1       2.807   2.489  -6.553  0.00  0.00    +0.023 A 
ATOM     10  C   UNL     1       3.839   3.385  -6.359  0.00  0.00    +0.002 A 
ATOM     11  C   UNL     1       4.941   3.365  -7.195  0.00  0.00    +0.000 A 
ATOM     12  C   UNL     1       5.013   2.447  -8.227  0.00  0.00    +0.002 A 
ATOM     13  C   UNL     1       3.987   1.544  -8.423  0.00  0.00    +0.023 A 
ENDBRANCH   5   8
BRANCH   1  14
ATOM     14  S   UNL     1       2.355  -1.246  -5.944  0.00  0.00    -0.112 S 
BRANCH  14  15
ATOM     15  C   UNL     1       1.040  -0.509  -4.935  0.00  0.00    +0.168 C 
BRANCH  15  17
ATOM     16  N   UNL     1       0.446  -0.351  -2.539  0.00  0.00    -0.285 N 
ATOM     17  C   UNL     1       1.299  -0.803  -3.480  0.00  0.00    +0.227 C 
ATOM     18  O   UNL     1       2.275  -1.445  -3.155  0.00  0.00    -0.275 OA
ATOM     19  H   UNL     1      -0.372   0.100  -2.802  0.00  0.00    +0.155 HD
BRANCH  16  22
ATOM     20  C   UNL     1      -0.202  -2.762  -0.538  0.00  0.00    +0.041 C 
ATOM     21  C   UNL     1       1.011  -1.833  -0.470  0.00  0.00    +0.171 C 
ATOM     22  C   UNL     1       0.734  -0.531  -1.204  0.00  0.00    +0.059 C 
ATOM     23  C   UNL     1       0.838   0.407  -0.238  0.00  0.00    +0.079 C 
ATOM     24  N   UNL     1       1.133  -0.157   0.938  0.00  0.00    -0.157 NA
ATOM     25  N   UNL     1       1.251  -1.387   0.914  0.00  0.00    -0.178 NA
ATOM     26  C   UNL     1       0.648   1.886  -0.457  0.00  0.00    +0.069 C 
ENDBRANCH  16  22
ENDBRANCH  15  17
ENDBRANCH  14  15
ENDBRANCH   1  14
BRANCH   4  27
ATOM     27  C   UNL     1       0.424   2.116  -9.202  0.00  0.00    +0.268 C 
BRANCH  27  28
ATOM     28  O   UNL     1       1.313   1.810 -10.278  0.00  0.00    -0.488 OA
BRANCH  28  29
ATOM     29  C   UNL     1       1.413   2.727 -11.275  0.00  0.00    +0.128 A 
ATOM     30  C   UNL     1       0.687   3.883 -11.221  0.00  0.00    +0.046 A 
ATOM     31  C   UNL     1       0.778   4.833 -12.235  0.00  0.00    +0.004 A 
ATOM     32  C   UNL     1       1.592   4.638 -13.309  0.00  0.00    +0.009 A 
ATOM     33  C   UNL     1       2.355   3.462 -13.401  0.00  0.00    -0.014 A 
ATOM     34  C   UNL     1       2.270   2.494 -12.370  0.00  0.00    +0.024 A 
ATOM     35  C   UNL     1       3.036   1.321 -12.460  0.00  0.00    +0.012 A 
ATOM     36  C   UNL     1       3.853   1.131 -13.532  0.00  0.00    +0.001 A 
ATOM     37  C   UNL     1       3.941   2.084 -14.545  0.00  0.00    +0.001 A 
ATOM     38  C   UNL     1       3.206   3.228 -14.496  0.00  0.00    +0.008 A 
ENDBRANCH  28  29
ENDBRANCH  27  28
ENDBRANCH   4  27
TORSDOF 8
