REMARK  Name = ZINC09396228
REMARK  9 active torsions:
REMARK  status: ('A' for Active; 'I' for Inactive)
REMARK    1  A    between atoms: C_1  and  C_2
REMARK    2  A    between atoms: C_8  and  N_10
REMARK    3  A    between atoms: C_11  and  C_13
REMARK    4  A    between atoms: C_13  and  S_14
REMARK    5  A    between atoms: S_14  and  C_15
REMARK    6  A    between atoms: C_18  and  C_27
REMARK    7  A    between atoms: N_19  and  C_20
REMARK    8  A    between atoms: C_27  and  C_29
REMARK    9  A    between atoms: C_27  and  N_66
REMARK                            x       y       z     vdW  Elec       q    Type
REMARK                         _______ _______ _______ _____ _____    ______ ____
ROOT
ATOM      1  C   UNL     1       1.262   1.034   4.279  0.00  0.00    +0.197 A 
ATOM      2  N   UNL     1       0.833  -0.169   3.974  0.00  0.00    -0.122 NA
ATOM      3  N   UNL     1       0.103  -0.118   2.917  0.00  0.00    -0.135 NA
ATOM      4  C   UNL     1       0.029   1.108   2.481  0.00  0.00    +0.125 A 
ATOM      5  N   UNL     1       0.762   1.889   3.335  0.00  0.00    -0.275 N 
ENDROOT
BRANCH   5   6
ATOM      6  C   UNL     1       0.959   3.276   3.257  0.00  0.00    +0.050 A 
ATOM      7  C   UNL     1       1.659   3.820   2.189  0.00  0.00    +0.029 A 
ATOM      8  C   UNL     1       1.846   5.186   2.111  0.00  0.00    +0.040 A 
ATOM      9  C   UNL     1       1.346   6.012   3.103  0.00  0.00    +0.124 A 
ATOM     10  C   UNL     1       0.653   5.470   4.173  0.00  0.00    +0.040 A 
ATOM     11  C   UNL     1       0.458   4.105   4.251  0.00  0.00    +0.029 A 
ATOM     12  F   UNL     1       1.535   7.347   3.028  0.00  0.00    -0.205 F 
ENDBRANCH   5   6
BRANCH   4  13
ATOM     13  C   UNL     1      -0.729   1.579   1.267  0.00  0.00    -0.002 C 
ATOM     14  C   UNL     1       0.012   1.141   0.002  0.00  0.00    -0.005 C 
BRANCH  13  20
ATOM     15  C   UNL     1      -2.855   1.456   0.117  0.00  0.00    -0.078 C 
ATOM     16  C   UNL     1      -4.195   0.718   0.075  0.00  0.00    -0.019 C 
ATOM     17  C   UNL     1      -4.962   0.989   1.372  0.00  0.00    -0.004 C 
ATOM     18  C   UNL     1      -4.109   0.543   2.563  0.00  0.00    -0.019 C 
ATOM     19  C   UNL     1      -2.772   1.286   2.532  0.00  0.00    -0.078 C 
ATOM     20  N   UNL     1      -2.072   0.965   1.270  0.00  0.00    +0.386 N 
ATOM     21  H   UNL     1      -1.973  -0.055   1.195  0.00  0.00    -0.081 HD
ENDBRANCH  13  20
ENDBRANCH   4  13
BRANCH   1  22
ATOM     22  S   UNL     1       2.287   1.466   5.645  0.00  0.00    -0.076 S 
BRANCH  22  23
ATOM     23  C   UNL     1       2.513  -0.165   6.396  0.00  0.00    +0.173 C 
BRANCH  23  25
ATOM     24  N   UNL     1       3.690  -1.131   8.346  0.00  0.00    -0.312 N 
ATOM     25  C   UNL     1       3.384  -0.038   7.620  0.00  0.00    +0.224 C 
ATOM     26  O   UNL     1       3.809   1.048   7.951  0.00  0.00    -0.275 OA
ATOM     27  H   UNL     1       3.349  -2.000   8.081  0.00  0.00    +0.149 HD
BRANCH  24  34
ATOM     28  C   UNL     1       6.097  -2.721   8.602  0.00  0.00    +0.009 C 
ATOM     29  C   UNL     1       5.233  -2.343   9.806  0.00  0.00    +0.006 C 
ATOM     30  C   UNL     1       6.117  -2.214  11.048  0.00  0.00    +0.005 C 
ATOM     31  C   UNL     1       5.252  -1.837  12.253  0.00  0.00    +0.000 C 
ATOM     32  C   UNL     1       4.555  -0.501  11.982  0.00  0.00    +0.002 C 
ATOM     33  C   UNL     1       3.671  -0.630  10.740  0.00  0.00    +0.022 C 
ATOM     34  C   UNL     1       4.536  -1.008   9.535  0.00  0.00    +0.076 C 
ENDBRANCH  24  34
ENDBRANCH  23  25
ENDBRANCH  22  23
ENDBRANCH   1  22
TORSDOF 7
