REMARK  Name = ZINC40337380
REMARK  8 active torsions:
REMARK  status: ('A' for Active; 'I' for Inactive)
REMARK    1  A    between atoms: C_1  and  C_2
REMARK    2  A    between atoms: C_2  and  N_3
REMARK    3  A    between atoms: N_3  and  C_4
REMARK    4  A    between atoms: N_3  and  C_6
REMARK    5  A    between atoms: C_4  and  C_5
REMARK    6  A    between atoms: C_6  and  C_7
REMARK    7  A    between atoms: N_10  and  S_13
REMARK    8  A    between atoms: S_13  and  C_16
REMARK                            x       y       z     vdW  Elec       q    Type
REMARK                         _______ _______ _______ _____ _____    ______ ____
ROOT
ATOM      1  C   UNL     1      -0.730  -2.646  -0.597  0.00  0.00    -0.025 C 
ATOM      2  C   UNL     1      -1.275  -1.825   0.574  0.00  0.00    +0.019 C 
ATOM      3  C   UNL     1      -2.728  -2.229   0.843  0.00  0.00    +0.109 C 
ATOM      4  N   UNL     1      -2.784  -3.683   1.047  0.00  0.00    -0.176 NA
ATOM      5  C   UNL     1      -2.206  -4.563   0.023  0.00  0.00    +0.109 C 
ATOM      6  C   UNL     1      -0.759  -4.133  -0.237  0.00  0.00    +0.019 C 
ENDROOT
BRANCH   4   7
ATOM      7  S   UNL     1      -3.486  -4.317   2.406  0.00  0.00    +0.066 S 
ATOM      8  O   UNL     1      -2.915  -5.605   2.595  0.00  0.00    -0.153 OA
ATOM      9  O   UNL     1      -3.429  -3.306   3.403  0.00  0.00    -0.153 OA
BRANCH   7  10
ATOM     10  C   UNL     1      -5.191  -4.571   2.043  0.00  0.00    +0.164 A 
ATOM     11  C   UNL     1      -5.825  -5.764   1.989  0.00  0.00    +0.135 A 
ATOM     12  N   UNL     1      -7.119  -5.532   1.682  0.00  0.00    -0.281 N 
ATOM     13  H   UNL     1      -7.809  -6.206   1.577  0.00  0.00    +0.188 HD
ATOM     14  N   UNL     1      -7.290  -4.149   1.541  0.00  0.00    -0.157 NA
ATOM     15  C   UNL     1      -6.135  -3.569   1.763  0.00  0.00    +0.164 A 
ATOM     16  N   UNL     1      -5.885  -2.192   1.725  0.00  0.00    -0.340 N 
ATOM     17  H   UNL     1      -4.993  -1.856   1.902  0.00  0.00    +0.144 HD
ATOM     18  H   UNL     1      -6.605  -1.574   1.521  0.00  0.00    +0.144 HD
ENDBRANCH   7  10
ENDBRANCH   4   7
BRANCH   1  19
ATOM     19  C   UNL     1       0.710  -2.220  -0.891  0.00  0.00    -0.075 C 
BRANCH  19  20
ATOM     20  N   UNL     1       0.726  -0.820  -1.336  0.00  0.00    +0.380 N 
ATOM     21  H   UNL     1       0.263  -0.244  -0.649  0.00  0.00    -0.082 HD
BRANCH  20  23
ATOM     22  C   UNL     1       2.802  -0.348  -0.127  0.00  0.00    -0.017 C 
ATOM     23  C   UNL     1       2.116  -0.372  -1.494  0.00  0.00    -0.082 C 
ENDBRANCH  20  23
BRANCH  20  24
ATOM     24  C   UNL     1       0.025  -0.707  -2.622  0.00  0.00    -0.082 C 
ATOM     25  C   UNL     1      -0.095   0.768  -3.009  0.00  0.00    -0.017 C 
ENDBRANCH  20  24
ENDBRANCH  19  20
ENDBRANCH   1  19
TORSDOF 6
