REMARK  Name = ZINC42164923
REMARK  3 active torsions:
REMARK  status: ('A' for Active; 'I' for Inactive)
REMARK    1  A    between atoms: C_3  and  C_18
REMARK    2  A    between atoms: C_13  and  C_15
REMARK    3  A    between atoms: C_18  and  C_19
REMARK                            x       y       z     vdW  Elec       q    Type
REMARK                         _______ _______ _______ _____ _____    ______ ____
ROOT
ATOM      1  C   UNL     1       0.179   1.792  -0.045  0.00  0.00    +0.021 C 
ATOM      2  C   UNL     1       1.686   2.084   0.181  0.00  0.00    +0.024 C 
ATOM      3  C   UNL     1       2.215   0.750   0.749  0.00  0.00    +0.088 C 
ATOM      4  N   UNL     1       1.278  -0.304   0.333  0.00  0.00    -0.282 N 
ATOM      5  C   UNL     1       0.212   0.306  -0.483  0.00  0.00    +0.110 C 
ATOM      6  C   UNL     1       1.377  -1.611   0.646  0.00  0.00    +0.306 C 
ATOM      7  O   UNL     1       2.241  -1.988   1.415  0.00  0.00    -0.252 OA
ATOM      8  N   UNL     1       0.520  -2.500   0.107  0.00  0.00    -0.274 N 
ATOM      9  C   UNL     1      -0.487  -2.203  -0.929  0.00  0.00    +0.110 C 
ATOM     10  C   UNL     1      -0.748  -3.560  -1.628  0.00  0.00    +0.021 C 
ATOM     11  C   UNL     1      -0.666  -4.547  -0.434  0.00  0.00    +0.033 C 
ATOM     12  C   UNL     1       0.437  -3.927   0.449  0.00  0.00    +0.163 C 
ENDROOT
BRANCH  12  13
ATOM     13  C   UNL     1       0.076  -4.085   1.903  0.00  0.00    +0.231 C 
ATOM     14  O   UNL     1      -0.098  -3.104   2.595  0.00  0.00    -0.274 OA
ATOM     15  N   UNL     1      -0.054  -5.317   2.436  0.00  0.00    -0.328 N 
ATOM     16  H   UNL     1       0.085  -6.101   1.882  0.00  0.00    +0.145 HD
ATOM     17  H   UNL     1      -0.287  -5.418   3.372  0.00  0.00    +0.145 HD
ENDBRANCH  12  13
BRANCH   3  18
ATOM     18  C   UNL     1       3.609   0.462   0.188  0.00  0.00    +0.147 C 
BRANCH  18  19
ATOM     19  C   UNL     1       4.328  -0.500   1.098  0.00  0.00    +0.358 C 
ATOM     20  O   UNL     1       3.873  -0.751   2.201  0.00  0.00    -0.246 OA
ATOM     21  O   UNL     1       5.364  -1.027   0.731  0.00  0.00    -0.246 OA
ENDBRANCH  18  19
ENDBRANCH   3  18
TORSDOF 3
