REMARK  Name = ZINC08587472
REMARK  5 active torsions:
REMARK  status: ('A' for Active; 'I' for Inactive)
REMARK    1  A    between atoms: C_1  and  C_2
REMARK    2  A    between atoms: C_5  and  C_8
REMARK    3  A    between atoms: C_13  and  C_22
REMARK    4  A    between atoms: N_30  and  C_35
REMARK    5  A    between atoms: N_33  and  C_34
REMARK                            x       y       z     vdW  Elec       q    Type
REMARK                         _______ _______ _______ _____ _____    ______ ____
ROOT
ATOM      1  C   UNL     1       0.093  -4.267  -0.019  0.00  0.00    +0.150 C 
ATOM      2  C   UNL     1      -1.184  -4.987   0.357  0.00  0.00    +0.073 A 
ATOM      3  C   UNL     1      -2.186  -5.381  -0.415  0.00  0.00    +0.082 A 
ATOM      4  C   UNL     1      -3.191  -6.008   0.481  0.00  0.00    +0.089 A 
ATOM      5  C   UNL     1      -2.678  -5.939   1.753  0.00  0.00    +0.069 A 
ATOM      6  N   UNL     1      -1.462  -5.335   1.672  0.00  0.00    -0.306 N 
ATOM      7  C   UNL     1      -0.547  -5.074   2.703  0.00  0.00    +0.068 A 
ATOM      8  C   UNL     1      -0.896  -5.213   4.033  0.00  0.00    +0.028 A 
ATOM      9  C   UNL     1       0.032  -4.926   5.019  0.00  0.00    +0.002 A 
ATOM     10  C   UNL     1       1.302  -4.501   4.675  0.00  0.00    +0.002 A 
ATOM     11  C   UNL     1       1.660  -4.368   3.346  0.00  0.00    +0.025 A 
ATOM     12  C   UNL     1       0.742  -4.662   2.350  0.00  0.00    +0.052 A 
ATOM     13  N   UNL     1       1.106  -4.578   1.001  0.00  0.00    -0.330 N 
ATOM     14  C   UNL     1      -4.430  -6.539  -0.095  0.00  0.00    +0.266 A 
ATOM     15  O   UNL     1      -5.291  -7.064   0.587  0.00  0.00    -0.267 OA
ATOM     16  N   UNL     1      -4.552  -6.405  -1.441  0.00  0.00    -0.263 N 
ATOM     17  C   UNL     1      -3.626  -5.835  -2.218  0.00  0.00    +0.332 A 
ATOM     18  O   UNL     1      -3.858  -5.778  -3.410  0.00  0.00    -0.246 OA
ATOM     19  N   UNL     1      -2.454  -5.315  -1.790  0.00  0.00    -0.294 N 
ATOM     20  C   UNL     1      -1.503  -4.708  -2.724  0.00  0.00    +0.154 C 
ATOM     21  C   UNL     1      -5.768  -6.917  -2.078  0.00  0.00    +0.157 C 
ATOM     22  H   UNL     1       2.028  -4.727   0.737  0.00  0.00    +0.147 HD
ENDROOT
BRANCH   1  27
ATOM     23  C   UNL     1      -0.852   1.432  -0.162  0.00  0.00    +0.044 C 
ATOM     24  C   UNL     1      -0.606  -0.054  -0.125  0.00  0.00    -0.050 A 
ATOM     25  C   UNL     1      -0.260  -0.727  -1.282  0.00  0.00    +0.004 A 
ATOM     26  C   UNL     1      -0.034  -2.090  -1.248  0.00  0.00    +0.006 A 
ATOM     27  C   UNL     1      -0.153  -2.780  -0.056  0.00  0.00    -0.021 A 
ATOM     28  C   UNL     1      -0.498  -2.108   1.101  0.00  0.00    +0.006 A 
ATOM     29  C   UNL     1      -0.720  -0.744   1.068  0.00  0.00    +0.004 A 
ENDBRANCH   1  27
BRANCH   5  30
ATOM     30  C   UNL     1      -3.328  -6.431   2.983  0.00  0.00    -0.000 A 
ATOM     31  C   UNL     1      -4.586  -5.949   3.353  0.00  0.00    +0.010 A 
ATOM     32  C   UNL     1      -5.188  -6.413   4.503  0.00  0.00    +0.001 A 
ATOM     33  C   UNL     1      -4.549  -7.354   5.292  0.00  0.00    +0.000 A 
ATOM     34  C   UNL     1      -3.302  -7.835   4.932  0.00  0.00    +0.001 A 
ATOM     35  C   UNL     1      -2.691  -7.384   3.780  0.00  0.00    +0.010 A 
ENDBRANCH   5  30
TORSDOF 2
