REMARK  Name = ZINC44730464
REMARK  10 active torsions:
REMARK  status: ('A' for Active; 'I' for Inactive)
REMARK    1  A    between atoms: C_1  and  C_2
REMARK    2  A    between atoms: C_2  and  N_3
REMARK    3  A    between atoms: C_7  and  C_9
REMARK    4  A    between atoms: C_9  and  C_11
REMARK    5  A    between atoms: C_9  and  N_12
REMARK    6  A    between atoms: N_12  and  C_13
REMARK    7  A    between atoms: C_13  and  C_15
REMARK    8  A    between atoms: C_13  and  C_16
REMARK    9  A    between atoms: C_18  and  C_22
REMARK   10  A    between atoms: C_20  and  C_21
REMARK                            x       y       z     vdW  Elec       q    Type
REMARK                         _______ _______ _______ _____ _____    ______ ____
ROOT
ATOM      1  C   UNL     1       2.370  -4.036  -3.927  0.00  0.00    +0.014 C 
ATOM      2  C   UNL     1       1.744  -3.459  -5.198  0.00  0.00    -0.004 C 
ENDROOT
BRANCH   1   7
ATOM      3  N   UNL     1       0.757  -0.460  -1.149  0.00  0.00    -0.299 N 
ATOM      4  C   UNL     1       0.841  -1.781  -1.398  0.00  0.00    +0.306 C 
ATOM      5  O   UNL     1       0.302  -2.576  -0.653  0.00  0.00    -0.252 OA
ATOM      6  N   UNL     1       1.523  -2.222  -2.474  0.00  0.00    -0.242 N 
ATOM      7  C   UNL     1       1.607  -3.544  -2.724  0.00  0.00    +0.206 C 
ATOM      8  O   UNL     1       1.070  -4.336  -1.980  0.00  0.00    -0.277 OA
ATOM      9  H   UNL     1       1.187   0.175  -1.744  0.00  0.00    +0.150 HD
ATOM     10  H   UNL     1       1.953  -1.588  -3.069  0.00  0.00    +0.159 HD
BRANCH   3  12
ATOM     11  C   UNL     1       0.074   1.547   0.071  0.00  0.00    +0.024 C 
ATOM     12  C   UNL     1       0.015   0.019   0.021  0.00  0.00    +0.102 C 
ENDBRANCH   3  12
ENDBRANCH   1   7
BRANCH   1  13
ATOM     13  N   UNL     1       2.313  -5.503  -3.975  0.00  0.00    +0.391 N 
ATOM     14  H   UNL     1       2.638  -5.882  -3.098  0.00  0.00    -0.084 HD
ATOM     15  H   UNL     1       1.362  -5.798  -4.138  0.00  0.00    -0.084 HD
BRANCH  13  16
ATOM     16  C   UNL     1       3.170  -5.991  -5.065  0.00  0.00    -0.040 C 
ATOM     17  C   UNL     1       2.994  -7.503  -5.214  0.00  0.00    -0.009 C 
BRANCH  16  18
ATOM     18  C   UNL     1       4.610  -5.680  -4.749  0.00  0.00    -0.021 A 
ATOM     19  C   UNL     1       5.170  -5.499  -3.464  0.00  0.00    +0.046 A 
ATOM     20  C   UNL     1       6.479  -5.242  -3.642  0.00  0.00    +0.102 A 
ATOM     21  O   UNL     1       6.739  -5.258  -4.959  0.00  0.00    -0.465 OA
ATOM     22  C   UNL     1       5.610  -5.529  -5.635  0.00  0.00    +0.104 A 
ATOM     23  C   UNL     1       5.485  -5.639  -7.133  0.00  0.00    +0.086 C 
ATOM     24  C   UNL     1       7.482  -4.981  -2.548  0.00  0.00    +0.086 C 
ENDBRANCH  16  18
ENDBRANCH  13  16
ENDBRANCH   1  13
TORSDOF 5
