REMARK  Name = ZINC06809545
REMARK  8 active torsions:
REMARK  status: ('A' for Active; 'I' for Inactive)
REMARK    1  A    between atoms: C_1  and  N_2
REMARK    2  A    between atoms: N_2  and  C_3
REMARK    3  A    between atoms: N_2  and  C_9
REMARK    4  A    between atoms: C_9  and  C_11
REMARK    5  A    between atoms: C_9  and  C_23
REMARK    6  A    between atoms: C_11  and  N_12
REMARK    7  A    between atoms: N_12  and  S_13
REMARK    8  A    between atoms: S_13  and  C_16
REMARK                            x       y       z     vdW  Elec       q    Type
REMARK                         _______ _______ _______ _____ _____    ______ ____
ROOT
ATOM      1  C   UNL     1      -1.183  -0.513   0.050  0.00  0.00    -0.022 C 
ENDROOT
BRANCH   1   2
ATOM      2  C   UNL     1      -1.407  -1.974   0.341  0.00  0.00    -0.060 A 
ATOM      3  C   UNL     1      -0.734  -2.936  -0.389  0.00  0.00    +0.002 A 
ATOM      4  C   UNL     1      -0.940  -4.277  -0.122  0.00  0.00    +0.000 A 
ATOM      5  C   UNL     1      -1.818  -4.656   0.876  0.00  0.00    +0.000 A 
ATOM      6  C   UNL     1      -2.491  -3.694   1.606  0.00  0.00    +0.000 A 
ATOM      7  C   UNL     1      -2.282  -2.353   1.342  0.00  0.00    +0.002 A 
ENDBRANCH   1   2
BRANCH   1   9
ATOM      8  C   UNL     1       0.448   1.088  -0.679  0.00  0.00    -0.095 C 
ATOM      9  N   UNL     1       0.252  -0.268  -0.149  0.00  0.00    +0.385 N 
ATOM     10  H   UNL     1       0.621  -0.941  -0.803  0.00  0.00    -0.081 HD
BRANCH   9  11
ATOM     11  C   UNL     1       0.953  -0.398   1.135  0.00  0.00    -0.068 C 
ATOM     12  C   UNL     1       2.409   0.041   0.968  0.00  0.00    -0.015 C 
ATOM     13  C   UNL     1       3.140  -0.095   2.305  0.00  0.00    -0.002 C 
ATOM     14  C   UNL     1       3.096  -1.553   2.765  0.00  0.00    -0.000 C 
ATOM     15  C   UNL     1       1.639  -1.992   2.933  0.00  0.00    -0.002 C 
ATOM     16  C   UNL     1       0.909  -1.856   1.595  0.00  0.00    -0.015 C 
ENDBRANCH   9  11
ENDBRANCH   1   9
BRANCH   1  17
ATOM     17  C   UNL     1      -1.947  -0.122  -1.217  0.00  0.00    +0.095 C 
BRANCH  17  18
ATOM     18  N   UNL     1      -1.914   1.333  -1.378  0.00  0.00    -0.191 NA
ATOM     19  H   UNL     1      -1.683   1.899  -0.625  0.00  0.00    +0.148 HD
BRANCH  18  20
ATOM     20  S   UNL     1      -2.272   2.013  -2.845  0.00  0.00    +0.058 S 
ATOM     21  O   UNL     1      -2.180   3.420  -2.674  0.00  0.00    -0.153 OA
ATOM     22  O   UNL     1      -1.505   1.312  -3.815  0.00  0.00    -0.153 OA
BRANCH  20  23
ATOM     23  C   UNL     1      -3.963   1.656  -3.186  0.00  0.00    +0.105 A 
ATOM     24  C   UNL     1      -4.302   0.499  -3.863  0.00  0.00    +0.030 A 
ATOM     25  C   UNL     1      -5.629   0.218  -4.131  0.00  0.00    +0.022 A 
ATOM     26  C   UNL     1      -6.618   1.095  -3.721  0.00  0.00    +0.041 A 
ATOM     27  C   UNL     1      -6.278   2.252  -3.044  0.00  0.00    +0.022 A 
ATOM     28  C   UNL     1      -4.951   2.529  -2.772  0.00  0.00    +0.030 A 
ATOM     29 CL   UNL     1      -8.284   0.744  -4.058  0.00  0.00    -0.084 Cl
ENDBRANCH  20  23
ENDBRANCH  18  20
ENDBRANCH  17  18
ENDBRANCH   1  17
TORSDOF 7
