REMARK  Name = ZINC36038465
REMARK  8 active torsions:
REMARK  status: ('A' for Active; 'I' for Inactive)
REMARK    1  A    between atoms: C_1  and  C_2
REMARK    2  A    between atoms: C_2  and  C_3
REMARK    3  A    between atoms: C_2  and  C_4
REMARK    4  A    between atoms: C_4  and  C_5
REMARK    5  A    between atoms: N_9  and  C_28
REMARK    6  A    between atoms: N_14  and  S_17
REMARK    7  A    between atoms: S_17  and  C_20
REMARK    8  A    between atoms: C_28  and  C_29
REMARK                            x       y       z     vdW  Elec       q    Type
REMARK                         _______ _______ _______ _____ _____    ______ ____
ROOT
ATOM      1  C   UNL     1       2.238  -0.037  -1.190  0.00  0.00    +0.019 C 
ATOM      2  C   UNL     1       3.016  -0.553  -2.381  0.00  0.00    +0.200 C 
ATOM      3  O   UNL     1       3.065  -0.032  -3.475  0.00  0.00    -0.277 OA
ATOM      4  N   UNL     1       3.648  -1.689  -2.020  0.00  0.00    -0.313 N 
ATOM      5  C   UNL     1       3.339  -1.997  -0.621  0.00  0.00    +0.006 C 
ATOM      6  N   UNL     1       2.812  -0.749  -0.023  0.00  0.00    +0.401 N 
ATOM      7  C   UNL     1       2.279  -3.094  -0.544  0.00  0.00    +0.023 C 
ATOM      8  C   UNL     1       2.818  -4.369  -1.201  0.00  0.00    +0.109 C 
ATOM      9  N   UNL     1       4.103  -4.714  -0.577  0.00  0.00    -0.177 NA
ATOM     10  C   UNL     1       5.164  -3.699  -0.534  0.00  0.00    +0.109 C 
ATOM     11  C   UNL     1       4.604  -2.429   0.117  0.00  0.00    +0.023 C 
ATOM     12  H   UNL     1       3.557  -0.210   0.392  0.00  0.00    -0.082 HD
ATOM     13  H   UNL     1       2.096  -0.953   0.658  0.00  0.00    -0.082 HD
ENDROOT
BRANCH   9  14
ATOM     14  S   UNL     1       4.351  -6.221   0.065  0.00  0.00    +0.061 S 
ATOM     15  O   UNL     1       5.378  -6.083   1.037  0.00  0.00    -0.153 OA
ATOM     16  O   UNL     1       3.068  -6.744   0.380  0.00  0.00    -0.153 OA
BRANCH  14  17
ATOM     17  C   UNL     1       5.006  -7.233  -1.220  0.00  0.00    +0.107 A 
ATOM     18  C   UNL     1       4.152  -7.943  -2.044  0.00  0.00    +0.030 A 
ATOM     19  C   UNL     1       4.664  -8.738  -3.052  0.00  0.00    +0.023 A 
ATOM     20  C   UNL     1       6.032  -8.823  -3.238  0.00  0.00    +0.059 A 
ATOM     21  C   UNL     1       6.888  -8.111  -2.414  0.00  0.00    +0.061 A 
ATOM     22  C   UNL     1       6.373  -7.312  -1.409  0.00  0.00    +0.050 A 
ATOM     23 CL   UNL     1       8.605  -8.217  -2.645  0.00  0.00    -0.082 Cl
ATOM     24 CL   UNL     1       6.677  -9.821  -4.503  0.00  0.00    -0.082 Cl
ENDBRANCH  14  17
ENDBRANCH   9  14
BRANCH   1  25
ATOM     25  C   UNL     1       0.752  -0.371  -1.340  0.00  0.00    -0.004 C 
BRANCH  25  27
ATOM     26  C   UNL     1       0.058   1.685  -0.101  0.00  0.00    +0.007 C 
ATOM     27  C   UNL     1      -0.014   0.157  -0.125  0.00  0.00    -0.018 C 
ATOM     28  C   UNL     1      -1.476  -0.284  -0.213  0.00  0.00    +0.007 C 
ENDBRANCH  25  27
ENDBRANCH   1  25
BRANCH   4  29
ATOM     29  C   UNL     1       4.510  -2.491  -2.892  0.00  0.00    +0.109 C 
BRANCH  29  30
ATOM     30  C   UNL     1       5.952  -1.991  -2.783  0.00  0.00    +0.006 C 
ATOM     31  C   UNL     1       6.593  -1.403  -4.042  0.00  0.00    +0.005 C 
ATOM     32  C   UNL     1       7.030  -2.777  -3.531  0.00  0.00    +0.005 C 
ENDBRANCH  29  30
ENDBRANCH   4  29
TORSDOF 6
