REMARK  Name = ZINC36545388
REMARK  16 active torsions:
REMARK  status: ('A' for Active; 'I' for Inactive)
REMARK    1  A    between atoms: C_1  and  C_2
REMARK    2  A    between atoms: C_2  and  C_3
REMARK    3  A    between atoms: C_2  and  C_4
REMARK    4  A    between atoms: C_2  and  C_5
REMARK    5  A    between atoms: C_5  and  C_6
REMARK    6  A    between atoms: C_6  and  C_7
REMARK    7  A    between atoms: C_6  and  C_8
REMARK    8  A    between atoms: C_6  and  N_9
REMARK    9  A    between atoms: C_10  and  C_12
REMARK   10  A    between atoms: C_12  and  C_14
REMARK   11  A    between atoms: C_12  and  N_21
REMARK   12  A    between atoms: C_19  and  O_20
REMARK   13  A    between atoms: N_21  and  C_22
REMARK   14  A    between atoms: C_29  and  C_31
REMARK   15  A    between atoms: C_35  and  O_38
REMARK   16  A    between atoms: C_36  and  O_37
REMARK                            x       y       z     vdW  Elec       q    Type
REMARK                         _______ _______ _______ _____ _____    ______ ____
ROOT
ATOM      1  C   UNL     1       5.412  -0.652  -4.188  0.00  0.00    +0.201 C 
ENDROOT
BRANCH   1   2
ATOM      2  C   UNL     1       5.410  -2.027  -4.805  0.00  0.00    +0.024 A 
ATOM      3  C   UNL     1       6.459  -2.893  -4.566  0.00  0.00    +0.009 A 
ATOM      4  C   UNL     1       6.458  -4.154  -5.133  0.00  0.00    +0.001 A 
ATOM      5  C   UNL     1       5.407  -4.552  -5.939  0.00  0.00    +0.004 A 
ATOM      6  C   UNL     1       4.356  -3.689  -6.181  0.00  0.00    +0.046 A 
ATOM      7  C   UNL     1       4.352  -2.425  -5.609  0.00  0.00    +0.122 A 
BRANCH   7   8
ATOM      8  O   UNL     1       3.316  -1.577  -5.840  0.00  0.00    -0.506 OA
ATOM      9  H   UNL     1       3.435  -1.013  -6.617  0.00  0.00    +0.292 HD
ENDBRANCH   7   8
ENDBRANCH   1   2
BRANCH   1  11
ATOM     10  N   UNL     1       3.458  -1.103  -2.739  0.00  0.00    -0.308 N 
ATOM     11  C   UNL     1       4.742  -0.706  -2.838  0.00  0.00    +0.239 C 
ATOM     12  O   UNL     1       5.359  -0.394  -1.842  0.00  0.00    -0.273 OA
ATOM     13  H   UNL     1       2.964  -1.353  -3.535  0.00  0.00    +0.149 HD
BRANCH  10  14
ATOM     14  C   UNL     1       2.807  -1.155  -1.427  0.00  0.00    +0.030 C 
ATOM     15  C   UNL     1       2.949   0.200  -0.733  0.00  0.00    +0.031 C 
ATOM     16  C   UNL     1       3.469  -2.238  -0.573  0.00  0.00    +0.031 C 
BRANCH  14  17
ATOM     17  C   UNL     1       1.324  -1.484  -1.607  0.00  0.00    +0.031 C 
BRANCH  17  19
ATOM     18  C   UNL     1       1.101  -1.331  -4.091  0.00  0.00    +0.010 C 
ATOM     19  C   UNL     1       0.755  -0.657  -2.762  0.00  0.00    -0.036 C 
ATOM     20  C   UNL     1       1.360   0.748  -2.730  0.00  0.00    +0.010 C 
ATOM     21  C   UNL     1      -0.766  -0.561  -2.620  0.00  0.00    +0.010 C 
ENDBRANCH  17  19
ENDBRANCH  14  17
ENDBRANCH  10  14
ENDBRANCH   1  11
BRANCH   1  22
ATOM     22  N   UNL     1       6.793  -0.190  -4.029  0.00  0.00    -0.250 N 
ATOM     23  C   UNL     1       7.570  -0.004  -5.115  0.00  0.00    +0.255 C 
ATOM     24  O   UNL     1       7.155  -0.303  -6.218  0.00  0.00    -0.269 OA
BRANCH  22  25
ATOM     25  C   UNL     1       7.305   0.059  -2.751  0.00  0.00    +0.056 A 
ATOM     26  C   UNL     1       7.906  -0.965  -2.031  0.00  0.00    +0.025 A 
ATOM     27  C   UNL     1       8.411  -0.717  -0.770  0.00  0.00    +0.002 A 
ATOM     28  C   UNL     1       8.319   0.550  -0.223  0.00  0.00    +0.002 A 
ATOM     29  C   UNL     1       7.722   1.573  -0.937  0.00  0.00    +0.022 A 
ATOM     30  C   UNL     1       7.219   1.333  -2.202  0.00  0.00    +0.062 A 
ATOM     31 CL   UNL     1       6.476   2.618  -3.101  0.00  0.00    -0.082 Cl
ENDBRANCH  22  25
BRANCH  23  32
ATOM     32  C   UNL     1       8.924   0.562  -4.964  0.00  0.00    +0.082 A 
ATOM     33  C   UNL     1       9.887  -0.111  -4.207  0.00  0.00    +0.017 A 
ATOM     34  C   UNL     1      11.150   0.421  -4.069  0.00  0.00    +0.005 A 
ATOM     35  C   UNL     1      11.474   1.623  -4.677  0.00  0.00    +0.049 A 
ATOM     36  C   UNL     1      10.531   2.301  -5.430  0.00  0.00    +0.159 A 
ATOM     37  C   UNL     1       9.252   1.774  -5.584  0.00  0.00    +0.171 A 
BRANCH  37  38
ATOM     38  O   UNL     1       8.327   2.433  -6.327  0.00  0.00    -0.503 OA
ATOM     39  H   UNL     1       7.795   3.064  -5.822  0.00  0.00    +0.292 HD
ENDBRANCH  37  38
BRANCH  36  40
ATOM     40  O   UNL     1      10.856   3.481  -6.024  0.00  0.00    -0.503 OA
ATOM     41  H   UNL     1      11.213   3.386  -6.918  0.00  0.00    +0.292 HD
ENDBRANCH  36  40
ENDBRANCH  23  32
ENDBRANCH   1  22
TORSDOF 11
