REMARK  Name = ZINC63175680
REMARK  8 active torsions:
REMARK  status: ('A' for Active; 'I' for Inactive)
REMARK    1  A    between atoms: C_1  and  C_2
REMARK    2  A    between atoms: C_2  and  O_3
REMARK    3  A    between atoms: O_3  and  C_4
REMARK    4  A    between atoms: C_4  and  C_6
REMARK    5  A    between atoms: N_9  and  S_12
REMARK    6  A    between atoms: S_12  and  N_15
REMARK    7  A    between atoms: N_15  and  C_16
REMARK    8  A    between atoms: C_21  and  N_23
REMARK                            x       y       z     vdW  Elec       q    Type
REMARK                         _______ _______ _______ _____ _____    ______ ____
ROOT
ATOM      1  S   UNL     1       4.977  -4.892  -3.998  0.00  0.00    +0.097 S 
ATOM      2  O   UNL     1       6.246  -4.321  -3.710  0.00  0.00    -0.141 OA
ATOM      3  O   UNL     1       4.508  -6.069  -3.355  0.00  0.00    -0.141 OA
ENDROOT
BRANCH   1   7
ATOM      4  C   UNL     1       2.235  -1.952  -2.195  0.00  0.00    +0.100 C 
ATOM      5  C   UNL     1       3.743  -1.715  -2.310  0.00  0.00    +0.032 C 
ATOM      6  C   UNL     1       4.248  -2.300  -3.633  0.00  0.00    +0.111 C 
ATOM      7  N   UNL     1       3.851  -3.713  -3.707  0.00  0.00    -0.167 NA
ATOM      8  C   UNL     1       2.436  -4.060  -3.519  0.00  0.00    +0.111 C 
ATOM      9  C   UNL     1       1.951  -3.455  -2.197  0.00  0.00    +0.032 C 
BRANCH   4  10
ATOM     10  C   UNL     1       1.730  -1.347  -0.910  0.00  0.00    +0.310 C 
ATOM     11  O   UNL     1       1.197  -2.047  -0.082  0.00  0.00    -0.251 OA
BRANCH  10  12
ATOM     12  O   UNL     1       1.871  -0.031  -0.687  0.00  0.00    -0.465 OA
BRANCH  12  14
ATOM     13  C   UNL     1       1.618   1.982   0.627  0.00  0.00    +0.048 C 
ATOM     14  C   UNL     1       1.368   0.474   0.552  0.00  0.00    +0.229 C 
ENDBRANCH  12  14
ENDBRANCH  10  12
ENDBRANCH   4  10
ENDBRANCH   1   7
BRANCH   1  15
ATOM     15  N   UNL     1       4.955  -5.200  -5.625  0.00  0.00    -0.178 NA
ATOM     16  H   UNL     1       4.674  -6.069  -5.950  0.00  0.00    +0.149 HD
BRANCH  15  17
ATOM     17  C   UNL     1       5.359  -4.159  -6.573  0.00  0.00    +0.063 C 
ATOM     18  C   UNL     1       4.111  -3.473  -7.168  0.00  0.00    +0.019 C 
ATOM     19  C   UNL     1       4.495  -3.200  -8.643  0.00  0.00    -0.000 C 
ATOM     20  C   UNL     1       5.308  -4.462  -9.025  0.00  0.00    -0.015 C 
ATOM     21  C   UNL     1       6.121  -4.787  -7.753  0.00  0.00    -0.056 C 
BRANCH  21  22
ATOM     22  N   UNL     1       6.214  -6.242  -7.574  0.00  0.00    +0.381 N 
ATOM     23  H   UNL     1       5.286  -6.636  -7.531  0.00  0.00    -0.090 HD
ATOM     24  H   UNL     1       6.715  -6.646  -8.351  0.00  0.00    -0.090 HD
ATOM     25  H   UNL     1       6.706  -6.445  -6.716  0.00  0.00    -0.090 HD
ENDBRANCH  21  22
ENDBRANCH  15  17
ENDBRANCH   1  15
TORSDOF 7
