REMARK  Name = ZINC18223066
REMARK  4 active torsions:
REMARK  status: ('A' for Active; 'I' for Inactive)
REMARK    1  A    between atoms: C_8  and  C_12
REMARK    2  A    between atoms: C_12  and  C_13
REMARK    3  A    between atoms: C_12  and  C_19
REMARK    4  A    between atoms: C_20  and  O_30
REMARK                            x       y       z     vdW  Elec       q    Type
REMARK                         _______ _______ _______ _____ _____    ______ ____
ROOT
ATOM      1  C   UNL     1       2.677  -4.256  -0.047  0.00  0.00    +0.098 C 
ENDROOT
BRANCH   1   9
ATOM      2  C   UNL     1       3.342  -0.641  -5.090  0.00  0.00    +0.001 A 
ATOM      3  C   UNL     1       4.718  -0.505  -4.978  0.00  0.00    +0.002 A 
ATOM      4  C   UNL     1       5.404  -1.115  -3.950  0.00  0.00    +0.026 A 
ATOM      5  C   UNL     1       4.712  -1.875  -3.012  0.00  0.00    +0.053 A 
ATOM      6  C   UNL     1       3.319  -2.012  -3.126  0.00  0.00    +0.045 A 
ATOM      7  C   UNL     1       2.639  -1.389  -4.172  0.00  0.00    +0.014 A 
ATOM      8  C   UNL     1       2.605  -2.822  -2.122  0.00  0.00    +0.197 A 
ATOM      9  C   UNL     1       3.361  -3.419  -1.097  0.00  0.00    +0.076 A 
ATOM     10  C   UNL     1       4.710  -3.240  -1.052  0.00  0.00    +0.257 A 
ATOM     11  N   UNL     1       5.375  -2.496  -1.974  0.00  0.00    -0.322 N 
ATOM     12  O   UNL     1       5.412  -3.824  -0.056  0.00  0.00    -0.267 OA
ATOM     13  O   UNL     1       1.394  -2.970  -2.178  0.00  0.00    -0.287 OA
ATOM     14  H   UNL     1       6.337  -2.399  -1.899  0.00  0.00    +0.169 HD
ENDBRANCH   1   9
BRANCH   1  15
ATOM     15  C   UNL     1       2.174  -3.364   1.059  0.00  0.00    +0.071 A 
ATOM     16  C   UNL     1       2.324  -2.009   0.962  0.00  0.00    +0.135 A 
ATOM     17  C   UNL     1       1.821  -1.171   2.059  0.00  0.00    +0.040 A 
ATOM     18  C   UNL     1       1.942   0.220   2.021  0.00  0.00    +0.013 A 
ATOM     19  C   UNL     1       1.464   0.970   3.058  0.00  0.00    +0.001 A 
ATOM     20  C   UNL     1       0.858   0.362   4.148  0.00  0.00    +0.002 A 
ATOM     21  C   UNL     1       0.728  -1.009   4.206  0.00  0.00    +0.026 A 
ATOM     22  C   UNL     1       1.208  -1.792   3.161  0.00  0.00    +0.053 A 
ATOM     23  N   UNL     1       1.091  -3.167   3.192  0.00  0.00    -0.322 N 
ATOM     24  C   UNL     1       1.548  -3.926   2.182  0.00  0.00    +0.257 A 
ATOM     25  O   UNL     1       1.421  -5.137   2.246  0.00  0.00    -0.267 OA
ATOM     26  H   UNL     1       0.667  -3.592   3.954  0.00  0.00    +0.169 HD
BRANCH  16  27
ATOM     27  O   UNL     1       2.921  -1.453  -0.118  0.00  0.00    -0.506 OA
ATOM     28  H   UNL     1       2.975  -0.488  -0.084  0.00  0.00    +0.292 HD
ENDBRANCH  16  27
ENDBRANCH   1  15
BRANCH   1  29
ATOM     29  C   UNL     1       1.516  -4.990  -0.667  0.00  0.00    -0.017 A 
ATOM     30  C   UNL     1       1.737  -6.008  -1.582  0.00  0.00    +0.007 A 
ATOM     31  C   UNL     1       0.639  -6.655  -2.127  0.00  0.00    +0.020 A 
ATOM     32  C   UNL     1      -0.631  -6.267  -1.744  0.00  0.00    +0.111 A 
ATOM     33  N   UNL     1      -0.803  -5.293  -0.871  0.00  0.00    -0.263 NA
ATOM     34  C   UNL     1       0.218  -4.660  -0.327  0.00  0.00    +0.115 A 
ENDBRANCH   1  29
TORSDOF 4
