REMARK  Name = ZINC12936462
REMARK  5 active torsions:
REMARK  status: ('A' for Active; 'I' for Inactive)
REMARK    1  A    between atoms: C_1  and  C_2
REMARK    2  A    between atoms: C_9  and  C_13
REMARK    3  A    between atoms: C_13  and  O_14
REMARK    4  A    between atoms: O_14  and  C_15
REMARK    5  A    between atoms: C_15  and  C_17
REMARK                            x       y       z     vdW  Elec       q    Type
REMARK                         _______ _______ _______ _____ _____    ______ ____
ROOT
ATOM      1  C   UNL     1      -2.532  -2.256  -1.386  0.00  0.00    +0.315 C 
ATOM      2  O   UNL     1      -3.363  -2.289  -0.510  0.00  0.00    -0.250 OA
ENDROOT
BRANCH   1   3
ATOM      3  C   UNL     1      -2.738  -3.050  -2.651  0.00  0.00    +0.138 C 
ATOM      4  C   UNL     1      -1.595  -4.051  -2.815  0.00  0.00    +0.115 C 
ATOM      5  C   UNL     1      -1.736  -5.158  -1.804  0.00  0.00    +0.218 C 
ATOM      6  O   UNL     1      -0.747  -5.620  -1.275  0.00  0.00    -0.275 OA
ATOM      7  N   UNL     1      -2.950  -5.638  -1.481  0.00  0.00    -0.285 N 
ATOM      8  C   UNL     1      -4.110  -5.042  -1.983  0.00  0.00    +0.040 A 
ATOM      9  C   UNL     1      -4.051  -3.786  -2.572  0.00  0.00    -0.012 A 
ATOM     10  C   UNL     1      -5.197  -3.209  -3.084  0.00  0.00    +0.009 A 
ATOM     11  C   UNL     1      -6.405  -3.876  -3.002  0.00  0.00    +0.039 A 
ATOM     12  C   UNL     1      -6.470  -5.124  -2.406  0.00  0.00    +0.125 A 
ATOM     13  C   UNL     1      -5.325  -5.708  -1.896  0.00  0.00    +0.062 A 
ATOM     14  F   UNL     1      -7.653  -5.771  -2.321  0.00  0.00    -0.205 F 
ATOM     15  H   UNL     1      -3.021  -6.407  -0.894  0.00  0.00    +0.155 HD
ENDBRANCH   1   3
BRANCH   1  16
ATOM     16  O   UNL     1      -1.425  -1.513  -1.233  0.00  0.00    -0.458 OA
BRANCH  16  17
ATOM     17  C   UNL     1      -1.293  -0.775   0.010  0.00  0.00    +0.287 C 
BRANCH  17  26
ATOM     18  C   UNL     1       6.009  -0.815  -0.056  0.00  0.00    +0.044 C 
ATOM     19  C   UNL     1       4.709  -0.054  -0.041  0.00  0.00    -0.046 A 
ATOM     20  C   UNL     1       4.711   1.348  -0.033  0.00  0.00    +0.021 A 
ATOM     21  C   UNL     1       3.543   2.029  -0.019  0.00  0.00    +0.096 A 
ATOM     22  N   UNL     1       2.352   1.368  -0.013  0.00  0.00    -0.268 N 
ATOM     23  C   UNL     1       2.317   0.002  -0.020  0.00  0.00    +0.141 A 
ATOM     24  C   UNL     1       3.522  -0.725  -0.035  0.00  0.00    +0.050 A 
ATOM     25  N   UNL     1       1.157  -0.651  -0.012  0.00  0.00    -0.231 NA
ATOM     26  C   UNL     1       0.002  -0.004   0.002  0.00  0.00    +0.086 A 
ATOM     27  C   UNL     1      -0.017   1.377   0.010  0.00  0.00    +0.097 A 
ATOM     28  C   UNL     1       1.199   2.071   0.002  0.00  0.00    +0.259 A 
ATOM     29  O   UNL     1       1.216   3.291   0.008  0.00  0.00    -0.267 OA
ENDBRANCH  17  26
ENDBRANCH  16  17
ENDBRANCH   1  16
TORSDOF 4
