REMARK  Name = ZINC40245379
REMARK  5 active torsions:
REMARK  status: ('A' for Active; 'I' for Inactive)
REMARK    1  A    between atoms: C_3  and  O_18
REMARK    2  A    between atoms: C_6  and  C_7
REMARK    3  A    between atoms: C_7  and  C_9
REMARK    4  A    between atoms: C_7  and  O_17
REMARK    5  A    between atoms: O_18  and  C_19
REMARK                            x       y       z     vdW  Elec       q    Type
REMARK                         _______ _______ _______ _____ _____    ______ ____
ROOT
ATOM      1  C   UNL     1      -1.293  -0.774   0.011  0.00  0.00    +0.176 C 
ENDROOT
BRANCH   1   2
ATOM      2  C   UNL     1      -1.613  -1.235  -1.388  0.00  0.00    +0.000 A 
ATOM      3  C   UNL     1      -1.250  -2.505  -1.797  0.00  0.00    +0.023 A 
ATOM      4  C   UNL     1      -1.543  -2.928  -3.081  0.00  0.00    +0.018 A 
ATOM      5  C   UNL     1      -2.200  -2.081  -3.955  0.00  0.00    +0.016 A 
ATOM      6  C   UNL     1      -2.563  -0.812  -3.546  0.00  0.00    +0.017 A 
ATOM      7  C   UNL     1      -2.275  -0.390  -2.260  0.00  0.00    +0.024 A 
ATOM      8 BR   UNL     1      -2.778   1.343  -1.698  0.00  0.00    -0.050 Br
ATOM      9 BR   UNL     1      -1.046  -4.664  -3.640  0.00  0.00    -0.050 Br
ENDBRANCH   1   2
BRANCH   1  15
ATOM     10  C   UNL     1      -0.017   1.378   0.010  0.00  0.00    +0.010 A 
ATOM     11  C   UNL     1       1.169   2.087   0.002  0.00  0.00    +0.046 A 
ATOM     12  C   UNL     1       2.380   1.409  -0.013  0.00  0.00    +0.127 A 
ATOM     13  C   UNL     1       2.396   0.022  -0.021  0.00  0.00    +0.046 A 
ATOM     14  C   UNL     1       1.207  -0.681  -0.013  0.00  0.00    +0.010 A 
ATOM     15  C   UNL     1       0.002  -0.004   0.002  0.00  0.00    -0.015 A 
BRANCH  12  16
ATOM     16  O   UNL     1       3.548   2.104  -0.021  0.00  0.00    -0.434 OA
BRANCH  16  17
ATOM     17  C   UNL     1       4.756   1.341  -0.036  0.00  0.00    +0.541 C 
ATOM     18  F   UNL     1       4.810   0.528   1.101  0.00  0.00    -0.166 F 
ATOM     19  F   UNL     1       4.787   0.540  -1.183  0.00  0.00    -0.166 F 
ENDBRANCH  16  17
ENDBRANCH  12  16
ENDBRANCH   1  15
BRANCH   1  20
ATOM     20  O   UNL     1      -1.167  -1.909   0.869  0.00  0.00    -0.382 OA
ATOM     21  H   UNL     1      -0.470  -2.526   0.606  0.00  0.00    +0.211 HD
ENDBRANCH   1  20
TORSDOF 5
