REMARK  Name = ZINC20382708
REMARK  4 active torsions:
REMARK  status: ('A' for Active; 'I' for Inactive)
REMARK    1  A    between atoms: N_9  and  C_10
REMARK    2  A    between atoms: C_10  and  C_11
REMARK    3  A    between atoms: C_21  and  C_24
REMARK    4  A    between atoms: C_32  and  C_34
REMARK                            x       y       z     vdW  Elec       q    Type
REMARK                         _______ _______ _______ _____ _____    ______ ____
ROOT
ATOM      1  C   UNL     1       2.284   2.485  -0.236  0.00  0.00    +0.002 A 
ATOM      2  C   UNL     1       1.219   1.809   0.340  0.00  0.00    +0.002 A 
ATOM      3  C   UNL     1       0.036   2.467   0.608  0.00  0.00    +0.028 A 
ATOM      4  C   UNL     1      -0.086   3.816   0.311  0.00  0.00    +0.068 A 
ATOM      5  C   UNL     1       0.990   4.506  -0.272  0.00  0.00    +0.065 A 
ATOM      6  C   UNL     1       2.179   3.824  -0.542  0.00  0.00    +0.028 A 
ATOM      7  N   UNL     1       0.590   5.792  -0.453  0.00  0.00    -0.327 N 
ATOM      8  C   UNL     1      -0.641   5.933  -0.027  0.00  0.00    +0.177 A 
ATOM      9  N   UNL     1      -1.105   4.743   0.455  0.00  0.00    -0.309 N 
ATOM     10  N   UNL     1      -1.360   7.109  -0.060  0.00  0.00    -0.302 N 
ATOM     11  C   UNL     1      -2.437   7.040  -1.056  0.00  0.00    +0.108 C 
ATOM     12  C   UNL     1      -3.301   8.299  -0.964  0.00  0.00    +0.032 C 
ATOM     13  C   UNL     1      -2.427   9.531  -1.215  0.00  0.00    +0.078 C 
ATOM     14  C   UNL     1      -1.286   9.554  -0.194  0.00  0.00    +0.032 C 
ATOM     15  C   UNL     1      -0.480   8.258  -0.308  0.00  0.00    +0.108 C 
ATOM     16  H   UNL     1       1.277   6.524  -0.901  0.00  0.00    +0.169 HD
ENDROOT
BRANCH  13  17
ATOM     17  C   UNL     1      -3.259  10.779  -1.067  0.00  0.00    +0.219 C 
ATOM     18  O   UNL     1      -3.309  11.352   0.001  0.00  0.00    -0.275 OA
ATOM     19  N   UNL     1      -3.948  11.258  -2.122  0.00  0.00    -0.298 N 
ATOM     20  C   UNL     1      -3.972  10.525  -3.395  0.00  0.00    +0.127 C 
ATOM     21  C   UNL     1      -5.439  10.273  -3.783  0.00  0.00    +0.127 C 
ATOM     22  N   UNL     1      -6.174  11.542  -3.682  0.00  0.00    -0.292 N 
ATOM     23  C   UNL     1      -6.146  12.278  -2.410  0.00  0.00    +0.127 C 
ATOM     24  C   UNL     1      -4.683  12.527  -2.021  0.00  0.00    +0.127 C 
ATOM     25  C   UNL     1      -6.862  12.021  -4.737  0.00  0.00    +0.282 C 
ATOM     26  O   UNL     1      -6.789  11.463  -5.816  0.00  0.00    -0.267 OA
BRANCH  25  27
ATOM     27  C   UNL     1      -7.699  13.216  -4.585  0.00  0.00    +0.189 A 
ATOM     28  C   UNL     1      -8.324  13.892  -5.593  0.00  0.00    +0.054 A 
ATOM     29  C   UNL     1      -9.010  14.962  -4.998  0.00  0.00    +0.042 A 
ATOM     30  C   UNL     1      -8.777  14.893  -3.669  0.00  0.00    +0.196 A 
ATOM     31  O   UNL     1      -7.991  13.836  -3.423  0.00  0.00    -0.458 OA
ENDBRANCH  25  27
ENDBRANCH  13  17
BRANCH   9  32
ATOM     32  C   UNL     1      -2.433   4.493   1.019  0.00  0.00    +0.160 C 
BRANCH  32  33
ATOM     33  C   UNL     1      -2.427   4.831   2.488  0.00  0.00    -0.025 A 
ATOM     34  C   UNL     1      -2.008   3.891   3.412  0.00  0.00    +0.005 A 
ATOM     35  C   UNL     1      -1.998   4.202   4.758  0.00  0.00    +0.003 A 
ATOM     36  C   UNL     1      -2.416   5.448   5.184  0.00  0.00    +0.038 A 
ATOM     37  C   UNL     1      -2.840   6.388   4.261  0.00  0.00    +0.124 A 
ATOM     38  C   UNL     1      -2.846   6.078   2.911  0.00  0.00    +0.043 A 
ATOM     39  F   UNL     1      -3.249   7.607   4.676  0.00  0.00    -0.205 F 
ENDBRANCH  32  33
ENDBRANCH   9  32
TORSDOF 4
