REMARK  Name = ZINC12070769
REMARK  15 active torsions:
REMARK  status: ('A' for Active; 'I' for Inactive)
REMARK    1  A    between atoms: C_1  and  C_2
REMARK    2  A    between atoms: C_2  and  C_3
REMARK    3  A    between atoms: N_12  and  C_13
REMARK    4  A    between atoms: C_13  and  C_14
REMARK    5  A    between atoms: C_14  and  N_69
REMARK    6  A    between atoms: C_15  and  C_16
REMARK    7  A    between atoms: C_15  and  N_69
REMARK    8  A    between atoms: C_17  and  C_18
REMARK    9  A    between atoms: C_17  and  N_69
REMARK   10  A    between atoms: C_19  and  C_21
REMARK   11  A    between atoms: C_21  and  C_22
REMARK   12  A    between atoms: C_25  and  S_28
REMARK   13  A    between atoms: S_28  and  C_31
REMARK   14  A    between atoms: C_31  and  C_32
REMARK   15  A    between atoms: C_31  and  C_33
REMARK                            x       y       z     vdW  Elec       q    Type
REMARK                         _______ _______ _______ _____ _____    ______ ____
ROOT
ATOM      1  C   UNL     1       3.350  -1.768   0.535  0.00  0.00    -0.021 A 
ATOM      2  C   UNL     1       3.630  -0.433   0.665  0.00  0.00    +0.006 A 
ATOM      3  C   UNL     1       2.621   0.518   0.719  0.00  0.00    +0.001 A 
ATOM      4  C   UNL     1       1.302   0.110   0.641  0.00  0.00    +0.017 A 
ATOM      5  C   UNL     1       1.012  -1.224   0.511  0.00  0.00    +0.041 A 
ATOM      6  C   UNL     1       2.013  -2.221   0.452  0.00  0.00    +0.083 A 
ATOM      7  N   UNL     1       1.568  -3.490   0.324  0.00  0.00    -0.224 NA
ATOM      8  C   UNL     1       0.291  -3.787   0.257  0.00  0.00    +0.168 A 
ATOM      9  S   UNL     1      -0.481  -2.180   0.379  0.00  0.00    -0.052 S 
ATOM     10  N   UNL     1      -0.306  -5.030   0.126  0.00  0.00    -0.252 N 
ATOM     11  C   UNL     1       0.457  -6.139   0.049  0.00  0.00    +0.225 C 
ATOM     12  O   UNL     1       1.665  -6.048   0.095  0.00  0.00    -0.275 OA
ENDROOT
BRANCH   1  14
ATOM     13  C   UNL     1       4.822  -3.066  -0.980  0.00  0.00    +0.009 C 
ATOM     14  C   UNL     1       4.479  -2.765   0.480  0.00  0.00    +0.034 C 
ENDBRANCH   1  14
BRANCH  10  15
ATOM     15  C   UNL     1      -1.766  -5.139   0.071  0.00  0.00    +0.097 C 
BRANCH  15  16
ATOM     16  C   UNL     1      -2.229  -5.047  -1.384  0.00  0.00    -0.059 C 
BRANCH  16  17
ATOM     17  N   UNL     1      -3.701  -5.180  -1.425  0.00  0.00    +0.380 N 
ATOM     18  H   UNL     1      -3.974  -6.022  -0.905  0.00  0.00    -0.082 HD
BRANCH  17  19
ATOM     19  C   UNL     1      -4.332  -4.001  -0.795  0.00  0.00    -0.082 C 
ATOM     20  C   UNL     1      -3.947  -2.723  -1.542  0.00  0.00    -0.017 C 
ENDBRANCH  17  19
BRANCH  17  21
ATOM     21  C   UNL     1      -4.158  -5.311  -2.824  0.00  0.00    -0.082 C 
ATOM     22  C   UNL     1      -5.609  -5.795  -2.825  0.00  0.00    -0.017 C 
ENDBRANCH  17  21
ENDBRANCH  16  17
ENDBRANCH  15  16
ENDBRANCH  10  15
BRANCH  11  23
ATOM     23  C   UNL     1      -0.193  -7.491  -0.093  0.00  0.00    +0.131 C 
BRANCH  23  24
ATOM     24  C   UNL     1       0.872  -8.556  -0.157  0.00  0.00    -0.038 A 
ATOM     25  C   UNL     1       1.393  -8.940  -1.378  0.00  0.00    +0.006 A 
ATOM     26  C   UNL     1       2.373  -9.913  -1.436  0.00  0.00    +0.027 A 
ATOM     27  C   UNL     1       2.825 -10.509  -0.274  0.00  0.00    +0.088 A 
ATOM     28  C   UNL     1       2.300 -10.129   0.947  0.00  0.00    +0.027 A 
ATOM     29  C   UNL     1       1.323  -9.152   1.006  0.00  0.00    +0.006 A 
BRANCH  27  30
ATOM     30  S   UNL     1       4.071 -11.753  -0.348  0.00  0.00    -0.001 S 
ATOM     31  O   UNL     1       4.790 -11.474  -1.541  0.00  0.00    -0.169 OA
ATOM     32  O   UNL     1       4.716 -11.696   0.917  0.00  0.00    -0.169 OA
BRANCH  30  33
ATOM     33  C   UNL     1       3.162 -13.314  -0.516  0.00  0.00    +0.130 C 
ATOM     34  C   UNL     1       4.145 -14.485  -0.465  0.00  0.00    +0.032 C 
ATOM     35  C   UNL     1       2.155 -13.443   0.629  0.00  0.00    +0.032 C 
ENDBRANCH  30  33
ENDBRANCH  27  30
ENDBRANCH  23  24
ENDBRANCH  11  23
TORSDOF 10
