REMARK  Name = ZINC12973130
REMARK  9 active torsions:
REMARK  status: ('A' for Active; 'I' for Inactive)
REMARK    1  A    between atoms: C_1  and  C_2
REMARK    2  A    between atoms: C_2  and  C_3
REMARK    3  A    between atoms: C_3  and  C_4
REMARK    4  A    between atoms: C_7  and  C_10
REMARK    5  A    between atoms: C_10  and  C_12
REMARK    6  A    between atoms: C_10  and  N_17
REMARK    7  A    between atoms: N_17  and  C_18
REMARK    8  A    between atoms: C_18  and  C_19
REMARK    9  A    between atoms: N_21  and  N_22
REMARK                            x       y       z     vdW  Elec       q    Type
REMARK                         _______ _______ _______ _____ _____    ______ ____
ROOT
ATOM      1  C   UNL     1      -0.517  -8.136  -0.467  0.00  0.00    +0.179 C 
ENDROOT
BRANCH   1   2
ATOM      2  C   UNL     1      -1.923  -8.625  -0.230  0.00  0.00    +0.244 C 
ATOM      3  O   UNL     1      -2.866  -7.918  -0.514  0.00  0.00    -0.273 OA
ATOM      4  N   UNL     1      -2.131  -9.848   0.297  0.00  0.00    -0.223 N 
ATOM      5  H   UNL     1      -1.376 -10.413   0.523  0.00  0.00    +0.174 HD
BRANCH   4   6
ATOM      6  N   UNL     1      -3.438 -10.302   0.517  0.00  0.00    -0.137 N 
ATOM      7  C   UNL     1      -4.023 -10.368   1.731  0.00  0.00    +0.263 C 
ATOM      8  O   UNL     1      -3.538 -10.057   2.797  0.00  0.00    -0.271 OA
ATOM      9  C   UNL     1      -5.412 -10.910   1.480  0.00  0.00    +0.114 C 
ATOM     10  C   UNL     1      -6.465  -9.898   1.918  0.00  0.00    +0.035 C 
ATOM     11  C   UNL     1      -7.862 -10.453   1.628  0.00  0.00    +0.003 C 
ATOM     12  C   UNL     1      -8.052 -11.771   2.382  0.00  0.00    +0.000 C 
ATOM     13  C   UNL     1      -7.003 -12.783   1.915  0.00  0.00    +0.003 C 
ATOM     14  C   UNL     1      -5.603 -12.237   2.207  0.00  0.00    +0.035 C 
ATOM     15  N   UNL     1      -5.461 -11.107   0.026  0.00  0.00    -0.284 N 
ATOM     16  C   UNL     1      -4.262 -10.720  -0.452  0.00  0.00    +0.326 C 
ATOM     17  O   UNL     1      -3.962 -10.749  -1.629  0.00  0.00    -0.251 OA
ATOM     18  H   UNL     1      -6.209 -11.447  -0.489  0.00  0.00    +0.151 HD
ENDBRANCH   4   6
ENDBRANCH   1   2
BRANCH   1  19
ATOM     19  N   UNL     1      -0.559  -6.786  -1.044  0.00  0.00    -0.297 NA
ATOM     20  H   UNL     1      -1.081  -6.156  -0.453  0.00  0.00    +0.123 HD
BRANCH  19  21
ATOM     21  C   UNL     1       0.797  -6.276  -1.289  0.00  0.00    +0.122 C 
BRANCH  21  25
ATOM     22  C   UNL     1       0.739  -2.004  -1.265  0.00  0.00    -0.047 A 
ATOM     23  C   UNL     1       1.788  -2.685  -0.675  0.00  0.00    +0.004 A 
ATOM     24  C   UNL     1       1.806  -4.067  -0.683  0.00  0.00    +0.006 A 
ATOM     25  C   UNL     1       0.776  -4.769  -1.280  0.00  0.00    -0.026 A 
ATOM     26  C   UNL     1      -0.273  -4.088  -1.869  0.00  0.00    +0.006 A 
ATOM     27  C   UNL     1      -0.294  -2.706  -1.858  0.00  0.00    +0.004 A 
BRANCH  22  28
ATOM     28  C   UNL     1       0.718  -0.497  -1.257  0.00  0.00    +0.035 C 
BRANCH  28  30
ATOM     29  C   UNL     1      -0.019   1.526   0.010  0.00  0.00    +0.004 C 
ATOM     30  C   UNL     1       0.002  -0.004   0.002  0.00  0.00    +0.001 C 
ENDBRANCH  28  30
ENDBRANCH  22  28
ENDBRANCH  21  25
BRANCH  21  31
ATOM     31  C   UNL     1       1.282  -6.763  -2.630  0.00  0.00    +0.011 A 
ATOM     32  C   UNL     1       2.514  -7.206  -2.982  0.00  0.00    +0.013 A 
ATOM     33  C   UNL     1       2.734  -7.609  -4.286  0.00  0.00    +0.008 A 
ATOM     34  C   UNL     1       1.711  -7.549  -5.174  0.00  0.00    +0.045 A 
ATOM     35  S   UNL     1       0.382  -6.915  -4.164  0.00  0.00    -0.100 S 
ENDBRANCH  21  31
ENDBRANCH  19  21
ENDBRANCH   1  19
TORSDOF 8
