REMARK  Name = ZINC08926234
REMARK  10 active torsions:
REMARK  status: ('A' for Active; 'I' for Inactive)
REMARK    1  A    between atoms: C_1  and  C_2
REMARK    2  A    between atoms: C_2  and  C_3
REMARK    3  A    between atoms: C_3  and  C_4
REMARK    4  A    between atoms: C_8  and  C_10
REMARK    5  A    between atoms: C_8  and  C_28
REMARK    6  A    between atoms: C_10  and  N_11
REMARK    7  A    between atoms: N_13  and  C_16
REMARK    8  A    between atoms: C_16  and  C_17
REMARK    9  A    between atoms: C_17  and  C_19
REMARK   10  A    between atoms: C_22  and  N_25
REMARK                            x       y       z     vdW  Elec       q    Type
REMARK                         _______ _______ _______ _____ _____    ______ ____
ROOT
ATOM      1  C   UNL     1      -3.702   2.611   0.026  0.00  0.00    +0.215 C 
ENDROOT
BRANCH   1   5
ATOM      2  C   UNL     1      -3.260  -0.402   0.750  0.00  0.00    +0.148 C 
ATOM      3  C   UNL     1      -2.712  -0.559  -0.690  0.00  0.00    +0.195 C 
ATOM      4  O   UNL     1      -2.590   0.804  -1.143  0.00  0.00    -0.341 OA
ATOM      5  C   UNL     1      -2.523   1.636   0.022  0.00  0.00    +0.218 C 
ATOM      6  O   UNL     1      -2.587   0.802   1.191  0.00  0.00    -0.338 OA
BRANCH   5   7
ATOM      7  C   UNL     1      -1.229   2.407   0.021  0.00  0.00    +0.031 A 
ATOM      8  C   UNL     1      -1.248   3.789   0.034  0.00  0.00    +0.012 A 
ATOM      9  C   UNL     1      -0.061   4.497   0.027  0.00  0.00    +0.020 A 
ATOM     10  C   UNL     1       1.147   3.823   0.012  0.00  0.00    +0.042 A 
ATOM     11  C   UNL     1       1.167   2.440   0.004  0.00  0.00    +0.040 A 
ATOM     12  C   UNL     1      -0.021   1.732   0.012  0.00  0.00    +0.051 A 
ATOM     13 CL   UNL     1       0.002  -0.004   0.002  0.00  0.00    -0.083 Cl
ATOM     14 CL   UNL     1       2.638   4.712   0.003  0.00  0.00    -0.083 Cl
ENDBRANCH   5   7
BRANCH   2  15
ATOM     15  C   UNL     1      -2.868  -1.599   1.619  0.00  0.00    +0.034 C 
BRANCH  15  17
ATOM     16  C   UNL     1      -3.137  -2.667   3.862  0.00  0.00    +0.004 C 
ATOM     17  C   UNL     1      -3.529  -1.470   2.993  0.00  0.00    -0.001 C 
ENDBRANCH  15  17
ENDBRANCH   2  15
ENDBRANCH   1   5
BRANCH   1  18
ATOM     18  N   UNL     1      -4.959   1.858   0.027  0.00  0.00    -0.248 N 
ATOM     19  C   UNL     1      -5.963   1.968   0.913  0.00  0.00    +0.197 A 
ATOM     20  N   UNL     1      -6.905   1.128   0.567  0.00  0.00    -0.314 N 
ATOM     21  C   UNL     1      -6.535   0.461  -0.525  0.00  0.00    +0.223 A 
ATOM     22  N   UNL     1      -5.351   0.873  -0.894  0.00  0.00    -0.160 NA
BRANCH  20  23
ATOM     23  C   UNL     1      -8.173   0.944   1.278  0.00  0.00    +0.203 C 
BRANCH  23  24
ATOM     24  C   UNL     1      -8.007  -0.118   2.334  0.00  0.00    +0.183 C 
ATOM     25  O   UNL     1      -6.936  -0.667   2.479  0.00  0.00    -0.290 OA
BRANCH  24  26
ATOM     26  C   UNL     1      -9.146  -0.489   3.189  0.00  0.00    +0.019 A 
ATOM     27  C   UNL     1     -10.381   0.147   3.030  0.00  0.00    +0.013 A 
ATOM     28  C   UNL     1     -11.444  -0.209   3.833  0.00  0.00    +0.033 A 
ATOM     29  C   UNL     1     -11.288  -1.185   4.801  0.00  0.00    +0.126 A 
ATOM     30  C   UNL     1     -10.068  -1.815   4.969  0.00  0.00    +0.033 A 
ATOM     31  C   UNL     1      -8.996  -1.474   4.171  0.00  0.00    +0.013 A 
BRANCH  29  32
ATOM     32  N   UNL     1     -12.433  -1.558   5.662  0.00  0.00    +0.056 N 
ATOM     33  O   UNL     1     -12.299  -2.416   6.516  0.00  0.00    -0.126 OA
ATOM     34  O   UNL     1     -13.509  -1.005   5.517  0.00  0.00    -0.126 OA
ENDBRANCH  29  32
ENDBRANCH  24  26
ENDBRANCH  23  24
ENDBRANCH  20  23
ENDBRANCH   1  18
TORSDOF 9
