REMARK  Name = ZINC63073212
REMARK  8 active torsions:
REMARK  status: ('A' for Active; 'I' for Inactive)
REMARK    1  A    between atoms: C_7  and  C_10
REMARK    2  A    between atoms: C_10  and  C_11
REMARK    3  A    between atoms: C_11  and  N_12
REMARK    4  A    between atoms: C_13  and  C_15
REMARK    5  A    between atoms: C_15  and  N_16
REMARK    6  A    between atoms: N_16  and  C_17
REMARK    7  A    between atoms: N_16  and  C_26
REMARK    8  A    between atoms: C_17  and  C_18
REMARK                            x       y       z     vdW  Elec       q    Type
REMARK                         _______ _______ _______ _____ _____    ______ ____
ROOT
ATOM      1  N   UNL     1      -0.265  -4.775  -1.779  0.00  0.00    -0.317 N 
ATOM      2  C   UNL     1      -0.725  -5.320  -2.923  0.00  0.00    +0.196 C 
ATOM      3  O   UNL     1      -0.367  -4.875  -3.993  0.00  0.00    -0.278 OA
ATOM      4  H   UNL     1      -0.550  -5.130  -0.923  0.00  0.00    +0.149 HD
ENDROOT
BRANCH   1   5
ATOM      5  C   UNL     1       0.666  -3.645  -1.829  0.00  0.00    +0.108 C 
BRANCH   5   6
ATOM      6  C   UNL     1       1.029  -3.219  -0.405  0.00  0.00    +0.052 C 
BRANCH   6  13
ATOM      7  C   UNL     1       0.406   1.322  -0.195  0.00  0.00    +0.001 A 
ATOM      8  C   UNL     1       1.597   2.057  -0.284  0.00  0.00    +0.002 A 
ATOM      9  C   UNL     1       2.806   1.473  -0.417  0.00  0.00    +0.026 A 
ATOM     10  C   UNL     1       2.918   0.057  -0.474  0.00  0.00    +0.043 A 
ATOM     11  N   UNL     1       3.957  -0.733  -0.599  0.00  0.00    -0.380 N 
ATOM     12  C   UNL     1       3.491  -2.124  -0.602  0.00  0.00    +0.144 C 
ATOM     13  C   UNL     1       1.987  -2.057  -0.457  0.00  0.00    -0.040 C 
ATOM     14  C   UNL     1       1.675  -0.743  -0.383  0.00  0.00    -0.001 A 
ATOM     15  C   UNL     1       0.401  -0.030  -0.239  0.00  0.00    +0.010 A 
ATOM     16  H   UNL     1       4.880  -0.445  -0.678  0.00  0.00    +0.160 HD
ENDBRANCH   6  13
ENDBRANCH   5   6
ENDBRANCH   1   5
BRANCH   2  17
ATOM     17  C   UNL     1      -1.682  -6.482  -2.871  0.00  0.00    +0.019 C 
BRANCH  17  18
ATOM     18  N   UNL     1      -2.031  -6.891  -4.239  0.00  0.00    +0.390 N 
ATOM     19  H   UNL     1      -2.390  -6.096  -4.746  0.00  0.00    -0.080 HD
BRANCH  18  20
ATOM     20  C   UNL     1      -0.833  -7.404  -4.917  0.00  0.00    -0.068 C 
ATOM     21  C   UNL     1      -0.323  -6.629  -6.134  0.00  0.00    -0.017 C 
ATOM     22  C   UNL     1      -1.010  -7.983  -6.322  0.00  0.00    -0.017 C 
ENDBRANCH  18  20
BRANCH  18  23
ATOM     23  C   UNL     1      -3.054  -7.943  -4.190  0.00  0.00    -0.038 C 
BRANCH  23  24
ATOM     24  C   UNL     1      -4.323  -7.383  -3.599  0.00  0.00    -0.010 A 
ATOM     25  C   UNL     1      -4.586  -7.538  -2.249  0.00  0.00    +0.126 A 
ATOM     26  C   UNL     1      -5.752  -7.023  -1.708  0.00  0.00    +0.038 A 
ATOM     27  C   UNL     1      -6.652  -6.355  -2.516  0.00  0.00    +0.004 A 
ATOM     28  C   UNL     1      -6.390  -6.200  -3.864  0.00  0.00    +0.020 A 
ATOM     29  C   UNL     1      -5.222  -6.709  -4.405  0.00  0.00    +0.045 A 
ATOM     30 CL   UNL     1      -4.890  -6.508  -6.097  0.00  0.00    -0.083 Cl
ATOM     31  F   UNL     1      -3.706  -8.192  -1.460  0.00  0.00    -0.205 F 
ENDBRANCH  23  24
ENDBRANCH  18  23
ENDBRANCH  17  18
ENDBRANCH   2  17
TORSDOF 8
