REMARK  Name = ZINC51581061
REMARK  11 active torsions:
REMARK  status: ('A' for Active; 'I' for Inactive)
REMARK    1  A    between atoms: C_1  and  C_2
REMARK    2  A    between atoms: C_2  and  C_3
REMARK    3  A    between atoms: C_3  and  C_4
REMARK    4  A    between atoms: C_4  and  C_6
REMARK    5  A    between atoms: C_4  and  N_7
REMARK    6  A    between atoms: C_8  and  C_10
REMARK    7  A    between atoms: N_15  and  C_17
REMARK    8  A    between atoms: C_17  and  C_18
REMARK    9  A    between atoms: N_20  and  C_21
REMARK   10  A    between atoms: N_20  and  C_22
REMARK   11  A    between atoms: C_22  and  C_23
REMARK                            x       y       z     vdW  Elec       q    Type
REMARK                         _______ _______ _______ _____ _____    ______ ____
ROOT
ATOM      1  C   UNL     1      -2.345  -4.283  -1.025  0.00  0.00    +0.058 C 
ATOM      2  C   UNL     1      -2.754  -4.335  -2.500  0.00  0.00    +0.009 C 
ATOM      3  C   UNL     1      -4.157  -4.938  -2.610  0.00  0.00    -0.018 C 
ATOM      4  C   UNL     1      -4.163  -6.322  -1.957  0.00  0.00    -0.078 C 
ATOM      5  N   UNL     1      -3.789  -6.203  -0.543  0.00  0.00    +0.386 N 
ATOM      6  C   UNL     1      -2.418  -5.691  -0.431  0.00  0.00    -0.065 C 
ATOM      7  H   UNL     1      -4.423  -5.567  -0.082  0.00  0.00    -0.081 HD
ENDROOT
BRANCH   1   9
ATOM      8  N   UNL     1      -0.631  -2.534  -1.375  0.00  0.00    -0.313 N 
ATOM      9  C   UNL     1      -0.935  -3.763  -0.912  0.00  0.00    +0.215 C 
ATOM     10  O   UNL     1      -0.074  -4.449  -0.404  0.00  0.00    -0.276 OA
ATOM     11  H   UNL     1      -1.320  -1.985  -1.781  0.00  0.00    +0.149 HD
BRANCH   8  12
ATOM     12  C   UNL     1       0.739  -2.027  -1.265  0.00  0.00    +0.070 C 
ATOM     13  C   UNL     1       1.562  -2.520  -2.457  0.00  0.00    +0.028 C 
BRANCH  12  14
ATOM     14  C   UNL     1       0.718  -0.497  -1.257  0.00  0.00    +0.022 C 
BRANCH  14  16
ATOM     15  C   UNL     1      -0.019   1.526   0.010  0.00  0.00    +0.004 C 
ATOM     16  C   UNL     1       0.002  -0.004   0.002  0.00  0.00    -0.002 C 
ENDBRANCH  14  16
ENDBRANCH  12  14
ENDBRANCH   8  12
ENDBRANCH   1   9
BRANCH   5  17
ATOM     17  C   UNL     1      -3.873  -7.522   0.097  0.00  0.00    +0.019 C 
BRANCH  17  18
ATOM     18  C   UNL     1      -5.305  -7.989   0.101  0.00  0.00    +0.199 C 
ATOM     19  O   UNL     1      -6.172  -7.292  -0.382  0.00  0.00    -0.278 OA
ATOM     20  N   UNL     1      -5.623  -9.182   0.641  0.00  0.00    -0.297 N 
ATOM     21  C   UNL     1      -4.577 -10.025   1.225  0.00  0.00    +0.132 C 
BRANCH  20  22
ATOM     22  C   UNL     1      -7.016  -9.637   0.645  0.00  0.00    +0.203 C 
BRANCH  22  23
ATOM     23  C   UNL     1      -7.293 -10.417  -0.614  0.00  0.00    +0.233 C 
ATOM     24  O   UNL     1      -6.414 -10.578  -1.434  0.00  0.00    -0.274 OA
ATOM     25  N   UNL     1      -8.518 -10.936  -0.830  0.00  0.00    -0.296 N 
ATOM     26  C   UNL     1      -9.603 -10.749   0.148  0.00  0.00    +0.136 C 
ATOM     27  C   UNL     1     -10.838 -10.228  -0.595  0.00  0.00    +0.179 C 
ATOM     28  O   UNL     1     -11.121 -11.090  -1.700  0.00  0.00    -0.377 OA
ATOM     29  C   UNL     1     -10.086 -11.139  -2.684  0.00  0.00    +0.179 C 
ATOM     30  C   UNL     1      -8.813 -11.701  -2.051  0.00  0.00    +0.136 C 
ENDBRANCH  22  23
ENDBRANCH  20  22
ENDBRANCH  17  18
ENDBRANCH   5  17
TORSDOF 8
