REMARK  Name = ZINC36610364
REMARK  15 active torsions:
REMARK  status: ('A' for Active; 'I' for Inactive)
REMARK    1  A    between atoms: C_1  and  C_2
REMARK    2  A    between atoms: C_2  and  C_3
REMARK    3  A    between atoms: C_2  and  C_4
REMARK    4  A    between atoms: C_2  and  C_5
REMARK    5  A    between atoms: C_5  and  C_6
REMARK    6  A    between atoms: C_6  and  C_7
REMARK    7  A    between atoms: C_6  and  C_8
REMARK    8  A    between atoms: C_6  and  N_9
REMARK    9  A    between atoms: C_10  and  C_12
REMARK   10  A    between atoms: C_12  and  C_14
REMARK   11  A    between atoms: C_12  and  N_20
REMARK   12  A    between atoms: N_20  and  C_21
REMARK   13  A    between atoms: C_27  and  C_29
REMARK   14  A    between atoms: C_33  and  O_36
REMARK   15  A    between atoms: C_34  and  O_35
REMARK                            x       y       z     vdW  Elec       q    Type
REMARK                         _______ _______ _______ _____ _____    ______ ____
ROOT
ATOM      1  C   UNL     1       5.160   0.284  -4.008  0.00  0.00    +0.197 C 
ENDROOT
BRANCH   1   2
ATOM      2  C   UNL     1       4.374   1.222  -4.887  0.00  0.00    -0.018 A 
ATOM      3  C   UNL     1       4.782   2.534  -5.037  0.00  0.00    +0.006 A 
ATOM      4  C   UNL     1       4.061   3.394  -5.843  0.00  0.00    +0.000 A 
ATOM      5  C   UNL     1       2.932   2.943  -6.500  0.00  0.00    +0.000 A 
ATOM      6  C   UNL     1       2.523   1.631  -6.350  0.00  0.00    +0.000 A 
ATOM      7  C   UNL     1       3.247   0.769  -5.548  0.00  0.00    +0.006 A 
ENDBRANCH   1   2
BRANCH   1   9
ATOM      8  N   UNL     1       3.821   0.772  -1.986  0.00  0.00    -0.308 N 
ATOM      9  C   UNL     1       5.035   0.718  -2.570  0.00  0.00    +0.239 C 
ATOM     10  O   UNL     1       6.025   1.020  -1.939  0.00  0.00    -0.273 OA
ATOM     11  H   UNL     1       3.029   0.531  -2.491  0.00  0.00    +0.149 HD
BRANCH   8  12
ATOM     12  C   UNL     1       3.699   1.194  -0.589  0.00  0.00    +0.030 C 
ATOM     13  C   UNL     1       4.546   2.448  -0.359  0.00  0.00    +0.031 C 
ATOM     14  C   UNL     1       4.190   0.072   0.328  0.00  0.00    +0.031 C 
BRANCH  12  15
ATOM     15  C   UNL     1       2.234   1.505  -0.276  0.00  0.00    +0.031 C 
BRANCH  15  17
ATOM     16  C   UNL     1       1.257   1.389  -2.572  0.00  0.00    +0.010 C 
ATOM     17  C   UNL     1       1.631   2.323  -1.419  0.00  0.00    -0.036 C 
ATOM     18  C   UNL     1       2.654   3.351  -1.906  0.00  0.00    +0.010 C 
ATOM     19  C   UNL     1       0.377   3.047  -0.922  0.00  0.00    +0.010 C 
ENDBRANCH  15  17
ENDBRANCH  12  15
ENDBRANCH   8  12
ENDBRANCH   1   9
BRANCH   1  20
ATOM     20  N   UNL     1       6.570   0.309  -4.404  0.00  0.00    -0.251 N 
ATOM     21  C   UNL     1       7.463  -0.476  -3.770  0.00  0.00    +0.255 C 
ATOM     22  O   UNL     1       8.655  -0.300  -3.938  0.00  0.00    -0.269 OA
BRANCH  20  23
ATOM     23  C   UNL     1       6.990   1.149  -5.441  0.00  0.00    +0.038 A 
ATOM     24  C   UNL     1       7.885   2.179  -5.184  0.00  0.00    +0.023 A 
ATOM     25  C   UNL     1       8.297   3.006  -6.210  0.00  0.00    +0.002 A 
ATOM     26  C   UNL     1       7.819   2.810  -7.493  0.00  0.00    +0.000 A 
ATOM     27  C   UNL     1       6.928   1.785  -7.753  0.00  0.00    +0.002 A 
ATOM     28  C   UNL     1       6.517   0.950  -6.732  0.00  0.00    +0.023 A 
ENDBRANCH  20  23
BRANCH  21  29
ATOM     29  C   UNL     1       6.995  -1.548  -2.872  0.00  0.00    +0.082 A 
ATOM     30  C   UNL     1       5.647  -1.621  -2.507  0.00  0.00    +0.017 A 
ATOM     31  C   UNL     1       5.214  -2.624  -1.668  0.00  0.00    +0.005 A 
ATOM     32  C   UNL     1       6.108  -3.565  -1.182  0.00  0.00    +0.049 A 
ATOM     33  C   UNL     1       7.445  -3.506  -1.534  0.00  0.00    +0.159 A 
ATOM     34  C   UNL     1       7.897  -2.502  -2.385  0.00  0.00    +0.171 A 
BRANCH  34  35
ATOM     35  O   UNL     1       9.207  -2.445  -2.738  0.00  0.00    -0.503 OA
ATOM     36  H   UNL     1       9.752  -1.914  -2.140  0.00  0.00    +0.292 HD
ENDBRANCH  34  35
BRANCH  33  37
ATOM     37  O   UNL     1       8.316  -4.433  -1.052  0.00  0.00    -0.503 OA
ATOM     38  H   UNL     1       8.407  -5.216  -1.612  0.00  0.00    +0.292 HD
ENDBRANCH  33  37
ENDBRANCH  21  29
ENDBRANCH   1  20
TORSDOF 10
