REMARK  Name = ZINC40815231
REMARK  7 active torsions:
REMARK  status: ('A' for Active; 'I' for Inactive)
REMARK    1  A    between atoms: C_1  and  C_2
REMARK    2  A    between atoms: C_5  and  S_8
REMARK    3  A    between atoms: S_8  and  N_11
REMARK    4  A    between atoms: N_11  and  N_12
REMARK    5  A    between atoms: C_19  and  C_35
REMARK    6  A    between atoms: C_20  and  C_22
REMARK    7  A    between atoms: N_24  and  C_25
REMARK                            x       y       z     vdW  Elec       q    Type
REMARK                         _______ _______ _______ _____ _____    ______ ____
ROOT
ATOM      1  N   UNL     1       2.485  -4.647   1.038  0.00  0.00    -0.170 NA
ATOM      2  C   UNL     1       3.728  -5.015   1.028  0.00  0.00    +0.071 C 
ATOM      3  C   UNL     1       4.321  -5.859  -0.092  0.00  0.00    +0.058 C 
ATOM      4  C   UNL     1       5.228  -6.921   0.536  0.00  0.00    +0.014 C 
ATOM      5  C   UNL     1       6.420  -6.267   1.240  0.00  0.00    +0.075 C 
ATOM      6  C   UNL     1       5.920  -5.221   2.204  0.00  0.00    +0.115 A 
ATOM      7  C   UNL     1       4.677  -4.641   2.102  0.00  0.00    +0.042 A 
ATOM      8  C   UNL     1       4.552  -3.722   3.150  0.00  0.00    +0.009 A 
ATOM      9  C   UNL     1       5.729  -3.773   3.845  0.00  0.00    +0.193 A 
ATOM     10  O   UNL     1       6.536  -4.690   3.259  0.00  0.00    -0.454 OA
ATOM     11  C   UNL     1       3.360  -2.851   3.451  0.00  0.00    +0.048 C 
ENDROOT
BRANCH   9  12
ATOM     12  C   UNL     1       6.056  -2.977   5.033  0.00  0.00    +0.284 C 
ATOM     13  O   UNL     1       5.245  -2.188   5.480  0.00  0.00    -0.266 OA
ATOM     14  N   UNL     1       7.256  -3.121   5.630  0.00  0.00    -0.278 N 
ATOM     15  H   UNL     1       7.877  -3.796   5.314  0.00  0.00    +0.155 HD
BRANCH  14  16
ATOM     16  C   UNL     1       7.605  -2.298   6.701  0.00  0.00    +0.042 A 
ATOM     17  C   UNL     1       6.647  -1.885   7.602  0.00  0.00    +0.024 A 
ATOM     18  C   UNL     1       6.984  -1.064   8.674  0.00  0.00    +0.002 A 
ATOM     19  C   UNL     1       8.267  -0.648   8.864  0.00  0.00    +0.008 A 
ATOM     20  C   UNL     1       9.274  -1.047   7.969  0.00  0.00    -0.016 A 
ATOM     21  C   UNL     1       8.944  -1.887   6.877  0.00  0.00    +0.003 A 
ATOM     22  C   UNL     1       9.952  -2.288   5.986  0.00  0.00    +0.010 A 
ATOM     23  C   UNL     1      11.233  -1.872   6.186  0.00  0.00    +0.001 A 
ATOM     24  C   UNL     1      11.560  -1.051   7.263  0.00  0.00    +0.001 A 
ATOM     25  C   UNL     1      10.606  -0.632   8.140  0.00  0.00    +0.008 A 
ENDBRANCH  14  16
ENDBRANCH   9  12
BRANCH   1  26
ATOM     26  N   UNL     1       1.632  -5.031  -0.005  0.00  0.00    -0.136 N 
ATOM     27  H   UNL     1       1.972  -5.572  -0.735  0.00  0.00    +0.197 HD
BRANCH  26  28
ATOM     28  S   UNL     1       0.045  -4.560   0.008  0.00  0.00    +0.086 S 
ATOM     29  O   UNL     1      -0.491  -4.972   1.258  0.00  0.00    -0.149 OA
ATOM     30  O   UNL     1      -0.512  -4.974  -1.232  0.00  0.00    -0.149 OA
BRANCH  28  35
ATOM     31  C   UNL     1      -0.032   1.473   0.003  0.00  0.00    +0.044 C 
ATOM     32  C   UNL     1      -0.012  -0.034   0.004  0.00  0.00    -0.050 A 
ATOM     33  C   UNL     1      -0.013  -0.726  -1.192  0.00  0.00    +0.005 A 
ATOM     34  C   UNL     1       0.005  -2.108  -1.191  0.00  0.00    +0.029 A 
ATOM     35  C   UNL     1       0.023  -2.798   0.006  0.00  0.00    +0.110 A 
ATOM     36  C   UNL     1       0.025  -2.106   1.203  0.00  0.00    +0.029 A 
ATOM     37  C   UNL     1       0.011  -0.724   1.202  0.00  0.00    +0.005 A 
ENDBRANCH  28  35
ENDBRANCH  26  28
ENDBRANCH   1  26
TORSDOF 5
