REMARK  Name = ZINC44243873
REMARK  5 active torsions:
REMARK  status: ('A' for Active; 'I' for Inactive)
REMARK    1  A    between atoms: C_2  and  S_8
REMARK    2  A    between atoms: S_8  and  N_11
REMARK    3  A    between atoms: N_11  and  C_12
REMARK    4  A    between atoms: C_12  and  C_17
REMARK    5  A    between atoms: N_18  and  O_19
REMARK                            x       y       z     vdW  Elec       q    Type
REMARK                         _______ _______ _______ _____ _____    ______ ____
ROOT
ATOM      1  N   UNL     1       1.165   4.539   1.590  0.00  0.00    -0.177 NA
ATOM      2  H   UNL     1       0.558   3.985   1.075  0.00  0.00    +0.149 HD
ENDROOT
BRANCH   1   3
ATOM      3  C   UNL     1       2.255   3.920   2.349  0.00  0.00    +0.098 C 
ATOM      4  C   UNL     1       2.237   2.382   2.167  0.00  0.00    +0.031 C 
ATOM      5  C   UNL     1       1.141   1.932   3.164  0.00  0.00    +0.002 C 
ATOM      6  C   UNL     1       1.333   2.859   4.381  0.00  0.00    +0.002 C 
ATOM      7  C   UNL     1       2.041   4.123   3.864  0.00  0.00    +0.031 C 
BRANCH   3   8
ATOM      8  C   UNL     1       3.583   4.489   1.923  0.00  0.00    +0.153 C 
ATOM      9  N   UNL     1       3.920   4.478   0.676  0.00  0.00    -0.075 NA
ATOM     10  N   UNL     1       4.438   5.021   2.862  0.00  0.00    -0.342 N 
ATOM     11  H   UNL     1       4.224   4.953   3.806  0.00  0.00    +0.144 HD
ATOM     12  H   UNL     1       5.253   5.465   2.580  0.00  0.00    +0.144 HD
BRANCH   9  13
ATOM     13  O   UNL     1       3.024   3.970  -0.295  0.00  0.00    -0.408 OA
ATOM     14  H   UNL     1       3.364   4.003  -1.200  0.00  0.00    +0.328 HD
ENDBRANCH   9  13
ENDBRANCH   3   8
ENDBRANCH   1   3
BRANCH   1  15
ATOM     15  S   UNL     1       0.971   6.183   1.612  0.00  0.00    +0.061 S 
ATOM     16  O   UNL     1       1.026   6.581   2.975  0.00  0.00    -0.153 OA
ATOM     17  O   UNL     1      -0.144   6.471   0.779  0.00  0.00    -0.153 OA
BRANCH  15  19
ATOM     18  C   UNL     1       2.442   6.976  -0.557  0.00  0.00    +0.046 A 
ATOM     19  C   UNL     1       2.382   6.885   0.825  0.00  0.00    +0.124 A 
ATOM     20  C   UNL     1       3.443   7.352   1.577  0.00  0.00    +0.139 A 
ATOM     21  N   UNL     1       4.503   7.879   0.996  0.00  0.00    -0.260 NA
ATOM     22  C   UNL     1       4.595   7.982  -0.315  0.00  0.00    +0.126 A 
ATOM     23  C   UNL     1       3.573   7.537  -1.133  0.00  0.00    +0.038 A 
ATOM     24 BR   UNL     1       3.715   7.689  -3.013  0.00  0.00    -0.049 Br
ENDBRANCH  15  19
ENDBRANCH   1  15
TORSDOF 5
