REMARK  Name = ZINC39778313
REMARK  10 active torsions:
REMARK  status: ('A' for Active; 'I' for Inactive)
REMARK    1  A    between atoms: C_1  and  N_2
REMARK    2  A    between atoms: N_2  and  C_3
REMARK    3  A    between atoms: N_2  and  C_4
REMARK    4  A    between atoms: C_4  and  C_6
REMARK    5  A    between atoms: C_4  and  C_28
REMARK    6  A    between atoms: C_6  and  N_7
REMARK    7  A    between atoms: C_8  and  C_10
REMARK    8  A    between atoms: C_10  and  S_11
REMARK    9  A    between atoms: S_11  and  C_12
REMARK   10  A    between atoms: C_12  and  C_13
REMARK                            x       y       z     vdW  Elec       q    Type
REMARK                         _______ _______ _______ _____ _____    ______ ____
ROOT
ATOM      1  N   UNL     1      -0.964  -2.611   0.830  0.00  0.00    -0.316 N 
ATOM      2  C   UNL     1      -1.054  -3.951   0.934  0.00  0.00    +0.223 C 
ATOM      3  O   UNL     1      -1.720  -4.578   0.139  0.00  0.00    -0.275 OA
ATOM      4  H   UNL     1      -0.430  -2.109   1.467  0.00  0.00    +0.149 HD
ENDROOT
BRANCH   1   5
ATOM      5  C   UNL     1      -1.671  -1.911  -0.244  0.00  0.00    +0.093 C 
BRANCH   5   6
ATOM      6  C   UNL     1      -1.510  -0.400  -0.062  0.00  0.00    -0.020 C 
BRANCH   6   7
ATOM      7  C   UNL     1      -0.062  -0.024  -0.246  0.00  0.00    -0.041 A 
ATOM      8  C   UNL     1       0.770   0.082   0.852  0.00  0.00    +0.003 A 
ATOM      9  C   UNL     1       2.098   0.427   0.683  0.00  0.00    +0.000 A 
ATOM     10  C   UNL     1       2.595   0.666  -0.584  0.00  0.00    +0.001 A 
ATOM     11  C   UNL     1       1.764   0.560  -1.684  0.00  0.00    +0.020 A 
ATOM     12  C   UNL     1       0.436   0.210  -1.516  0.00  0.00    +0.043 A 
ATOM     13 CL   UNL     1      -0.607   0.071  -2.897  0.00  0.00    -0.083 Cl
ENDBRANCH   6   7
BRANCH   6  15
ATOM     14  C   UNL     1      -1.832   1.435   1.448  0.00  0.00    -0.096 C 
ATOM     15  N   UNL     1      -1.946  -0.020   1.288  0.00  0.00    +0.382 N 
ATOM     16  C   UNL     1      -3.344  -0.426   1.483  0.00  0.00    -0.096 C 
ATOM     17  H   UNL     1      -1.364  -0.481   1.972  0.00  0.00    -0.082 HD
ENDBRANCH   6  15
ENDBRANCH   5   6
ENDBRANCH   1   5
BRANCH   2  18
ATOM     18  C   UNL     1      -0.325  -4.672   2.040  0.00  0.00    +0.165 C 
BRANCH  18  19
ATOM     19  S   UNL     1      -0.642  -6.453   1.912  0.00  0.00    -0.144 S 
BRANCH  19  20
ATOM     20  C   UNL     1       0.292  -7.165   3.294  0.00  0.00    +0.143 C 
BRANCH  20  21
ATOM     21  C   UNL     1       0.113  -8.662   3.304  0.00  0.00    +0.133 C 
ATOM     22  N   UNL     1      -0.636  -9.204   2.373  0.00  0.00    -0.161 NA
ATOM     23  C   UNL     1      -0.852 -10.521   2.295  0.00  0.00    +0.271 C 
ATOM     24  O   UNL     1      -1.558 -10.991   1.419  0.00  0.00    -0.268 OA
ATOM     25  C   UNL     1      -0.201 -11.400   3.317  0.00  0.00    +0.071 C 
ATOM     26  C   UNL     1      -0.228 -12.743   3.392  0.00  0.00    -0.042 C 
ATOM     27  C   UNL     1      -0.816 -13.644   2.309  0.00  0.00    +0.033 C 
ATOM     28  C   UNL     1       0.287 -14.633   1.908  0.00  0.00    +0.004 C 
ATOM     29  C   UNL     1       0.838 -15.339   3.144  0.00  0.00    +0.002 C 
ATOM     30  C   UNL     1       1.506 -14.338   4.092  0.00  0.00    +0.019 C 
ATOM     31  C   UNL     1       0.438 -13.371   4.611  0.00  0.00    +0.079 C 
ATOM     32  S   UNL     1       1.235 -11.922   5.400  0.00  0.00    -0.097 S 
ATOM     33  C   UNL     1       0.607 -10.666   4.313  0.00  0.00    +0.111 C 
ATOM     34  N   UNL     1       0.724  -9.361   4.247  0.00  0.00    -0.227 NA
ENDBRANCH  20  21
ENDBRANCH  19  20
ENDBRANCH  18  19
ENDBRANCH   2  18
TORSDOF 8
