REMARK  Name = ZINC12329172
REMARK  8 active torsions:
REMARK  status: ('A' for Active; 'I' for Inactive)
REMARK    1  A    between atoms: C_1  and  C_2
REMARK    2  A    between atoms: C_8  and  O_33
REMARK    3  A    between atoms: C_17  and  C_18
REMARK    4  A    between atoms: C_17  and  N_63
REMARK    5  A    between atoms: C_18  and  C_20
REMARK    6  A    between atoms: C_18  and  O_32
REMARK    7  A    between atoms: C_21  and  C_31
REMARK    8  A    between atoms: C_28  and  C_30
REMARK                            x       y       z     vdW  Elec       q    Type
REMARK                         _______ _______ _______ _____ _____    ______ ____
ROOT
ATOM      1  C   UNL     1      -2.404  -2.631   8.472  0.00  0.00    +0.044 C 
ATOM      2  C   UNL     1      -2.522  -1.902   7.158  0.00  0.00    -0.050 A 
ATOM      3  C   UNL     1      -2.582  -2.616   5.975  0.00  0.00    +0.007 A 
ATOM      4  C   UNL     1      -2.695  -1.948   4.773  0.00  0.00    +0.046 A 
ATOM      5  C   UNL     1      -2.746  -0.558   4.746  0.00  0.00    +0.127 A 
ATOM      6  C   UNL     1      -2.678   0.154   5.931  0.00  0.00    +0.023 A 
ATOM      7  C   UNL     1      -2.570  -0.522   7.135  0.00  0.00    +0.013 A 
ATOM      8  C   UNL     1      -2.710   1.661   5.946  0.00  0.00    +0.152 C 
ATOM      9  C   UNL     1      -3.260   2.180   4.615  0.00  0.00    +0.084 C 
ATOM     10  C   UNL     1      -2.538   1.452   3.477  0.00  0.00    +0.110 C 
ATOM     11  O   UNL     1      -2.863   0.064   3.544  0.00  0.00    -0.485 OA
ATOM     12  C   UNL     1      -1.027   1.638   3.626  0.00  0.00    +0.029 C 
ATOM     13  C   UNL     1      -0.316   0.963   2.451  0.00  0.00    -0.075 C 
ATOM     14  C   UNL     1      -2.222   1.341   1.003  0.00  0.00    -0.075 C 
ATOM     15  C   UNL     1      -2.992   2.027   2.134  0.00  0.00    +0.029 C 
ATOM     16  N   UNL     1      -0.776   1.585   1.191  0.00  0.00    +0.382 N 
ATOM     17  H   UNL     1      -0.612   2.597   1.241  0.00  0.00    -0.082 HD
ENDROOT
BRANCH   8  18
ATOM     18  O   UNL     1      -3.549   2.108   7.013  0.00  0.00    -0.387 OA
ATOM     19  H   UNL     1      -3.259   1.819   7.889  0.00  0.00    +0.210 HD
ENDBRANCH   8  18
BRANCH  16  20
ATOM     20  C   UNL     1      -0.018   1.032   0.050  0.00  0.00    -0.042 C 
BRANCH  20  21
ATOM     21  C   UNL     1      -0.591   1.600  -1.251  0.00  0.00    +0.130 C 
BRANCH  21  22
ATOM     22  C   UNL     1       0.201   1.074  -2.420  0.00  0.00    +0.007 A 
ATOM     23  C   UNL     1      -0.193   0.133  -3.293  0.00  0.00    +0.019 A 
ATOM     24  N   UNL     1       0.790  -0.085  -4.219  0.00  0.00    -0.358 N 
ATOM     25  H   UNL     1       0.736  -0.720  -4.951  0.00  0.00    +0.166 HD
ATOM     26  C   UNL     1       1.868   0.731  -3.959  0.00  0.00    +0.047 A 
ATOM     27  C   UNL     1       1.544   1.497  -2.824  0.00  0.00    +0.005 A 
ATOM     28  C   UNL     1       2.464   2.419  -2.320  0.00  0.00    +0.010 A 
ATOM     29  C   UNL     1       3.671   2.581  -2.940  0.00  0.00    +0.004 A 
ATOM     30  C   UNL     1       3.993   1.832  -4.063  0.00  0.00    -0.048 A 
ATOM     31  C   UNL     1       3.103   0.912  -4.574  0.00  0.00    +0.029 A 
ATOM     32  C   UNL     1       5.330   2.026  -4.731  0.00  0.00    +0.044 C 
ATOM     33  C   UNL     1      -1.521  -0.578  -3.257  0.00  0.00    +0.063 C 
ENDBRANCH  21  22
BRANCH  21  34
ATOM     34  O   UNL     1      -0.510   3.026  -1.224  0.00  0.00    -0.389 OA
ATOM     35  H   UNL     1       0.380   3.367  -1.056  0.00  0.00    +0.210 HD
ENDBRANCH  21  34
ENDBRANCH  20  21
ENDBRANCH  16  20
TORSDOF 5
