REMARK  Name = ZINC39225679
REMARK  13 active torsions:
REMARK  status: ('A' for Active; 'I' for Inactive)
REMARK    1  A    between atoms: C_1  and  C_2
REMARK    2  A    between atoms: C_2  and  C_3
REMARK    3  A    between atoms: C_3  and  C_5
REMARK    4  A    between atoms: C_3  and  C_6
REMARK    5  A    between atoms: N_8  and  C_9
REMARK    6  A    between atoms: N_12  and  C_34
REMARK    7  A    between atoms: N_19  and  C_22
REMARK    8  A    between atoms: C_22  and  C_23
REMARK    9  A    between atoms: N_25  and  C_26
REMARK   10  A    between atoms: C_26  and  C_27
REMARK   11  A    between atoms: C_27  and  C_28
REMARK   12  A    between atoms: C_28  and  N_29
REMARK   13  A    between atoms: C_34  and  C_35
REMARK                            x       y       z     vdW  Elec       q    Type
REMARK                         _______ _______ _______ _____ _____    ______ ____
ROOT
ATOM      1  C   UNL     1       1.637  -3.733  -2.825  0.00  0.00    +0.177 C 
ATOM      2  C   UNL     1       1.842  -4.592  -4.074  0.00  0.00    +0.137 C 
ATOM      3  N   UNL     1       2.316  -5.923  -3.689  0.00  0.00    -0.322 N 
ATOM      4  C   UNL     1       1.727  -6.557  -2.588  0.00  0.00    +0.052 A 
ATOM      5  C   UNL     1       0.881  -7.639  -2.766  0.00  0.00    +0.025 A 
ATOM      6  C   UNL     1       0.291  -8.238  -1.668  0.00  0.00    +0.002 A 
ATOM      7  C   UNL     1       0.541  -7.760  -0.395  0.00  0.00    +0.002 A 
ATOM      8  C   UNL     1       1.391  -6.684  -0.209  0.00  0.00    +0.025 A 
ATOM      9  C   UNL     1       1.995  -6.087  -1.302  0.00  0.00    +0.058 A 
ATOM     10  N   UNL     1       2.902  -5.033  -1.134  0.00  0.00    -0.259 N 
ATOM     11  C   UNL     1       2.796  -3.912  -1.880  0.00  0.00    +0.242 C 
ATOM     12  O   UNL     1       3.637  -3.042  -1.787  0.00  0.00    -0.273 OA
ENDROOT
BRANCH   1  15
ATOM     13  C   UNL     1       0.879  -1.451  -2.432  0.00  0.00    +0.216 C 
ATOM     14  O   UNL     1       0.361  -1.831  -1.404  0.00  0.00    -0.276 OA
ATOM     15  N   UNL     1       1.542  -2.324  -3.216  0.00  0.00    -0.302 N 
ATOM     16  H   UNL     1       1.956  -2.019  -4.038  0.00  0.00    +0.150 HD
BRANCH  13  17
ATOM     17  C   UNL     1       0.781  -0.002  -2.834  0.00  0.00    +0.072 C 
ATOM     18  C   UNL     1       0.075   0.106  -4.187  0.00  0.00    +0.017 C 
BRANCH  17  20
ATOM     19  C   UNL     1      -0.012   2.258  -2.121  0.00  0.00    +0.004 C 
ATOM     20  C   UNL     1      -0.018   0.767  -1.779  0.00  0.00    +0.009 C 
ENDBRANCH  17  20
ENDBRANCH  13  17
ENDBRANCH   1  15
BRANCH  10  21
ATOM     21  C   UNL     1       3.976  -5.149  -0.144  0.00  0.00    +0.209 C 
BRANCH  21  22
ATOM     22  C   UNL     1       5.227  -5.653  -0.817  0.00  0.00    +0.231 C 
ATOM     23  O   UNL     1       5.255  -5.788  -2.022  0.00  0.00    -0.274 OA
ATOM     24  N   UNL     1       6.314  -5.954  -0.079  0.00  0.00    -0.314 N 
ATOM     25  H   UNL     1       6.320  -5.772   0.873  0.00  0.00    +0.149 HD
BRANCH  24  26
ATOM     26  C   UNL     1       7.488  -6.555  -0.717  0.00  0.00    +0.106 C 
BRANCH  26  27
ATOM     27  C   UNL     1       8.525  -6.906   0.352  0.00  0.00    +0.040 C 
BRANCH  27  28
ATOM     28  C   UNL     1       9.751  -7.535  -0.314  0.00  0.00    +0.124 C 
BRANCH  28  29
ATOM     29  N   UNL     1      10.744  -7.871   0.710  0.00  0.00    -0.338 N 
ATOM     30  C   UNL     1      11.743  -7.056   1.171  0.00  0.00    +0.104 A 
ATOM     31  C   UNL     1      12.418  -7.757   2.102  0.00  0.00    +0.101 A 
ATOM     32  N   UNL     1      11.848  -8.966   2.205  0.00  0.00    -0.352 N 
ATOM     33  C   UNL     1      10.841  -9.040   1.379  0.00  0.00    +0.173 A 
ATOM     34  H   UNL     1      12.136  -9.674   2.804  0.00  0.00    +0.166 HD
ENDBRANCH  28  29
ENDBRANCH  27  28
ENDBRANCH  26  27
ENDBRANCH  24  26
ENDBRANCH  21  22
ENDBRANCH  10  21
BRANCH   3  35
ATOM     35  C   UNL     1       3.388  -6.579  -4.442  0.00  0.00    +0.143 C 
BRANCH  35  36
ATOM     36  C   UNL     1       2.799  -7.306  -5.623  0.00  0.00    +0.007 A 
ATOM     37  C   UNL     1       2.450  -8.675  -5.681  0.00  0.00    +0.046 A 
ATOM     38  C   UNL     1       1.962  -8.901  -6.914  0.00  0.00    +0.195 A 
ATOM     39  O   UNL     1       1.998  -7.749  -7.603  0.00  0.00    -0.471 OA
ATOM     40  C   UNL     1       2.500  -6.777  -6.823  0.00  0.00    +0.200 A 
ENDBRANCH  35  36
ENDBRANCH   3  35
TORSDOF 11
