REMARK  Name = ZINC39688224
REMARK  10 active torsions:
REMARK  status: ('A' for Active; 'I' for Inactive)
REMARK    1  A    between atoms: C_1  and  C_2
REMARK    2  A    between atoms: C_2  and  C_3
REMARK    3  A    between atoms: C_3  and  C_4
REMARK    4  A    between atoms: C_3  and  C_6
REMARK    5  A    between atoms: C_4  and  C_5
REMARK    6  A    between atoms: C_10  and  C_19
REMARK    7  A    between atoms: N_21  and  C_22
REMARK    8  A    between atoms: C_22  and  C_23
REMARK    9  A    between atoms: C_23  and  O_24
REMARK   10  A    between atoms: O_24  and  C_25
REMARK                            x       y       z     vdW  Elec       q    Type
REMARK                         _______ _______ _______ _____ _____    ______ ____
ROOT
ATOM      1  C   UNL     1       0.552  -2.017  -1.679  0.00  0.00    +0.219 C 
ATOM      2  O   UNL     1       1.474  -2.775  -1.892  0.00  0.00    -0.275 OA
ATOM      3  N   UNL     1      -0.703  -2.496  -1.568  0.00  0.00    -0.300 N 
ATOM      4  C   UNL     1      -1.948  -1.733  -1.319  0.00  0.00    +0.121 C 
ATOM      5  C   UNL     1      -3.007  -2.409  -2.217  0.00  0.00    +0.100 C 
ATOM      6  C   UNL     1      -2.478  -3.836  -2.442  0.00  0.00    -0.004 C 
ATOM      7  C   UNL     1      -1.149  -3.906  -1.675  0.00  0.00    +0.115 C 
ATOM      8  C   UNL     1      -3.465  -4.858  -1.886  0.00  0.00    -0.010 C 
ATOM      9  C   UNL     1      -2.945  -6.270  -2.173  0.00  0.00    -0.082 C 
ATOM     10  N   UNL     1      -2.786  -6.450  -3.621  0.00  0.00    +0.379 N 
ATOM     11  C   UNL     1      -1.767  -5.525  -4.132  0.00  0.00    -0.082 C 
ATOM     12  C   UNL     1      -2.237  -4.082  -3.928  0.00  0.00    -0.010 C 
ATOM     13  H   UNL     1      -2.502  -7.399  -3.812  0.00  0.00    -0.086 HD
ATOM     14  H   UNL     1      -3.665  -6.267  -4.080  0.00  0.00    -0.086 HD
ENDROOT
BRANCH   5  15
ATOM     15  C   UNL     1      -4.342  -2.446  -1.518  0.00  0.00    +0.218 C 
ATOM     16  O   UNL     1      -4.393  -2.426  -0.306  0.00  0.00    -0.275 OA
ATOM     17  N   UNL     1      -5.479  -2.501  -2.239  0.00  0.00    -0.312 N 
ATOM     18  H   UNL     1      -5.439  -2.517  -3.208  0.00  0.00    +0.149 HD
BRANCH  17  19
ATOM     19  C   UNL     1      -6.776  -2.536  -1.560  0.00  0.00    +0.145 C 
BRANCH  19  20
ATOM     20  C   UNL     1      -7.896  -2.596  -2.601  0.00  0.00    +0.247 C 
BRANCH  20  21
ATOM     21  O   UNL     1      -7.812  -3.828  -3.320  0.00  0.00    -0.490 OA
BRANCH  21  22
ATOM     22  C   UNL     1      -8.741  -4.042  -4.289  0.00  0.00    +0.121 A 
ATOM     23  C   UNL     1      -9.709  -3.082  -4.546  0.00  0.00    +0.048 A 
ATOM     24  C   UNL     1     -10.653  -3.300  -5.531  0.00  0.00    +0.042 A 
ATOM     25  C   UNL     1     -10.633  -4.476  -6.262  0.00  0.00    +0.124 A 
ATOM     26  C   UNL     1      -9.667  -5.435  -6.006  0.00  0.00    +0.042 A 
ATOM     27  C   UNL     1      -8.718  -5.217  -5.026  0.00  0.00    +0.048 A 
ATOM     28  F   UNL     1     -11.556  -4.689  -7.225  0.00  0.00    -0.205 F 
ENDBRANCH  21  22
ENDBRANCH  20  21
ENDBRANCH  19  20
ENDBRANCH  17  19
ENDBRANCH   5  15
BRANCH   1  29
ATOM     29  C   UNL     1       0.809  -0.539  -1.539  0.00  0.00    +0.075 C 
BRANCH  29  31
ATOM     30  C   UNL     1       0.485   1.450  -0.062  0.00  0.00    +0.004 C 
ATOM     31  C   UNL     1       0.356  -0.071  -0.154  0.00  0.00    +0.009 C 
ENDBRANCH  29  31
BRANCH  29  32
ATOM     32  C   UNL     1       2.305  -0.263  -1.706  0.00  0.00    +0.009 C 
ATOM     33  C   UNL     1       2.724  -0.577  -3.143  0.00  0.00    +0.004 C 
ENDBRANCH  29  32
ENDBRANCH   1  29
TORSDOF 8
