REMARK  Name = ZINC63490759
REMARK  8 active torsions:
REMARK  status: ('A' for Active; 'I' for Inactive)
REMARK    1  A    between atoms: C_1  and  C_2
REMARK    2  A    between atoms: C_14  and  C_19
REMARK    3  A    between atoms: C_16  and  C_18
REMARK    4  A    between atoms: C_19  and  C_20
REMARK    5  A    between atoms: C_20  and  C_21
REMARK    6  A    between atoms: N_23  and  C_24
REMARK    7  A    between atoms: C_24  and  C_25
REMARK    8  A    between atoms: C_25  and  C_26
REMARK                            x       y       z     vdW  Elec       q    Type
REMARK                         _______ _______ _______ _____ _____    ______ ____
ROOT
ATOM      1  C   UNL     1       2.619  -3.986   6.319  0.00  0.00    +0.096 C 
ENDROOT
BRANCH   1   2
ATOM      2  C   UNL     1       4.117  -4.075   6.176  0.00  0.00    +0.213 C 
ATOM      3  O   UNL     1       4.709  -3.274   5.484  0.00  0.00    -0.276 OA
ATOM      4  N   UNL     1       4.799  -5.046   6.816  0.00  0.00    -0.315 N 
ATOM      5  H   UNL     1       4.325  -5.687   7.370  0.00  0.00    +0.149 HD
BRANCH   4   6
ATOM      6  C   UNL     1       6.254  -5.133   6.677  0.00  0.00    +0.108 C 
BRANCH   6   7
ATOM      7  C   UNL     1       6.776  -6.313   7.499  0.00  0.00    +0.052 C 
BRANCH   7   8
ATOM      8  C   UNL     1       8.273  -6.402   7.356  0.00  0.00    -0.040 C 
ATOM      9  C   UNL     1       9.203  -5.883   8.190  0.00  0.00    +0.000 A 
ATOM     10  C   UNL     1       9.101  -5.109   9.433  0.00  0.00    +0.030 A 
ATOM     11  C   UNL     1      10.236  -4.720  10.058  0.00  0.00    +0.042 A 
ATOM     12  C   UNL     1      11.504  -5.036   9.549  0.00  0.00    +0.022 A 
ATOM     13  C   UNL     1      11.677  -5.744   8.413  0.00  0.00    +0.027 A 
ATOM     14  C   UNL     1      10.552  -6.205   7.674  0.00  0.00    +0.043 A 
ATOM     15  N   UNL     1      10.461  -6.895   6.564  0.00  0.00    -0.380 N 
ATOM     16  C   UNL     1       9.041  -7.096   6.253  0.00  0.00    +0.144 C 
ATOM     17 CL   UNL     1      10.120  -3.804  11.529  0.00  0.00    -0.084 Cl
ATOM     18  H   UNL     1      11.207  -7.222   6.037  0.00  0.00    +0.160 HD
ENDBRANCH   7   8
ENDBRANCH   6   7
ENDBRANCH   4   6
ENDBRANCH   1   2
BRANCH   1  19
ATOM     19  C   UNL     1       2.098  -2.806   5.497  0.00  0.00    +0.024 C 
BRANCH  19  33
ATOM     20  C   UNL     1      -0.018   1.503   0.010  0.00  0.00    +0.047 C 
ATOM     21  C   UNL     1       0.002  -0.004   0.002  0.00  0.00    -0.005 A 
ATOM     22  C   UNL     1       0.009  -0.802  -1.074  0.00  0.00    +0.199 A 
ATOM     23  O   UNL     1       0.028  -2.092  -0.694  0.00  0.00    -0.463 OA
ATOM     24  C   UNL     1       0.037  -2.197   0.651  0.00  0.00    +0.139 A 
ATOM     25  C   UNL     1       0.025  -0.892   1.171  0.00  0.00    +0.024 A 
ATOM     26  C   UNL     1       0.032  -0.690   2.549  0.00  0.00    +0.019 A 
ATOM     27  C   UNL     1       0.058  -1.762   3.403  0.00  0.00    -0.001 A 
ATOM     28  C   UNL     1       0.080  -3.055   2.897  0.00  0.00    +0.139 A 
ATOM     29  C   UNL     1       0.059  -3.272   1.526  0.00  0.00    +0.093 A 
ATOM     30  O   UNL     1       0.126  -4.144   3.715  0.00  0.00    -0.425 OA
ATOM     31  C   UNL     1      -0.071  -3.942   5.032  0.00  0.00    +0.316 C 
ATOM     32  O   UNL     1      -0.735  -4.702   5.696  0.00  0.00    -0.250 OA
ATOM     33  C   UNL     1       0.578  -2.715   5.642  0.00  0.00    +0.106 C 
ATOM     34  C   UNL     1       0.054  -1.490   4.887  0.00  0.00    +0.033 C 
ATOM     35  C   UNL     1      -1.373  -1.183   5.344  0.00  0.00    +0.013 C 
ENDBRANCH  19  33
ENDBRANCH   1  19
TORSDOF 6
