REMARK  Name = ZINC13000503
REMARK  11 active torsions:
REMARK  status: ('A' for Active; 'I' for Inactive)
REMARK    1  A    between atoms: C_1  and  C_2
REMARK    2  A    between atoms: C_5  and  N_34
REMARK    3  A    between atoms: C_6  and  N_9
REMARK    4  A    between atoms: C_7  and  C_8
REMARK    5  A    between atoms: C_10  and  C_12
REMARK    6  A    between atoms: C_12  and  N_13
REMARK    7  A    between atoms: C_18  and  O_32
REMARK    8  A    between atoms: C_19  and  O_30
REMARK    9  A    between atoms: C_22  and  C_24
REMARK   10  A    between atoms: O_30  and  C_31
REMARK   11  A    between atoms: O_32  and  C_33
REMARK                            x       y       z     vdW  Elec       q    Type
REMARK                         _______ _______ _______ _____ _____    ______ ____
ROOT
ATOM      1  N   UNL     1      -0.573  -5.554   4.288  0.00  0.00    +0.393 N 
ATOM      2  C   UNL     1       0.867  -5.792   4.105  0.00  0.00    -0.072 C 
ATOM      3  C   UNL     1       1.091  -7.289   3.889  0.00  0.00    +0.017 C 
ATOM      4  C   UNL     1       0.401  -8.070   4.979  0.00  0.00    -0.044 A 
ATOM      5  C   UNL     1       0.758  -9.397   5.171  0.00  0.00    +0.053 A 
ATOM      6  C   UNL     1       0.146 -10.149   6.158  0.00  0.00    +0.162 A 
ATOM      7  C   UNL     1      -0.832  -9.568   6.960  0.00  0.00    +0.162 A 
ATOM      8  C   UNL     1      -1.183  -8.244   6.765  0.00  0.00    +0.052 A 
ATOM      9  C   UNL     1      -0.565  -7.493   5.775  0.00  0.00    -0.050 A 
ATOM     10  C   UNL     1      -0.974  -6.054   5.606  0.00  0.00    -0.006 C 
ATOM     11  H   UNL     1      -1.090  -6.040   3.571  0.00  0.00    -0.080 HD
ENDROOT
BRANCH  10  12
ATOM     12  C   UNL     1      -2.471  -5.943   5.745  0.00  0.00    -0.057 A 
ATOM     13  C   UNL     1      -3.288  -6.251   4.673  0.00  0.00    +0.002 A 
ATOM     14  C   UNL     1      -4.661  -6.149   4.800  0.00  0.00    +0.000 A 
ATOM     15  C   UNL     1      -5.217  -5.741   5.998  0.00  0.00    +0.000 A 
ATOM     16  C   UNL     1      -4.399  -5.434   7.070  0.00  0.00    +0.000 A 
ATOM     17  C   UNL     1      -3.026  -5.539   6.944  0.00  0.00    +0.002 A 
ENDBRANCH  10  12
BRANCH   7  18
ATOM     18  O   UNL     1      -1.440 -10.299   7.932  0.00  0.00    -0.491 OA
ATOM     19  C   UNL     1      -2.434  -9.637   8.716  0.00  0.00    +0.277 C 
ENDBRANCH   7  18
BRANCH   6  20
ATOM     20  O   UNL     1       0.498 -11.450   6.342  0.00  0.00    -0.491 OA
ATOM     21  C   UNL     1       1.508 -11.977   5.481  0.00  0.00    +0.277 C 
ENDBRANCH   6  20
BRANCH   1  22
ATOM     22  C   UNL     1      -0.848  -4.114   4.204  0.00  0.00    +0.020 C 
BRANCH  22  24
ATOM     23  N   UNL     1      -0.729  -2.328   2.496  0.00  0.00    -0.285 N 
ATOM     24  C   UNL     1      -0.549  -3.626   2.809  0.00  0.00    +0.201 C 
ATOM     25  O   UNL     1      -0.147  -4.403   1.969  0.00  0.00    -0.278 OA
ATOM     26  H   UNL     1      -1.125  -1.723   3.143  0.00  0.00    +0.155 HD
BRANCH  23  32
ATOM     27  C   UNL     1      -0.958  -2.656  -2.404  0.00  0.00    +0.044 C 
ATOM     28  C   UNL     1      -0.441  -1.992  -1.154  0.00  0.00    -0.046 A 
ATOM     29  C   UNL     1       0.416  -0.910  -1.250  0.00  0.00    +0.006 A 
ATOM     30  C   UNL     1       0.893  -0.299  -0.106  0.00  0.00    +0.035 A 
ATOM     31  C   UNL     1       0.515  -0.766   1.138  0.00  0.00    +0.148 A 
ATOM     32  C   UNL     1      -0.345  -1.852   1.238  0.00  0.00    +0.067 A 
ATOM     33  C   UNL     1      -0.827  -2.461   0.086  0.00  0.00    -0.024 A 
ATOM     34  C   UNL     1      -1.765  -3.636   0.190  0.00  0.00    +0.046 C 
BRANCH  31  35
ATOM     35  N   UNL     1       1.027  -0.111   2.362  0.00  0.00    +0.058 N 
ATOM     36  O   UNL     1       1.677   0.905   2.278  0.00  0.00    -0.126 OA
ATOM     37  O   UNL     1       0.796  -0.593   3.447  0.00  0.00    -0.126 OA
ENDBRANCH  31  35
ENDBRANCH  23  32
ENDBRANCH  22  24
ENDBRANCH   1  22
TORSDOF 7
