REMARK  Name = ZINC58989504
REMARK  9 active torsions:
REMARK  status: ('A' for Active; 'I' for Inactive)
REMARK    1  A    between atoms: C_3  and  O_28
REMARK    2  A    between atoms: C_6  and  C_7
REMARK    3  A    between atoms: N_8  and  N_9
REMARK    4  A    between atoms: C_10  and  C_12
REMARK    5  A    between atoms: C_12  and  C_13
REMARK    6  A    between atoms: C_13  and  C_14
REMARK    7  A    between atoms: C_14  and  S_15
REMARK    8  A    between atoms: S_15  and  C_16
REMARK    9  A    between atoms: C_21  and  N_25
REMARK                            x       y       z     vdW  Elec       q    Type
REMARK                         _______ _______ _______ _____ _____    ______ ____
ROOT
ATOM      1  C   UNL     1      -3.718  -4.898   0.013  0.00  0.00    +0.098 C 
ENDROOT
BRANCH   1   3
ATOM      2  N   UNL     1      -2.446  -2.777   0.011  0.00  0.00    -0.207 N 
ATOM      3  C   UNL     1      -2.425  -4.125   0.004  0.00  0.00    +0.232 C 
ATOM      4  O   UNL     1      -1.365  -4.715  -0.010  0.00  0.00    -0.274 OA
ATOM      5  H   UNL     1      -3.293  -2.305   0.022  0.00  0.00    +0.177 HD
BRANCH   2   7
ATOM      6  C   UNL     1      -1.263  -0.761   0.011  0.00  0.00    +0.138 C 
ATOM      7  N   UNL     1      -1.243  -2.058   0.003  0.00  0.00    -0.188 NA
BRANCH   6  13
ATOM      8  C   UNL     1      -0.017   1.393   0.010  0.00  0.00    +0.013 A 
ATOM      9  C   UNL     1       1.168   2.096   0.002  0.00  0.00    +0.046 A 
ATOM     10  C   UNL     1       2.380   1.418  -0.013  0.00  0.00    +0.117 A 
ATOM     11  C   UNL     1       2.404   0.029  -0.021  0.00  0.00    +0.046 A 
ATOM     12  C   UNL     1       1.224  -0.682  -0.014  0.00  0.00    +0.013 A 
ATOM     13  C   UNL     1       0.002  -0.004   0.002  0.00  0.00    -0.005 A 
BRANCH  10  14
ATOM     14  O   UNL     1       3.546   2.115  -0.022  0.00  0.00    -0.507 OA
ATOM     15  H   UNL     1       3.893   2.313   0.859  0.00  0.00    +0.292 HD
ENDBRANCH  10  14
ENDBRANCH   6  13
ENDBRANCH   2   7
ENDBRANCH   1   3
BRANCH   1  16
ATOM     16  C   UNL     1      -3.416  -6.398   0.002  0.00  0.00    +0.020 C 
BRANCH  16  17
ATOM     17  C   UNL     1      -4.729  -7.183   0.011  0.00  0.00    +0.077 C 
BRANCH  17  18
ATOM     18  S   UNL     1      -4.370  -8.961  -0.003  0.00  0.00    -0.099 S 
BRANCH  18  19
ATOM     19  C   UNL     1      -5.962  -9.718   0.009  0.00  0.00    +0.136 A 
ATOM     20  N   UNL     1      -7.146  -9.147   0.018  0.00  0.00    -0.233 NA
ATOM     21  C   UNL     1      -8.294  -9.858   0.026  0.00  0.00    +0.080 A 
ATOM     22  C   UNL     1      -9.622  -9.373   0.036  0.00  0.00    +0.031 A 
ATOM     23  C   UNL     1     -10.684 -10.239   0.044  0.00  0.00    +0.035 A 
ATOM     24  C   UNL     1     -10.499 -11.613   0.042  0.00  0.00    +0.127 A 
ATOM     25  C   UNL     1      -9.213 -12.123   0.032  0.00  0.00    +0.050 A 
ATOM     26  C   UNL     1      -8.143 -11.264   0.024  0.00  0.00    +0.042 A 
ATOM     27  S   UNL     1      -6.377 -11.456   0.004  0.00  0.00    -0.061 S 
BRANCH  24  28
ATOM     28  N   UNL     1     -11.665 -12.525   0.052  0.00  0.00    +0.056 N 
ATOM     29  O   UNL     1     -12.786 -12.073   0.061  0.00  0.00    -0.126 OA
ATOM     30  O   UNL     1     -11.496 -13.722   0.050  0.00  0.00    -0.126 OA
ENDBRANCH  24  28
ENDBRANCH  18  19
ENDBRANCH  17  18
ENDBRANCH  16  17
ENDBRANCH   1  16
TORSDOF 9
