REMARK  Name = ZINC64609608
REMARK  5 active torsions:
REMARK  status: ('A' for Active; 'I' for Inactive)
REMARK    1  A    between atoms: C_1  and  N_2
REMARK    2  A    between atoms: N_2  and  C_3
REMARK    3  A    between atoms: N_2  and  C_10
REMARK    4  A    between atoms: C_3  and  C_4
REMARK    5  A    between atoms: C_4  and  C_5
REMARK                            x       y       z     vdW  Elec       q    Type
REMARK                         _______ _______ _______ _____ _____    ______ ____
ROOT
ATOM      1  C   UNL     1       0.437  -0.304  -1.171  0.00  0.00    +0.188 C 
ATOM      2  C   UNL     1      -0.383   0.023  -2.381  0.00  0.00    +0.105 C 
ATOM      3  N   UNL     1       0.053   0.610  -3.447  0.00  0.00    -0.355 N 
ATOM      4  C   UNL     1       1.451   0.968  -3.529  0.00  0.00    +0.209 C 
ATOM      5  C   UNL     1       1.915   1.309  -2.084  0.00  0.00    +0.190 C 
ATOM      6  N   UNL     1       1.857   0.066  -1.337  0.00  0.00    -0.275 NA
ATOM      7  N   UNL     1       3.221   1.920  -2.316  0.00  0.00    -0.161 NA
ATOM      8  O   UNL     1       3.135   2.547  -3.655  0.00  0.00    -0.208 OA
ATOM      9  N   UNL     1       1.811   2.196  -4.247  0.00  0.00    -0.156 NA
ATOM     10  N   UNL     1      -1.706  -0.330  -2.356  0.00  0.00    -0.318 N 
ATOM     11  C   UNL     1      -2.552   0.072  -3.458  0.00  0.00    +0.106 C 
ATOM     12  C   UNL     1      -3.159   1.466  -3.164  0.00  0.00    +0.019 C 
ATOM     13  C   UNL     1      -4.170   1.370  -2.101  0.00  0.00    +0.002 C 
ATOM     14  C   UNL     1      -3.624   0.905  -0.754  0.00  0.00    +0.002 C 
ATOM     15  C   UNL     1      -3.584  -0.603  -0.725  0.00  0.00    +0.019 C 
ATOM     16  C   UNL     1      -2.209  -1.110  -1.209  0.00  0.00    +0.106 C 
ATOM     17  H   UNL     1       2.313   0.163  -0.442  0.00  0.00    +0.125 HD
ATOM     18  H   UNL     1       3.954   1.227  -2.288  0.00  0.00    +0.158 HD
ATOM     19  H   UNL     1       1.136   2.927  -4.074  0.00  0.00    +0.158 HD
ATOM     20  H   UNL     1      -0.549   0.806  -4.182  0.00  0.00    +0.162 HD
ENDROOT
BRANCH   1  22
ATOM     21  C   UNL     1       0.012   1.871  -0.197  0.00  0.00    +0.106 C 
ATOM     22  N   UNL     1      -0.111   0.419  -0.015  0.00  0.00    -0.284 NA
BRANCH  22  23
ATOM     23  C   UNL     1       0.536  -0.013   1.231  0.00  0.00    +0.090 C 
BRANCH  23  24
ATOM     24  C   UNL     1      -0.221   0.569   2.427  0.00  0.00    +0.049 C 
BRANCH  24  25
ATOM     25  C   UNL     1       0.443   0.127   3.705  0.00  0.00    -0.026 C 
ATOM     26  C   UNL     1       1.352   0.783   4.430  0.00  0.00    +0.135 C 
ATOM     27  N   UNL     1       1.712   0.063   5.515  0.00  0.00    -0.162 NA
ATOM     28  N   UNL     1       1.146  -1.028   5.616  0.00  0.00    -0.183 NA
ATOM     29  C   UNL     1       0.229  -1.166   4.472  0.00  0.00    +0.198 C 
ENDBRANCH  24  25
ENDBRANCH  23  24
ENDBRANCH  22  23
ENDBRANCH   1  22
TORSDOF 4
