REMARK  Name = ZINC05778866
REMARK  10 active torsions:
REMARK  status: ('A' for Active; 'I' for Inactive)
REMARK    1  A    between atoms: C_1  and  C_2
REMARK    2  A    between atoms: C_2  and  C_3
REMARK    3  A    between atoms: C_2  and  C_4
REMARK    4  A    between atoms: C_2  and  C_5
REMARK    5  A    between atoms: C_8  and  C_11
REMARK    6  A    between atoms: C_11  and  O_13
REMARK    7  A    between atoms: O_13  and  C_14
REMARK    8  A    between atoms: C_14  and  C_15
REMARK    9  A    between atoms: N_17  and  C_18
REMARK   10  A    between atoms: C_19  and  C_26
REMARK                            x       y       z     vdW  Elec       q    Type
REMARK                         _______ _______ _______ _____ _____    ______ ____
ROOT
ATOM      1  C   UNL     1      -0.742   1.585  -1.213  0.00  0.00    +0.255 C 
ATOM      2  O   UNL     1      -1.736   2.268  -1.088  0.00  0.00    -0.272 OA
ATOM      3  N   UNL     1      -0.288   1.272  -2.443  0.00  0.00    -0.277 N 
ATOM      4  H   UNL     1       0.507   0.726  -2.543  0.00  0.00    +0.155 HD
ENDROOT
BRANCH   3   5
ATOM      5  C   UNL     1      -0.959   1.732  -3.566  0.00  0.00    +0.084 A 
ATOM      6  C   UNL     1      -0.648   1.523  -4.899  0.00  0.00    +0.068 A 
ATOM      7  C   UNL     1      -1.530   2.121  -5.902  0.00  0.00    -0.023 A 
ATOM      8  C   UNL     1      -2.560   2.829  -5.406  0.00  0.00    -0.004 A 
ATOM      9  S   UNL     1      -2.384   2.711  -3.643  0.00  0.00    -0.077 S 
ATOM     10  C   UNL     1      -3.418   3.414  -6.496  0.00  0.00    +0.043 C 
ATOM     11  C   UNL     1      -3.035   2.617  -7.762  0.00  0.00    +0.010 C 
ATOM     12  C   UNL     1      -1.598   2.168  -7.429  0.00  0.00    +0.037 C 
BRANCH   6  13
ATOM     13  C   UNL     1       0.520   0.729  -5.292  0.00  0.00    +0.244 C 
ATOM     14  O   UNL     1       0.412  -0.472  -5.457  0.00  0.00    -0.270 OA
ATOM     15  N   UNL     1       1.714   1.329  -5.469  0.00  0.00    -0.325 N 
ATOM     16  H   UNL     1       1.800   2.286  -5.337  0.00  0.00    +0.145 HD
ATOM     17  H   UNL     1       2.487   0.803  -5.728  0.00  0.00    +0.145 HD
ENDBRANCH   6  13
ENDBRANCH   3   5
BRANCH   1  18
ATOM     18  C   UNL     1      -0.013   1.086   0.008  0.00  0.00    +0.328 C 
BRANCH  18  19
ATOM     19  O   UNL     1      -0.692   1.554   1.203  0.00  0.00    -0.455 OA
BRANCH  19  20
ATOM     20  C   UNL     1      -0.166   1.194   2.384  0.00  0.00    +0.311 C 
ATOM     21  O   UNL     1       0.829   0.510   2.418  0.00  0.00    -0.251 OA
BRANCH  20  25
ATOM     22  C   UNL     1      -0.705   3.084   6.215  0.00  0.00    -0.006 C 
ATOM     23  C   UNL     1      -0.685   1.555   6.160  0.00  0.00    +0.005 C 
ATOM     24  C   UNL     1      -0.025   1.100   4.858  0.00  0.00    +0.015 C 
ATOM     25  C   UNL     1      -0.817   1.643   3.667  0.00  0.00    +0.098 C 
ATOM     26  C   UNL     1      -0.836   3.171   3.721  0.00  0.00    +0.015 C 
ATOM     27  C   UNL     1      -1.497   3.627   5.024  0.00  0.00    +0.005 C 
BRANCH  22  29
ATOM     28  C   UNL     1      -0.573   2.997   8.708  0.00  0.00    +0.011 C 
ATOM     29  C   UNL     1      -1.365   3.540   7.518  0.00  0.00    -0.035 C 
ATOM     30  C   UNL     1      -1.385   5.069   7.572  0.00  0.00    +0.011 C 
ATOM     31  C   UNL     1      -2.800   3.009   7.575  0.00  0.00    +0.011 C 
ENDBRANCH  22  29
ENDBRANCH  20  25
ENDBRANCH  19  20
ENDBRANCH  18  19
ENDBRANCH   1  18
TORSDOF 7
