REMARK  Name = ZINC38981411
REMARK  6 active torsions:
REMARK  status: ('A' for Active; 'I' for Inactive)
REMARK    1  A    between atoms: C_1  and  O_2
REMARK    2  A    between atoms: O_2  and  C_3
REMARK    3  A    between atoms: C_8  and  C_9
REMARK    4  A    between atoms: N_15  and  N_16
REMARK    5  A    between atoms: C_17  and  C_18
REMARK    6  A    between atoms: C_23  and  O_24
REMARK                            x       y       z     vdW  Elec       q    Type
REMARK                         _______ _______ _______ _____ _____    ______ ____
ROOT
ATOM      1  C   UNL     1       0.037  -2.836  -0.001  0.00  0.00    +0.267 C 
ATOM      2  N   UNL     1       0.252  -2.200  -1.310  0.00  0.00    -0.189 NA
ATOM      3  N   UNL     1       0.920  -2.970  -2.005  0.00  0.00    -0.219 N 
ATOM      4  C   UNL     1       1.241  -4.130  -1.370  0.00  0.00    +0.174 C 
ATOM      5  S   UNL     1       2.157  -5.402  -2.057  0.00  0.00    -0.015 S 
ATOM      6  N   UNL     1       0.730  -4.133  -0.116  0.00  0.00    -0.172 N 
ATOM      7  H   UNL     1       1.189  -2.769  -2.914  0.00  0.00    +0.176 HD
ENDROOT
BRANCH   1  13
ATOM      8  C   UNL     1       0.579  -0.621   1.042  0.00  0.00    +0.127 A 
ATOM      9  C   UNL     1       1.139   0.141   2.058  0.00  0.00    +0.046 A 
ATOM     10  C   UNL     1       1.768  -0.480   3.119  0.00  0.00    +0.004 A 
ATOM     11  C   UNL     1       1.841  -1.860   3.169  0.00  0.00    +0.001 A 
ATOM     12  C   UNL     1       1.284  -2.621   2.159  0.00  0.00    +0.011 A 
ATOM     13  C   UNL     1       0.649  -2.005   1.098  0.00  0.00    +0.039 A 
BRANCH   8  15
ATOM     14  C   UNL     1      -0.075   1.417   0.006  0.00  0.00    +0.277 C 
ATOM     15  O   UNL     1      -0.041  -0.012  -0.003  0.00  0.00    -0.495 OA
ENDBRANCH   8  15
ENDBRANCH   1  13
BRANCH   6  16
ATOM     16  N   UNL     1       0.835  -5.138   0.854  0.00  0.00    -0.183 NA
ATOM     17  C   UNL     1       1.388  -6.274   0.554  0.00  0.00    +0.142 C 
BRANCH  17  18
ATOM     18  C   UNL     1       1.399  -7.371   1.539  0.00  0.00    +0.037 A 
ATOM     19  C   UNL     1       1.997  -8.593   1.223  0.00  0.00    +0.028 A 
ATOM     20  C   UNL     1       2.005  -9.615   2.149  0.00  0.00    +0.019 A 
ATOM     21  C   UNL     1       1.421  -9.434   3.393  0.00  0.00    +0.019 A 
ATOM     22  C   UNL     1       0.826  -8.230   3.717  0.00  0.00    +0.047 A 
ATOM     23  C   UNL     1       0.814  -7.191   2.800  0.00  0.00    +0.126 A 
ATOM     24 BR   UNL     1       2.814 -11.269   1.721  0.00  0.00    -0.050 Br
BRANCH  23  25
ATOM     25  O   UNL     1       0.234  -6.005   3.120  0.00  0.00    -0.506 OA
ATOM     26  H   UNL     1      -0.705  -5.954   2.897  0.00  0.00    +0.292 HD
ENDBRANCH  23  25
ENDBRANCH  17  18
ENDBRANCH   6  16
TORSDOF 5
