REMARK  Name = ZINC36531114
REMARK  15 active torsions:
REMARK  status: ('A' for Active; 'I' for Inactive)
REMARK    1  A    between atoms: C_1  and  C_2
REMARK    2  A    between atoms: C_2  and  C_3
REMARK    3  A    between atoms: C_2  and  C_4
REMARK    4  A    between atoms: C_2  and  N_5
REMARK    5  A    between atoms: C_6  and  C_8
REMARK    6  A    between atoms: C_8  and  C_10
REMARK    7  A    between atoms: C_8  and  N_20
REMARK    8  A    between atoms: C_13  and  O_18
REMARK    9  A    between atoms: C_14  and  O_16
REMARK   10  A    between atoms: O_16  and  C_17
REMARK   11  A    between atoms: O_18  and  C_19
REMARK   12  A    between atoms: N_20  and  C_21
REMARK   13  A    between atoms: C_22  and  C_24
REMARK   14  A    between atoms: C_25  and  O_31
REMARK   15  A    between atoms: C_29  and  O_30
REMARK                            x       y       z     vdW  Elec       q    Type
REMARK                         _______ _______ _______ _____ _____    ______ ____
ROOT
ATOM      1  C   UNL     1       2.689  -0.589  -2.682  0.00  0.00    +0.192 C 
ENDROOT
BRANCH   1   2
ATOM      2  C   UNL     1       1.843  -0.064  -3.813  0.00  0.00    -0.015 A 
ATOM      3  C   UNL     1       1.060   1.060  -3.625  0.00  0.00    +0.010 A 
ATOM      4  C   UNL     1       0.283   1.545  -4.660  0.00  0.00    +0.050 A 
ATOM      5  C   UNL     1       0.287   0.906  -5.889  0.00  0.00    +0.162 A 
ATOM      6  C   UNL     1       1.076  -0.225  -6.079  0.00  0.00    +0.162 A 
ATOM      7  C   UNL     1       1.857  -0.704  -5.039  0.00  0.00    +0.055 A 
BRANCH   6   8
ATOM      8  O   UNL     1       1.084  -0.856  -7.283  0.00  0.00    -0.491 OA
ATOM      9  C   UNL     1       1.917  -2.010  -7.405  0.00  0.00    +0.277 C 
ENDBRANCH   6   8
BRANCH   5  10
ATOM     10  O   UNL     1      -0.477   1.382  -6.908  0.00  0.00    -0.491 OA
ATOM     11  C   UNL     1      -1.262   2.546  -6.641  0.00  0.00    +0.277 C 
ENDBRANCH   5  10
ENDBRANCH   1   2
BRANCH   1  13
ATOM     12  N   UNL     1       0.823  -0.602  -1.058  0.00  0.00    -0.309 N 
ATOM     13  C   UNL     1       2.070  -0.193  -1.366  0.00  0.00    +0.238 C 
ATOM     14  O   UNL     1       2.693   0.494  -0.585  0.00  0.00    -0.273 OA
ATOM     15  H   UNL     1       0.325  -1.151  -1.683  0.00  0.00    +0.149 HD
BRANCH  12  17
ATOM     16  C   UNL     1       0.142   1.308   0.309  0.00  0.00    +0.031 C 
ATOM     17  C   UNL     1       0.221  -0.217   0.221  0.00  0.00    +0.026 C 
ATOM     18  C   UNL     1       1.080  -0.750   1.370  0.00  0.00    +0.031 C 
ATOM     19  C   UNL     1      -1.187  -0.808   0.320  0.00  0.00    +0.031 C 
ENDBRANCH  12  17
ENDBRANCH   1  13
BRANCH   1  20
ATOM     20  N   UNL     1       4.037  -0.023  -2.777  0.00  0.00    -0.285 N 
ATOM     21  C   UNL     1       4.236   1.422  -2.647  0.00  0.00    +0.133 C 
ATOM     22  C   UNL     1       5.095  -0.833  -2.983  0.00  0.00    +0.254 C 
ATOM     23  O   UNL     1       4.929  -2.033  -3.091  0.00  0.00    -0.270 OA
BRANCH  22  24
ATOM     24  C   UNL     1       6.449  -0.265  -3.079  0.00  0.00    +0.119 A 
ATOM     25  C   UNL     1       7.239  -0.124  -1.928  0.00  0.00    +0.133 A 
ATOM     26  C   UNL     1       8.513   0.411  -2.029  0.00  0.00    +0.046 A 
ATOM     27  C   UNL     1       9.006   0.806  -3.259  0.00  0.00    +0.007 A 
ATOM     28  C   UNL     1       8.236   0.672  -4.399  0.00  0.00    +0.046 A 
ATOM     29  C   UNL     1       6.962   0.134  -4.322  0.00  0.00    +0.133 A 
BRANCH  29  30
ATOM     30  O   UNL     1       6.211  -0.002  -5.443  0.00  0.00    -0.506 OA
ATOM     31  H   UNL     1       5.662   0.768  -5.645  0.00  0.00    +0.292 HD
ENDBRANCH  29  30
BRANCH  25  32
ATOM     32  O   UNL     1       6.757  -0.510  -0.720  0.00  0.00    -0.506 OA
ATOM     33  H   UNL     1       6.947  -1.432  -0.497  0.00  0.00    +0.292 HD
ENDBRANCH  25  32
ENDBRANCH  22  24
ENDBRANCH   1  20
TORSDOF 9
