REMARK  Name = ZINC40372280
REMARK  4 active torsions:
REMARK  status: ('A' for Active; 'I' for Inactive)
REMARK    1  A    between atoms: C_2  and  C_9
REMARK    2  A    between atoms: N_11  and  C_12
REMARK    3  A    between atoms: C_12  and  C_18
REMARK    4  A    between atoms: N_19  and  O_20
REMARK                            x       y       z     vdW  Elec       q    Type
REMARK                         _______ _______ _______ _____ _____    ______ ____
ROOT
ATOM      1  C   UNL     1       1.824   5.511   0.024  0.00  0.00    +0.093 C 
ATOM      2  C   UNL     1       0.975   6.210   1.088  0.00  0.00    +0.033 C 
ATOM      3  C   UNL     1       1.261   5.588   2.457  0.00  0.00    +0.002 C 
ATOM      4  C   UNL     1       2.744   5.758   2.794  0.00  0.00    +0.000 C 
ATOM      5  C   UNL     1       3.592   5.060   1.730  0.00  0.00    +0.002 C 
ATOM      6  C   UNL     1       3.307   5.681   0.361  0.00  0.00    +0.033 C 
ENDROOT
BRANCH   1   7
ATOM      7  C   UNL     1       1.542   6.123  -1.325  0.00  0.00    +0.155 C 
ATOM      8  N   UNL     1       1.736   7.386  -1.514  0.00  0.00    -0.075 NA
ATOM      9  N   UNL     1       1.079   5.335  -2.355  0.00  0.00    -0.342 N 
ATOM     10  H   UNL     1       0.994   4.377  -2.232  0.00  0.00    +0.144 HD
ATOM     11  H   UNL     1       0.839   5.739  -3.204  0.00  0.00    +0.144 HD
BRANCH   8  12
ATOM     12  O   UNL     1       2.337   8.170  -0.499  0.00  0.00    -0.408 OA
ATOM     13  H   UNL     1       2.439   9.103  -0.732  0.00  0.00    +0.328 HD
ENDBRANCH   8  12
ENDBRANCH   1   7
BRANCH   1  16
ATOM     14  C   UNL     1       0.223   3.694  -0.244  0.00  0.00    +0.245 C 
ATOM     15  O   UNL     1      -0.659   4.524  -0.349  0.00  0.00    -0.270 OA
ATOM     16  N   UNL     1       1.491   4.085  -0.008  0.00  0.00    -0.299 N 
ATOM     17  H   UNL     1       2.183   3.422   0.140  0.00  0.00    +0.150 HD
BRANCH  14  19
ATOM     18  C   UNL     1      -1.408   1.849  -0.617  0.00  0.00    +0.033 A 
ATOM     19  C   UNL     1      -0.096   2.256  -0.373  0.00  0.00    +0.039 A 
ATOM     20  C   UNL     1       0.914   1.301  -0.253  0.00  0.00    +0.033 A 
ATOM     21  C   UNL     1       0.611  -0.040  -0.375  0.00  0.00    +0.043 A 
ATOM     22  C   UNL     1      -0.693  -0.438  -0.617  0.00  0.00    +0.040 A 
ATOM     23  C   UNL     1      -1.700   0.504  -0.738  0.00  0.00    +0.043 A 
ATOM     24 CL   UNL     1      -3.332  -0.004  -1.041  0.00  0.00    -0.083 Cl
ATOM     25 CL   UNL     1       1.866  -1.230  -0.227  0.00  0.00    -0.083 Cl
ENDBRANCH  14  19
ENDBRANCH   1  16
TORSDOF 4
