REMARK  Name = ZINC20466971
REMARK  7 active torsions:
REMARK  status: ('A' for Active; 'I' for Inactive)
REMARK    1  A    between atoms: C_1  and  C_2
REMARK    2  A    between atoms: N_14  and  C_16
REMARK    3  A    between atoms: C_16  and  C_18
REMARK    4  A    between atoms: C_16  and  C_19
REMARK    5  A    between atoms: N_21  and  C_22
REMARK    6  A    between atoms: C_22  and  C_24
REMARK    7  A    between atoms: C_22  and  C_25
REMARK                            x       y       z     vdW  Elec       q    Type
REMARK                         _______ _______ _______ _____ _____    ______ ____
ROOT
ATOM      1  C   UNL     1       3.713  -0.497  -0.038  0.00  0.00    +0.193 C 
ATOM      2  C   UNL     1       4.476  -0.067  -1.293  0.00  0.00    +0.043 C 
ENDROOT
BRANCH   1  16
ATOM      3  C   UNL     1       1.096   3.651   0.011  0.00  0.00    +0.068 C 
ATOM      4  C   UNL     1       1.163   2.145   0.003  0.00  0.00    +0.073 A 
ATOM      5  C   UNL     1      -0.017   1.393   0.010  0.00  0.00    +0.048 A 
ATOM      6  C   UNL     1       0.002  -0.004   0.002  0.00  0.00    +0.065 A 
ATOM      7  C   UNL     1      -1.314  -0.671   0.011  0.00  0.00    +0.002 A 
ATOM      8  C   UNL     1      -1.572  -2.061   0.006  0.00  0.00    +0.010 A 
ATOM      9  C   UNL     1      -2.859  -2.532   0.016  0.00  0.00    +0.001 A 
ATOM     10  C   UNL     1      -3.943  -1.666   0.031  0.00  0.00    +0.001 A 
ATOM     11  C   UNL     1      -3.723  -0.303   0.037  0.00  0.00    +0.015 A 
ATOM     12  C   UNL     1      -2.430   0.181   0.027  0.00  0.00    +0.021 A 
ATOM     13  S   UNL     1      -1.739   1.815   0.036  0.00  0.00    -0.086 S 
ATOM     14  C   UNL     1       1.294  -0.617  -0.015  0.00  0.00    +0.277 A 
ATOM     15  O   UNL     1       1.393  -1.833  -0.022  0.00  0.00    -0.265 OA
ATOM     16  N   UNL     1       2.398   0.148  -0.022  0.00  0.00    -0.217 N 
ATOM     17  N   UNL     1       2.323   1.544  -0.013  0.00  0.00    -0.172 NA
ENDBRANCH   1  16
BRANCH   1  18
ATOM     18  C   UNL     1       4.489  -0.086   1.187  0.00  0.00    +0.238 C 
ATOM     19  O   UNL     1       3.992   0.671   1.994  0.00  0.00    -0.273 OA
ATOM     20  N   UNL     1       5.736  -0.559   1.385  0.00  0.00    -0.310 N 
ATOM     21  H   UNL     1       6.186  -1.246   0.653  0.00  0.00    +0.149 HD
BRANCH  20  22
ATOM     22  C   UNL     1       6.490  -0.160   2.576  0.00  0.00    +0.076 C 
ATOM     23  C   UNL     1       7.196   1.171   2.310  0.00  0.00    +0.028 C 
BRANCH  22  24
ATOM     24  C   UNL     1       7.530  -1.233   2.904  0.00  0.00    -0.010 C 
ATOM     25  C   UNL     1       8.489  -1.391   1.722  0.00  0.00    +0.012 C 
ATOM     26  C   UNL     1       9.530  -2.464   2.050  0.00  0.00    -0.010 C 
ATOM     27  C   UNL     1      10.318  -2.047   3.294  0.00  0.00    +0.007 C 
ATOM     28  C   UNL     1       9.359  -1.888   4.475  0.00  0.00    -0.010 C 
ATOM     29  C   UNL     1       8.318  -0.816   4.147  0.00  0.00    +0.012 C 
ATOM     30  C   UNL     1       8.653  -3.219   4.742  0.00  0.00    +0.007 C 
ATOM     31  C   UNL     1       7.865  -3.636   3.498  0.00  0.00    -0.010 C 
ATOM     32  C   UNL     1       8.824  -3.795   2.316  0.00  0.00    +0.007 C 
ATOM     33  C   UNL     1       6.824  -2.564   3.170  0.00  0.00    +0.012 C 
ENDBRANCH  22  24
ENDBRANCH  20  22
ENDBRANCH   1  18
TORSDOF 4
