REMARK  Name = ZINC38713118
REMARK  6 active torsions:
REMARK  status: ('A' for Active; 'I' for Inactive)
REMARK    1  A    between atoms: C_1  and  C_2
REMARK    2  A    between atoms: C_3  and  S_8
REMARK    3  A    between atoms: C_4  and  C_7
REMARK    4  A    between atoms: S_8  and  N_11
REMARK    5  A    between atoms: N_11  and  C_12
REMARK    6  A    between atoms: C_22  and  C_24
REMARK                            x       y       z     vdW  Elec       q    Type
REMARK                         _______ _______ _______ _____ _____    ______ ____
ROOT
ATOM      1  C   UNL     1       2.502  -2.062  -3.911  0.00  0.00    +0.048 A 
ATOM      2  C   UNL     1       2.471  -3.090  -2.977  0.00  0.00    +0.025 A 
ATOM      3  C   UNL     1       3.005  -4.319  -3.295  0.00  0.00    +0.006 A 
ATOM      4  C   UNL     1       3.573  -4.544  -4.544  0.00  0.00    -0.041 A 
ATOM      5  C   UNL     1       3.596  -3.529  -5.474  0.00  0.00    -0.025 A 
ATOM      6  C   UNL     1       3.061  -2.288  -5.159  0.00  0.00    +0.030 A 
ATOM      7  C   UNL     1       4.170  -3.714  -6.857  0.00  0.00    +0.143 C 
ATOM      8  N   UNL     1       4.910  -4.980  -6.919  0.00  0.00    -0.297 N 
ATOM      9  C   UNL     1       4.277  -6.162  -6.312  0.00  0.00    +0.113 C 
ATOM     10  C   UNL     1       4.150  -5.910  -4.811  0.00  0.00    +0.054 C 
ATOM     11  C   UNL     1       6.120  -5.056  -7.508  0.00  0.00    +0.219 C 
ATOM     12  O   UNL     1       6.710  -6.115  -7.545  0.00  0.00    -0.275 OA
ENDROOT
BRANCH  11  13
ATOM     13  C   UNL     1       6.739  -3.826  -8.119  0.00  0.00    +0.075 C 
ATOM     14  C   UNL     1       7.979  -3.246  -7.436  0.00  0.00    +0.013 C 
ATOM     15  C   UNL     1       8.115  -3.978  -8.772  0.00  0.00    +0.013 C 
ENDBRANCH  11  13
BRANCH   1  16
ATOM     16  N   UNL     1       1.969  -0.810  -3.597  0.00  0.00    -0.216 N 
ATOM     17  H   UNL     1       2.466  -0.004  -3.806  0.00  0.00    +0.174 HD
BRANCH  16  18
ATOM     18  S   UNL     1       0.486  -0.701  -2.866  0.00  0.00    +0.077 S 
ATOM     19  O   UNL     1       0.184   0.684  -2.766  0.00  0.00    -0.150 OA
ATOM     20  O   UNL     1       0.529  -1.556  -1.732  0.00  0.00    -0.150 OA
BRANCH  18  23
ATOM     21  C   UNL     1      -0.817  -3.767  -2.929  0.00  0.00    +0.071 C 
ATOM     22  C   UNL     1      -1.195  -2.708  -3.933  0.00  0.00    +0.107 A 
ATOM     23  C   UNL     1      -0.693  -1.395  -3.976  0.00  0.00    +0.173 A 
ATOM     24  C   UNL     1      -1.272  -0.760  -5.013  0.00  0.00    +0.161 A 
ATOM     25  O   UNL     1      -2.108  -1.621  -5.613  0.00  0.00    -0.358 OA
ATOM     26  N   UNL     1      -2.039  -2.851  -4.915  0.00  0.00    -0.081 NA
ATOM     27  C   UNL     1      -1.024   0.668  -5.428  0.00  0.00    +0.091 C 
ENDBRANCH  18  23
ENDBRANCH  16  18
ENDBRANCH   1  16
TORSDOF 4
