REMARK  Name = ZINC04885301
REMARK  7 active torsions:
REMARK  status: ('A' for Active; 'I' for Inactive)
REMARK    1  A    between atoms: C_1  and  C_2
REMARK    2  A    between atoms: C_2  and  C_29
REMARK    3  A    between atoms: C_7  and  C_10
REMARK    4  A    between atoms: C_13  and  O_16
REMARK    5  A    between atoms: N_19  and  C_22
REMARK    6  A    between atoms: C_29  and  O_31
REMARK    7  A    between atoms: O_31  and  C_32
REMARK                            x       y       z     vdW  Elec       q    Type
REMARK                         _______ _______ _______ _____ _____    ______ ____
ROOT
ATOM      1  C   UNL     1      -0.104   1.662  -0.173  0.00  0.00    +0.002 C 
ATOM      2  C   UNL     1      -0.171   0.139  -0.312  0.00  0.00    +0.041 C 
ATOM      3  C   UNL     1       0.775  -0.340  -1.433  0.00  0.00    +0.086 C 
ATOM      4  C   UNL     1       2.092  -0.722  -0.707  0.00  0.00    +0.077 C 
ATOM      5  C   UNL     1       1.824  -0.423   0.783  0.00  0.00    -0.027 C 
ATOM      6  N   UNL     1       0.342  -0.515   0.919  0.00  0.00    +0.395 N 
ATOM      7  C   UNL     1       2.188  -2.216  -0.919  0.00  0.00    +0.229 C 
ATOM      8  O   UNL     1       3.080  -2.927  -0.508  0.00  0.00    -0.275 OA
ATOM      9  N   UNL     1       1.133  -2.632  -1.631  0.00  0.00    -0.210 N 
ATOM     10  C   UNL     1       0.267  -1.653  -1.984  0.00  0.00    +0.229 C 
ATOM     11  O   UNL     1      -0.748  -1.797  -2.631  0.00  0.00    -0.275 OA
ATOM     12  H   UNL     1       0.035  -0.014   1.739  0.00  0.00    -0.083 HD
ATOM     13  H   UNL     1       0.041  -1.478   0.958  0.00  0.00    -0.083 HD
ENDROOT
BRANCH   9  14
ATOM     14  C   UNL     1       0.942  -3.974  -1.990  0.00  0.00    +0.044 A 
ATOM     15  C   UNL     1      -0.113  -4.695  -1.446  0.00  0.00    +0.027 A 
ATOM     16  C   UNL     1      -0.300  -6.017  -1.800  0.00  0.00    +0.040 A 
ATOM     17  C   UNL     1       0.564  -6.623  -2.698  0.00  0.00    +0.124 A 
ATOM     18  C   UNL     1       1.616  -5.905  -3.241  0.00  0.00    +0.040 A 
ATOM     19  C   UNL     1       1.802  -4.582  -2.893  0.00  0.00    +0.027 A 
ATOM     20  F   UNL     1       0.379  -7.916  -3.043  0.00  0.00    -0.205 F 
ENDBRANCH   9  14
BRANCH   5  21
ATOM     21  C   UNL     1       2.484  -1.460   1.654  0.00  0.00    -0.060 A 
ATOM     22  C   UNL     1       1.884  -2.693   1.835  0.00  0.00    +0.005 A 
ATOM     23  C   UNL     1       2.486  -3.645   2.634  0.00  0.00    +0.045 A 
ATOM     24  C   UNL     1       3.696  -3.365   3.254  0.00  0.00    +0.117 A 
ATOM     25  C   UNL     1       4.296  -2.128   3.070  0.00  0.00    +0.045 A 
ATOM     26  C   UNL     1       3.692  -1.181   2.266  0.00  0.00    +0.005 A 
BRANCH  24  27
ATOM     27  O   UNL     1       4.290  -4.301   4.040  0.00  0.00    -0.507 OA
ATOM     28  H   UNL     1       4.895  -4.886   3.565  0.00  0.00    +0.292 HD
ENDBRANCH  24  27
ENDBRANCH   5  21
BRANCH   2  29
ATOM     29  C   UNL     1      -1.585  -0.300  -0.590  0.00  0.00    +0.296 C 
ATOM     30  O   UNL     1      -2.354   0.452  -1.141  0.00  0.00    -0.252 OA
BRANCH  29  31
ATOM     31  O   UNL     1      -1.990  -1.527  -0.227  0.00  0.00    -0.469 OA
ATOM     32  C   UNL     1      -3.344  -1.877  -0.522  0.00  0.00    +0.280 C 
ENDBRANCH  29  31
ENDBRANCH   2  29
TORSDOF 5
