REMARK  Name = ZINC39440544
REMARK  8 active torsions:
REMARK  status: ('A' for Active; 'I' for Inactive)
REMARK    1  A    between atoms: C_1  and  C_2
REMARK    2  A    between atoms: N_4  and  C_5
REMARK    3  A    between atoms: C_5  and  C_7
REMARK    4  A    between atoms: C_5  and  C_17
REMARK    5  A    between atoms: C_7  and  C_8
REMARK    6  A    between atoms: N_19  and  C_20
REMARK    7  A    between atoms: C_27  and  S_30
REMARK    8  A    between atoms: S_30  and  C_31
REMARK                            x       y       z     vdW  Elec       q    Type
REMARK                         _______ _______ _______ _____ _____    ______ ____
ROOT
ATOM      1  C   UNL     1      -1.130  -2.161   0.006  0.00  0.00    +0.163 C 
ENDROOT
BRANCH   1   5
ATOM      2  C   UNL     1      -0.019   1.502   0.012  0.00  0.00    +0.109 C 
ATOM      3  C   UNL     1       0.004  -0.004   0.002  0.00  0.00    +0.211 C 
ATOM      4  O   UNL     1       1.063  -0.595  -0.017  0.00  0.00    -0.276 OA
ATOM      5  N   UNL     1      -1.152  -0.696   0.015  0.00  0.00    -0.304 N 
ATOM      6  H   UNL     1      -2.000  -0.224   0.031  0.00  0.00    +0.149 HD
ENDBRANCH   1   5
BRANCH   1   7
ATOM      7  C   UNL     1      -0.430  -2.645  -1.238  0.00  0.00    +0.238 C 
ATOM      8  O   UNL     1       0.311  -1.901  -1.845  0.00  0.00    -0.273 OA
ATOM      9  N   UNL     1      -0.628  -3.904  -1.677  0.00  0.00    -0.284 N 
ATOM     10  H   UNL     1      -1.167  -4.520  -1.155  0.00  0.00    +0.155 HD
BRANCH   9  11
ATOM     11  C   UNL     1      -0.057  -4.323  -2.885  0.00  0.00    +0.035 A 
ATOM     12  C   UNL     1       1.192  -3.857  -3.275  0.00  0.00    +0.025 A 
ATOM     13  C   UNL     1       1.762  -4.263  -4.459  0.00  0.00    +0.026 A 
ATOM     14  C   UNL     1       1.103  -5.163  -5.316  0.00  0.00    +0.042 A 
ATOM     15  C   UNL     1      -0.152  -5.615  -4.898  0.00  0.00    +0.033 A 
ATOM     16  C   UNL     1      -0.727  -5.218  -3.712  0.00  0.00    +0.040 A 
ATOM     17  S   UNL     1      -0.701  -6.716  -6.183  0.00  0.00    -0.090 S 
ATOM     18  C   UNL     1       0.758  -6.572  -7.290  0.00  0.00    +0.192 C 
ATOM     19  N   UNL     1       1.597  -5.633  -6.534  0.00  0.00    -0.323 N 
ATOM     20  H   UNL     1       2.463  -5.349  -6.869  0.00  0.00    +0.148 HD
BRANCH  18  21
ATOM     21  S   UNL     1       0.290  -5.880  -8.900  0.00  0.00    -0.131 S 
ATOM     22  C   UNL     1      -0.439  -4.270  -8.491  0.00  0.00    +0.087 C 
ENDBRANCH  18  21
ENDBRANCH   9  11
ENDBRANCH   1   7
BRANCH   1  23
ATOM     23  C   UNL     1      -0.382  -2.668   1.241  0.00  0.00    +0.069 C 
BRANCH  23  24
ATOM     24  C   UNL     1      -1.148  -2.289   2.482  0.00  0.00    -0.020 A 
ATOM     25  C   UNL     1      -2.255  -3.036   3.085  0.00  0.00    +0.003 A 
ATOM     26  C   UNL     1      -2.914  -4.223   2.763  0.00  0.00    +0.010 A 
ATOM     27  C   UNL     1      -3.938  -4.666   3.551  0.00  0.00    +0.001 A 
ATOM     28  C   UNL     1      -4.330  -3.945   4.670  0.00  0.00    +0.002 A 
ATOM     29  C   UNL     1      -3.693  -2.770   5.007  0.00  0.00    +0.026 A 
ATOM     30  C   UNL     1      -2.647  -2.301   4.219  0.00  0.00    +0.047 A 
ATOM     31  N   UNL     1      -1.832  -1.193   4.287  0.00  0.00    -0.360 N 
ATOM     32  C   UNL     1      -0.942  -1.206   3.248  0.00  0.00    +0.087 A 
ATOM     33  H   UNL     1      -1.879  -0.508   4.972  0.00  0.00    +0.165 HD
ENDBRANCH  23  24
ENDBRANCH   1  23
TORSDOF 6
