REMARK  Name = ZINC06301701
REMARK  13 active torsions:
REMARK  status: ('A' for Active; 'I' for Inactive)
REMARK    1  A    between atoms: C_1  and  C_2
REMARK    2  A    between atoms: C_4  and  C_34
REMARK    3  A    between atoms: C_7  and  C_14
REMARK    4  A    between atoms: C_14  and  C_16
REMARK    5  A    between atoms: C_14  and  N_66
REMARK    6  A    between atoms: N_20  and  C_21
REMARK    7  A    between atoms: C_21  and  C_22
REMARK    8  A    between atoms: C_28  and  C_29
REMARK    9  A    between atoms: C_28  and  C_30
REMARK   10  A    between atoms: C_28  and  N_66
REMARK   11  A    between atoms: C_31  and  C_32
REMARK   12  A    between atoms: C_31  and  C_33
REMARK   13  A    between atoms: C_31  and  N_66
REMARK                            x       y       z     vdW  Elec       q    Type
REMARK                         _______ _______ _______ _____ _____    ______ ____
ROOT
ATOM      1  C   UNL     1      -2.207   0.849   1.302  0.00  0.00    +0.039 C 
ENDROOT
BRANCH   1   8
ATOM      2  C   UNL     1       2.435  -4.602  -2.214  0.00  0.00    +0.044 C 
ATOM      3  C   UNL     1       1.644  -3.424  -1.708  0.00  0.00    -0.048 A 
ATOM      4  C   UNL     1       1.778  -2.189  -2.329  0.00  0.00    +0.007 A 
ATOM      5  C   UNL     1       1.070  -1.108  -1.885  0.00  0.00    -0.041 A 
ATOM      6  C   UNL     1       0.202  -1.246  -0.797  0.00  0.00    +0.002 A 
ATOM      7  C   UNL     1      -0.575  -0.109  -0.300  0.00  0.00    +0.018 A 
ATOM      8  C   UNL     1      -1.396  -0.301   0.762  0.00  0.00    +0.011 A 
ATOM      9  C   UNL     1      -1.498  -1.576   1.360  0.00  0.00    +0.251 A 
ATOM     10  O   UNL     1      -2.246  -1.728   2.311  0.00  0.00    -0.268 OA
ATOM     11  N   UNL     1      -0.792  -2.626   0.907  0.00  0.00    -0.322 N 
ATOM     12  H   UNL     1      -0.886  -3.489   1.342  0.00  0.00    +0.169 HD
ATOM     13  C   UNL     1       0.064  -2.496  -0.166  0.00  0.00    +0.050 A 
ATOM     14  C   UNL     1       0.795  -3.583  -0.634  0.00  0.00    +0.029 A 
ATOM     15  C   UNL     1       1.224   0.228  -2.567  0.00  0.00    +0.044 C 
ENDBRANCH   1   8
BRANCH   1  16
ATOM     16  C   UNL     1      -3.672   0.503   1.238  0.00  0.00    +0.143 A 
ATOM     17  N   UNL     1      -4.310  -0.349   2.003  0.00  0.00    -0.115 NA
ATOM     18  N   UNL     1      -5.546  -0.364   1.638  0.00  0.00    -0.023 NA
ATOM     19  N   UNL     1      -5.713   0.456   0.661  0.00  0.00    -0.044 NA
ATOM     20  N   UNL     1      -4.582   1.015   0.388  0.00  0.00    -0.228 N 
BRANCH  20  21
ATOM     21  C   UNL     1      -4.334   2.015  -0.653  0.00  0.00    +0.178 C 
BRANCH  21  22
ATOM     22  C   UNL     1      -4.129   1.313  -1.997  0.00  0.00    +0.140 C 
ATOM     23  C   UNL     1      -3.859   2.354  -3.112  0.00  0.00    +0.035 C 
ATOM     24  C   UNL     1      -3.075   1.490  -4.138  0.00  0.00    +0.031 C 
ATOM     25  C   UNL     1      -2.282   0.533  -3.221  0.00  0.00    +0.160 C 
ATOM     26  O   UNL     1      -2.951   0.492  -1.956  0.00  0.00    -0.375 OA
ENDBRANCH  21  22
ENDBRANCH  20  21
ENDBRANCH   1  16
BRANCH   1  27
ATOM     27  N   UNL     1      -1.833   1.082   2.713  0.00  0.00    +0.392 N 
ATOM     28  H   UNL     1      -2.128   0.275   3.274  0.00  0.00    -0.080 HD
BRANCH  27  29
ATOM     29  C   UNL     1      -0.368   1.238   2.828  0.00  0.00    -0.073 C 
ATOM     30  C   UNL     1       0.271  -0.152   2.854  0.00  0.00    -0.013 C 
ATOM     31  C   UNL     1      -0.037   1.976   4.127  0.00  0.00    -0.013 C 
ENDBRANCH  27  29
BRANCH  27  32
ATOM     32  C   UNL     1      -2.511   2.293   3.221  0.00  0.00    -0.073 C 
ATOM     33  C   UNL     1      -2.309   3.465   2.257  0.00  0.00    -0.013 C 
ATOM     34  C   UNL     1      -4.006   1.999   3.360  0.00  0.00    -0.013 C 
ENDBRANCH  27  32
ENDBRANCH   1  27
TORSDOF 7
