REMARK  Name = ZINC09603447
REMARK  10 active torsions:
REMARK  status: ('A' for Active; 'I' for Inactive)
REMARK    1  A    between atoms: C_1  and  C_2
REMARK    2  A    between atoms: C_2  and  C_3
REMARK    3  A    between atoms: C_3  and  N_4
REMARK    4  A    between atoms: C_8  and  C_10
REMARK    5  A    between atoms: C_10  and  O_11
REMARK    6  A    between atoms: O_11  and  C_12
REMARK    7  A    between atoms: C_12  and  C_14
REMARK    8  A    between atoms: N_20  and  C_28
REMARK    9  A    between atoms: C_21  and  C_23
REMARK   10  A    between atoms: C_31  and  C_34
REMARK                            x       y       z     vdW  Elec       q    Type
REMARK                         _______ _______ _______ _____ _____    ______ ____
ROOT
ATOM      1  C   UNL     1      -0.089   1.111   0.665  0.00  0.00    +0.124 C 
ATOM      2  C   UNL     1       1.323   0.526   0.795  0.00  0.00    +0.026 C 
ATOM      3  C   UNL     1       1.202  -0.967   1.108  0.00  0.00    +0.097 C 
ATOM      4  C   UNL     1       0.241  -1.613   0.152  0.00  0.00    +0.220 C 
ATOM      5  O   UNL     1       0.268  -2.821   0.040  0.00  0.00    -0.275 OA
ATOM      6  N   UNL     1      -0.639  -0.930  -0.581  0.00  0.00    -0.263 N 
ATOM      7  C   UNL     1      -0.749   0.523  -0.583  0.00  0.00    +0.132 C 
ENDROOT
BRANCH   6   8
ATOM      8  C   UNL     1      -1.512  -1.655  -1.401  0.00  0.00    +0.037 A 
ATOM      9  C   UNL     1      -1.442  -1.522  -2.781  0.00  0.00    +0.024 A 
ATOM     10  C   UNL     1      -2.302  -2.242  -3.587  0.00  0.00    +0.005 A 
ATOM     11  C   UNL     1      -3.239  -3.087  -3.021  0.00  0.00    -0.050 A 
ATOM     12  C   UNL     1      -3.315  -3.217  -1.646  0.00  0.00    +0.005 A 
ATOM     13  C   UNL     1      -2.454  -2.504  -0.835  0.00  0.00    +0.024 A 
ATOM     14  C   UNL     1      -4.179  -3.866  -3.903  0.00  0.00    +0.044 C 
ENDBRANCH   6   8
BRANCH   7  15
ATOM     15  C   UNL     1      -2.204   0.913  -0.607  0.00  0.00    +0.011 A 
ATOM     16  C   UNL     1      -2.808   1.920  -1.285  0.00  0.00    +0.013 A 
ATOM     17  C   UNL     1      -4.173   2.090  -1.157  0.00  0.00    +0.008 A 
ATOM     18  C   UNL     1      -4.868   1.251  -0.350  0.00  0.00    +0.045 A 
ATOM     19  S   UNL     1      -3.581   0.173   0.257  0.00  0.00    -0.100 S 
ENDBRANCH   7  15
BRANCH   1  20
ATOM     20  C   UNL     1      -0.900   0.750   1.883  0.00  0.00    +0.313 C 
ATOM     21  O   UNL     1      -1.402  -0.345   1.973  0.00  0.00    -0.250 OA
BRANCH  20  22
ATOM     22  O   UNL     1      -1.064   1.646   2.869  0.00  0.00    -0.455 OA
BRANCH  22  23
ATOM     23  C   UNL     1      -1.857   1.230   4.013  0.00  0.00    +0.328 C 
BRANCH  23  28
ATOM     24  N   UNL     1      -3.374   3.049   8.196  0.00  0.00    -0.299 N 
ATOM     25  C   UNL     1      -2.686   3.208   7.049  0.00  0.00    +0.306 C 
ATOM     26  O   UNL     1      -2.124   4.261   6.818  0.00  0.00    -0.252 OA
ATOM     27  N   UNL     1      -2.619   2.199   6.157  0.00  0.00    -0.237 N 
ATOM     28  C   UNL     1      -1.931   2.358   5.010  0.00  0.00    +0.258 C 
ATOM     29  O   UNL     1      -1.370   3.408   4.779  0.00  0.00    -0.272 OA
ATOM     30  H   UNL     1      -3.823   2.208   8.380  0.00  0.00    +0.150 HD
ATOM     31  H   UNL     1      -3.068   1.359   6.341  0.00  0.00    +0.159 HD
BRANCH  24  32
ATOM     32  C   UNL     1      -3.446   4.145   9.165  0.00  0.00    +0.105 C 
BRANCH  32  34
ATOM     33  C   UNL     1      -4.357   4.852  11.382  0.00  0.00    +0.005 C 
ATOM     34  C   UNL     1      -4.282   3.707  10.370  0.00  0.00    +0.015 C 
ENDBRANCH  32  34
ENDBRANCH  24  32
ENDBRANCH  23  28
ENDBRANCH  22  23
ENDBRANCH  20  22
ENDBRANCH   1  20
TORSDOF 8
