REMARK  Name = ZINC38976030
REMARK  7 active torsions:
REMARK  status: ('A' for Active; 'I' for Inactive)
REMARK    1  A    between atoms: C_1  and  C_2
REMARK    2  A    between atoms: C_4  and  C_8
REMARK    3  A    between atoms: C_12  and  S_26
REMARK    4  A    between atoms: N_14  and  N_15
REMARK    5  A    between atoms: C_16  and  C_17
REMARK    6  A    between atoms: C_22  and  O_23
REMARK    7  A    between atoms: O_23  and  C_24
REMARK                            x       y       z     vdW  Elec       q    Type
REMARK                         _______ _______ _______ _____ _____    ______ ____
ROOT
ATOM      1  C   UNL     1      -0.790  -2.889  -1.153  0.00  0.00    +0.206 C 
ATOM      2  N   UNL     1      -0.240  -2.303  -2.397  0.00  0.00    -0.231 NA
ATOM      3  N   UNL     1      -0.200  -3.427  -3.345  0.00  0.00    -0.225 NA
ATOM      4  C   UNL     1       0.195  -4.574  -2.486  0.00  0.00    +0.231 C 
ATOM      5  N   UNL     1      -0.514  -4.335  -1.211  0.00  0.00    -0.207 N 
ATOM      6  H   UNL     1       0.684  -1.928  -2.242  0.00  0.00    +0.143 HD
ATOM      7  H   UNL     1      -1.107  -3.582  -3.761  0.00  0.00    +0.143 HD
ENDROOT
BRANCH   1  11
ATOM      8  C   UNL     1       0.885   1.322   0.157  0.00  0.00    +0.067 C 
ATOM      9  C   UNL     1       0.708  -0.173   0.090  0.00  0.00    +0.058 C 
ATOM     10  C   UNL     1      -0.464  -0.803   0.200  0.00  0.00    +0.029 C 
ATOM     11  C   UNL     1      -0.103  -2.272   0.066  0.00  0.00    +0.190 C 
ATOM     12  N   UNL     1       1.358  -2.238  -0.116  0.00  0.00    -0.177 NA
ATOM     13  N   UNL     1       1.713  -1.057  -0.096  0.00  0.00    -0.159 NA
ENDBRANCH   1  11
BRANCH   5  14
ATOM     14  N   UNL     1      -0.854  -5.293  -0.247  0.00  0.00    -0.188 NA
ATOM     15  C   UNL     1      -1.572  -4.954   0.779  0.00  0.00    +0.141 C 
BRANCH  15  16
ATOM     16  C   UNL     1      -1.836  -5.933   1.850  0.00  0.00    +0.037 A 
ATOM     17  C   UNL     1      -2.612  -5.574   2.954  0.00  0.00    +0.028 A 
ATOM     18  C   UNL     1      -2.855  -6.494   3.953  0.00  0.00    +0.019 A 
ATOM     19  C   UNL     1      -2.331  -7.773   3.865  0.00  0.00    +0.019 A 
ATOM     20  C   UNL     1      -1.561  -8.140   2.777  0.00  0.00    +0.047 A 
ATOM     21  C   UNL     1      -1.313  -7.230   1.763  0.00  0.00    +0.129 A 
ATOM     22 BR   UNL     1      -3.907  -6.008   5.447  0.00  0.00    -0.050 Br
BRANCH  21  23
ATOM     23  O   UNL     1      -0.561  -7.591   0.691  0.00  0.00    -0.494 OA
ATOM     24  C   UNL     1      -0.061  -8.930   0.671  0.00  0.00    +0.277 C 
ENDBRANCH  21  23
ENDBRANCH  15  16
ENDBRANCH   5  14
BRANCH   4  25
ATOM     25  S   UNL     1      -0.343  -6.139  -3.230  0.00  0.00    -0.138 S 
ATOM     26  H   UNL     1       0.312  -6.183  -4.404  0.00  0.00    +0.105 HD
ENDBRANCH   4  25
TORSDOF 5
