REMARK  Name = ZINC38857924
REMARK  7 active torsions:
REMARK  status: ('A' for Active; 'I' for Inactive)
REMARK    1  A    between atoms: C_1  and  O_2
REMARK    2  A    between atoms: O_2  and  C_3
REMARK    3  A    between atoms: C_3  and  C_5
REMARK    4  A    between atoms: C_9  and  N_10
REMARK    5  A    between atoms: C_11  and  C_13
REMARK    6  A    between atoms: N_18  and  C_20
REMARK    7  A    between atoms: C_20  and  C_21
REMARK                            x       y       z     vdW  Elec       q    Type
REMARK                         _______ _______ _______ _____ _____    ______ ____
ROOT
ATOM      1  N   UNL     1      -1.283  -2.317  -2.479  0.00  0.00    -0.279 N 
ATOM      2  C   UNL     1      -1.326  -3.165  -3.525  0.00  0.00    +0.219 C 
ATOM      3  O   UNL     1      -1.370  -4.362  -3.334  0.00  0.00    -0.275 OA
ATOM      4  H   UNL     1      -1.248  -1.359  -2.632  0.00  0.00    +0.155 HD
ENDROOT
BRANCH   1   9
ATOM      5  C   UNL     1      -1.248  -2.096   0.003  0.00  0.00    +0.091 A 
ATOM      6  C   UNL     1      -1.271  -2.859   1.239  0.00  0.00    -0.021 A 
ATOM      7  C   UNL     1      -1.323  -4.197   1.062  0.00  0.00    -0.004 A 
ATOM      8  S   UNL     1      -1.342  -4.417  -0.693  0.00  0.00    -0.077 S 
ATOM      9  C   UNL     1      -1.288  -2.812  -1.185  0.00  0.00    +0.086 A 
ATOM     10  C   UNL     1      -1.357  -5.245   2.130  0.00  0.00    +0.043 C 
ATOM     11  C   UNL     1      -0.943  -4.594   3.458  0.00  0.00    +0.005 C 
ATOM     12  C   UNL     1      -1.728  -3.292   3.638  0.00  0.00    +0.005 C 
ATOM     13  C   UNL     1      -1.241  -2.246   2.631  0.00  0.00    +0.037 C 
BRANCH   5  14
ATOM     14  C   UNL     1      -1.191  -0.633   0.010  0.00  0.00    +0.342 C 
ATOM     15  O   UNL     1      -2.220   0.016   0.023  0.00  0.00    -0.245 OA
BRANCH  14  17
ATOM     16  C   UNL     1      -0.017   1.425   0.010  0.00  0.00    +0.280 C 
ATOM     17  O   UNL     1       0.002  -0.004   0.002  0.00  0.00    -0.464 OA
ENDBRANCH  14  17
ENDBRANCH   5  14
ENDBRANCH   1   9
BRANCH   2  18
ATOM     18  C   UNL     1      -1.320  -2.626  -4.933  0.00  0.00    +0.059 C 
ATOM     19  C   UNL     1      -0.040  -1.820  -5.167  0.00  0.00    +0.009 C 
ATOM     20  C   UNL     1      -0.006  -1.343  -6.622  0.00  0.00    -0.018 C 
ATOM     21  C   UNL     1      -0.107  -2.554  -7.551  0.00  0.00    -0.078 C 
ATOM     22  N   UNL     1      -1.364  -3.268  -7.297  0.00  0.00    +0.383 N 
ATOM     23  C   UNL     1      -1.373  -3.790  -5.925  0.00  0.00    -0.066 C 
ATOM     24  H   UNL     1      -2.140  -2.635  -7.420  0.00  0.00    -0.081 HD
BRANCH  22  25
ATOM     25  C   UNL     1      -1.492  -4.384  -8.245  0.00  0.00    -0.040 C 
BRANCH  25  26
ATOM     26  C   UNL     1      -1.617  -3.841  -9.645  0.00  0.00    -0.027 A 
ATOM     27  C   UNL     1      -2.865  -3.552 -10.167  0.00  0.00    +0.044 A 
ATOM     28  C   UNL     1      -2.978  -3.054 -11.453  0.00  0.00    +0.020 A 
ATOM     29  C   UNL     1      -1.845  -2.847 -12.216  0.00  0.00    +0.003 A 
ATOM     30  C   UNL     1      -0.598  -3.136 -11.696  0.00  0.00    +0.020 A 
ATOM     31  C   UNL     1      -0.482  -3.628 -10.408  0.00  0.00    +0.044 A 
ATOM     32 CL   UNL     1       1.085  -3.983  -9.752  0.00  0.00    -0.083 Cl
ATOM     33 CL   UNL     1      -4.288  -3.814  -9.208  0.00  0.00    -0.083 Cl
ENDBRANCH  25  26
ENDBRANCH  22  25
ENDBRANCH   2  18
TORSDOF 6
