REMARK  Name = ZINC39999084
REMARK  7 active torsions:
REMARK  status: ('A' for Active; 'I' for Inactive)
REMARK    1  A    between atoms: C_1  and  C_2
REMARK    2  A    between atoms: C_7  and  O_20
REMARK    3  A    between atoms: C_8  and  C_13
REMARK    4  A    between atoms: C_14  and  C_15
REMARK    5  A    between atoms: C_14  and  C_17
REMARK    6  A    between atoms: O_20  and  C_21
REMARK    7  A    between atoms: C_26  and  C_27
REMARK                            x       y       z     vdW  Elec       q    Type
REMARK                         _______ _______ _______ _____ _____    ______ ____
ROOT
ATOM      1  C   UNL     1       0.138   1.390  -0.161  0.00  0.00    +0.045 C 
ATOM      2  C   UNL     1       0.108  -0.116  -0.137  0.00  0.00    -0.034 A 
ATOM      3  C   UNL     1       0.070  -0.835  -1.339  0.00  0.00    +0.008 A 
ATOM      4  C   UNL     1       0.043  -2.199  -1.306  0.00  0.00    +0.047 A 
ATOM      5  C   UNL     1       0.054  -2.863  -0.068  0.00  0.00    +0.144 A 
ATOM      6  N   UNL     1       0.028  -4.197  -0.048  0.00  0.00    -0.194 NA
ATOM      7  C   UNL     1       0.037  -4.876   1.086  0.00  0.00    +0.235 A 
ATOM      8  C   UNL     1       0.075  -4.178   2.318  0.00  0.00    +0.103 A 
ATOM      9  C   UNL     1       0.103  -2.759   2.285  0.00  0.00    +0.269 A 
ATOM     10  O   UNL     1       0.136  -2.115   3.319  0.00  0.00    -0.266 OA
ATOM     11  N   UNL     1       0.092  -2.135   1.087  0.00  0.00    -0.267 N 
ATOM     12  C   UNL     1       0.123  -0.773   1.046  0.00  0.00    +0.099 A 
ENDROOT
BRANCH   8  13
ATOM     13  C   UNL     1       0.084  -4.872   3.541  0.00  0.00    +0.042 C 
ATOM     14  C   UNL     1       1.075  -5.809   3.800  0.00  0.00    +0.114 C 
BRANCH  14  15
ATOM     15  C   UNL     1       1.013  -6.625   5.016  0.00  0.00    +0.252 C 
ATOM     16  O   UNL     1       0.092  -6.481   5.800  0.00  0.00    -0.270 OA
ATOM     17  N   UNL     1       1.975  -7.536   5.267  0.00  0.00    -0.325 N 
ATOM     18  H   UNL     1       2.708  -7.651   4.643  0.00  0.00    +0.145 HD
ATOM     19  H   UNL     1       1.933  -8.075   6.072  0.00  0.00    +0.145 HD
ENDBRANCH  14  15
BRANCH  14  20
ATOM     20  C   UNL     1       2.158  -5.979   2.878  0.00  0.00    +0.104 C 
ATOM     21  N   UNL     1       3.017  -6.114   2.147  0.00  0.00    -0.191 NA
ENDBRANCH  14  20
ENDBRANCH   8  13
BRANCH   7  22
ATOM     22  O   UNL     1       0.009  -6.228   1.071  0.00  0.00    -0.437 OA
BRANCH  22  23
ATOM     23  C   UNL     1      -0.135  -6.849  -0.129  0.00  0.00    +0.133 A 
ATOM     24  C   UNL     1       0.984  -7.280  -0.827  0.00  0.00    +0.046 A 
ATOM     25  C   UNL     1       0.836  -7.912  -2.046  0.00  0.00    +0.004 A 
ATOM     26  C   UNL     1      -0.428  -8.115  -2.571  0.00  0.00    +0.000 A 
ATOM     27  C   UNL     1      -1.544  -7.687  -1.877  0.00  0.00    +0.007 A 
ATOM     28  C   UNL     1      -1.401  -7.059  -0.655  0.00  0.00    -0.008 A 
ATOM     29  C   UNL     1      -2.619  -6.598   0.103  0.00  0.00    +0.047 C 
ENDBRANCH  22  23
ENDBRANCH   7  22
TORSDOF 5
