REMARK  Name = ZINC34762478
REMARK  11 active torsions:
REMARK  status: ('A' for Active; 'I' for Inactive)
REMARK    1  A    between atoms: C_1  and  C_2
REMARK    2  A    between atoms: C_2  and  N_3
REMARK    3  A    between atoms: C_8  and  C_17
REMARK    4  A    between atoms: N_10  and  C_11
REMARK    5  A    between atoms: C_17  and  N_18
REMARK    6  A    between atoms: N_18  and  C_19
REMARK    7  A    between atoms: C_19  and  C_20
REMARK    8  A    between atoms: N_25  and  C_26
REMARK    9  A    between atoms: C_26  and  C_27
REMARK   10  A    between atoms: C_26  and  C_28
REMARK   11  A    between atoms: C_26  and  C_29
REMARK                            x       y       z     vdW  Elec       q    Type
REMARK                         _______ _______ _______ _____ _____    ______ ____
ROOT
ATOM      1  N   UNL     1       0.361  -0.581  -1.285  0.00  0.00    +0.383 N 
ATOM      2  C   UNL     1      -0.403  -0.284  -2.503  0.00  0.00    -0.072 C 
ATOM      3  C   UNL     1       0.513  -0.400  -3.730  0.00  0.00    +0.037 C 
ATOM      4  C   UNL     1       1.234  -1.722  -3.639  0.00  0.00    +0.045 A 
ATOM      5  C   UNL     1       1.290  -2.456  -2.495  0.00  0.00    -0.018 A 
ATOM      6  C   UNL     1       2.021  -3.610  -2.762  0.00  0.00    +0.082 A 
ATOM      7  N   UNL     1       2.395  -3.574  -4.019  0.00  0.00    -0.169 NA
ATOM      8  N   UNL     1       1.909  -2.387  -4.590  0.00  0.00    -0.236 N 
ATOM      9  C   UNL     1       0.648  -2.023  -1.202  0.00  0.00    -0.039 C 
ATOM     10  H   UNL     1       1.230  -0.069  -1.305  0.00  0.00    -0.081 HD
ENDROOT
BRANCH   8  11
ATOM     11  C   UNL     1       2.094  -1.972  -5.916  0.00  0.00    +0.066 A 
ATOM     12  C   UNL     1       2.394  -0.645  -6.194  0.00  0.00    +0.028 A 
ATOM     13  C   UNL     1       2.577  -0.238  -7.501  0.00  0.00    +0.002 A 
ATOM     14  C   UNL     1       2.462  -1.152  -8.533  0.00  0.00    +0.000 A 
ATOM     15  C   UNL     1       2.163  -2.474  -8.260  0.00  0.00    +0.002 A 
ATOM     16  C   UNL     1       1.984  -2.887  -6.954  0.00  0.00    +0.028 A 
ENDBRANCH   8  11
BRANCH   1  18
ATOM     17  C   UNL     1      -0.611   1.346  -0.129  0.00  0.00    -0.017 C 
ATOM     18  C   UNL     1      -0.418  -0.171  -0.109  0.00  0.00    -0.082 C 
ENDBRANCH   1  18
BRANCH   6  19
ATOM     19  C   UNL     1       2.329  -4.709  -1.778  0.00  0.00    +0.166 C 
BRANCH  19  20
ATOM     20  N   UNL     1       1.267  -5.717  -1.824  0.00  0.00    -0.279 N 
ATOM     21  C   UNL     1       0.194  -5.603  -1.016  0.00  0.00    +0.303 C 
ATOM     22  O   UNL     1       0.107  -4.663  -0.250  0.00  0.00    -0.253 OA
ATOM     23  N   UNL     1      -0.783  -6.530  -1.059  0.00  0.00    -0.294 N 
ATOM     24  H   UNL     1      -0.714  -7.280  -1.670  0.00  0.00    +0.151 HD
BRANCH  23  25
ATOM     25  C   UNL     1      -1.950  -6.406  -0.181  0.00  0.00    +0.028 C 
ATOM     26  C   UNL     1      -2.675  -5.092  -0.479  0.00  0.00    +0.031 C 
ATOM     27  C   UNL     1      -2.900  -7.580  -0.427  0.00  0.00    +0.031 C 
ATOM     28  C   UNL     1      -1.493  -6.417   1.279  0.00  0.00    +0.031 C 
ENDBRANCH  23  25
BRANCH  20  29
ATOM     29  C   UNL     1       1.371  -6.849  -2.747  0.00  0.00    +0.113 C 
BRANCH  29  30
ATOM     30  C   UNL     1       2.090  -8.008  -2.054  0.00  0.00    +0.006 C 
ATOM     31  C   UNL     1       3.435  -8.453  -2.632  0.00  0.00    +0.005 C 
ATOM     32  C   UNL     1       2.196  -9.331  -2.816  0.00  0.00    +0.005 C 
ENDBRANCH  29  30
ENDBRANCH  20  29
ENDBRANCH  19  20
ENDBRANCH   6  19
TORSDOF 7
