REMARK  Name = ZINC56848931
REMARK  4 active torsions:
REMARK  status: ('A' for Active; 'I' for Inactive)
REMARK    1  A    between atoms: C_3  and  C_28
REMARK    2  A    between atoms: C_6  and  C_7
REMARK    3  A    between atoms: C_7  and  N_8
REMARK    4  A    between atoms: C_15  and  C_18
REMARK                            x       y       z     vdW  Elec       q    Type
REMARK                         _______ _______ _______ _____ _____    ______ ____
ROOT
ATOM      1  N   UNL     1      -1.729  -1.012  -1.368  0.00  0.00    -0.295 N 
ATOM      2  C   UNL     1      -2.869  -1.689  -1.607  0.00  0.00    +0.302 C 
ATOM      3  O   UNL     1      -3.491  -2.178  -0.683  0.00  0.00    -0.253 OA
ATOM      4  N   UNL     1      -3.321  -1.824  -2.869  0.00  0.00    -0.285 N 
ATOM      5  C   UNL     1      -2.522  -1.345  -4.005  0.00  0.00    +0.109 C 
ATOM      6  C   UNL     1      -2.346  -2.493  -5.004  0.00  0.00    +0.020 C 
ATOM      7  C   UNL     1      -3.721  -3.043  -5.390  0.00  0.00    +0.016 C 
ATOM      8  C   UNL     1      -4.422  -3.589  -4.144  0.00  0.00    +0.093 C 
ATOM      9  C   UNL     1      -4.619  -2.459  -3.136  0.00  0.00    +0.122 C 
ATOM     10  H   UNL     1      -1.195  -0.684  -2.108  0.00  0.00    +0.151 HD
ENDROOT
BRANCH   8  11
ATOM     11  C   UNL     1      -5.762  -4.160  -4.531  0.00  0.00    +0.223 C 
ATOM     12  O   UNL     1      -6.122  -4.133  -5.689  0.00  0.00    -0.275 OA
ATOM     13  N   UNL     1      -6.561  -4.701  -3.589  0.00  0.00    -0.270 N 
ATOM     14  C   UNL     1      -7.753  -5.323  -3.960  0.00  0.00    +0.125 A 
ATOM     15  C   UNL     1      -8.520  -5.971  -2.998  0.00  0.00    +0.045 A 
ATOM     16  C   UNL     1      -9.700  -6.584  -3.378  0.00  0.00    +0.025 A 
ATOM     17  C   UNL     1     -10.075  -6.529  -4.715  0.00  0.00    +0.059 A 
ATOM     18  C   UNL     1      -9.263  -5.868  -5.617  0.00  0.00    +0.132 A 
ATOM     19  N   UNL     1      -8.146  -5.287  -5.223  0.00  0.00    -0.239 NA
ATOM     20 CL   UNL     1     -11.546  -7.282  -5.246  0.00  0.00    -0.082 Cl
ATOM     21  H   UNL     1      -6.307  -4.657  -2.654  0.00  0.00    +0.156 HD
ENDBRANCH   8  11
BRANCH   1  22
ATOM     22  C   UNL     1      -1.295  -0.771   0.011  0.00  0.00    +0.141 C 
BRANCH  22  28
ATOM     23  C   UNL     1      -0.024   1.385   0.012  0.00  0.00    +0.006 A 
ATOM     24  C   UNL     1       1.157   2.098   0.005  0.00  0.00    +0.019 A 
ATOM     25  C   UNL     1       2.377   1.420  -0.012  0.00  0.00    +0.052 A 
ATOM     26  C   UNL     1       2.394   0.024  -0.022  0.00  0.00    +0.019 A 
ATOM     27  C   UNL     1       1.205  -0.676  -0.014  0.00  0.00    +0.006 A 
ATOM     28  C   UNL     1      -0.001   0.001   0.002  0.00  0.00    -0.030 A 
BRANCH  25  29
ATOM     29  C   UNL     1       3.607   2.154  -0.020  0.00  0.00    +0.099 C 
ATOM     30  N   UNL     1       4.583   2.736  -0.026  0.00  0.00    -0.191 NA
ENDBRANCH  25  29
ENDBRANCH  22  28
ENDBRANCH   1  22
TORSDOF 4
