REMARK  Name = ZINC53688471
REMARK  11 active torsions:
REMARK  status: ('A' for Active; 'I' for Inactive)
REMARK    1  A    between atoms: C_1  and  C_2
REMARK    2  A    between atoms: C_5  and  C_27
REMARK    3  A    between atoms: N_8  and  C_10
REMARK    4  A    between atoms: C_10  and  C_11
REMARK    5  A    between atoms: C_10  and  C_12
REMARK    6  A    between atoms: C_10  and  C_13
REMARK    7  A    between atoms: C_13  and  N_14
REMARK    8  A    between atoms: N_14  and  S_15
REMARK    9  A    between atoms: S_15  and  C_18
REMARK   10  A    between atoms: C_20  and  C_24
REMARK   11  A    between atoms: N_21  and  C_23
REMARK                            x       y       z     vdW  Elec       q    Type
REMARK                         _______ _______ _______ _____ _____    ______ ____
ROOT
ATOM      1  N   UNL     1       3.483  -2.337   0.905  0.00  0.00    -0.191 NA
ATOM      2  H   UNL     1       2.952  -2.879   0.300  0.00  0.00    +0.148 HD
ENDROOT
BRANCH   1   3
ATOM      3  S   UNL     1       4.949  -1.744   0.413  0.00  0.00    +0.060 S 
ATOM      4  O   UNL     1       5.155  -2.216  -0.911  0.00  0.00    -0.153 OA
ATOM      5  O   UNL     1       4.957  -0.361   0.738  0.00  0.00    -0.153 OA
BRANCH   3   6
ATOM      6  C   UNL     1       6.182  -2.504   1.416  0.00  0.00    +0.123 A 
ATOM      7  C   UNL     1       6.664  -2.021   2.636  0.00  0.00    +0.061 A 
ATOM      8  C   UNL     1       7.614  -2.916   3.080  0.00  0.00    +0.106 A 
ATOM      9  N   UNL     1       7.704  -3.922   2.146  0.00  0.00    -0.344 N 
ATOM     10  C   UNL     1       6.827  -3.664   1.145  0.00  0.00    +0.114 A 
ATOM     11  C   UNL     1       8.595  -5.083   2.223  0.00  0.00    +0.149 C 
BRANCH   8  12
ATOM     12  C   UNL     1       8.388  -2.814   4.322  0.00  0.00    +0.258 C 
ATOM     13  O   UNL     1       9.119  -3.727   4.660  0.00  0.00    -0.269 OA
ATOM     14  N   UNL     1       8.289  -1.710   5.089  0.00  0.00    -0.324 N 
ATOM     15  H   UNL     1       7.653  -1.015   4.859  0.00  0.00    +0.145 HD
ATOM     16  H   UNL     1       8.854  -1.611   5.872  0.00  0.00    +0.145 HD
ENDBRANCH   8  12
ENDBRANCH   3   6
ENDBRANCH   1   3
BRANCH   1  17
ATOM     17  C   UNL     1       2.990  -2.045   2.253  0.00  0.00    +0.093 C 
BRANCH  17  18
ATOM     18  C   UNL     1       1.487  -2.326   2.318  0.00  0.00    -0.057 C 
ATOM     19  C   UNL     1       0.949  -1.910   3.688  0.00  0.00    -0.009 C 
ATOM     20  C   UNL     1       1.239  -3.821   2.105  0.00  0.00    -0.009 C 
BRANCH  18  26
ATOM     21  C   UNL     1       0.592   2.166   0.592  0.00  0.00    +0.005 C 
ATOM     22  C   UNL     1       0.369   0.671   0.357  0.00  0.00    -0.031 C 
ATOM     23  C   UNL     1      -1.134   0.378   0.324  0.00  0.00    +0.003 C 
ATOM     24  C   UNL     1      -1.346  -1.131   0.167  0.00  0.00    -0.031 C 
ATOM     25  C   UNL     1      -0.636  -1.862   1.308  0.00  0.00    -0.075 C 
ATOM     26  N   UNL     1       0.800  -1.562   1.269  0.00  0.00    +0.384 N 
ATOM     27  C   UNL     1       1.016  -0.127   1.491  0.00  0.00    -0.075 C 
ATOM     28  C   UNL     1      -0.768  -1.591  -1.173  0.00  0.00    +0.005 C 
ATOM     29  H   UNL     1       1.172  -1.821   0.368  0.00  0.00    -0.081 HD
ENDBRANCH  18  26
ENDBRANCH  17  18
ENDBRANCH   1  17
TORSDOF 6
