REMARK  Name = ZINC63622984
REMARK  11 active torsions:
REMARK  status: ('A' for Active; 'I' for Inactive)
REMARK    1  A    between atoms: C_1  and  C_2
REMARK    2  A    between atoms: C_2  and  C_3
REMARK    3  A    between atoms: C_6  and  C_9
REMARK    4  A    between atoms: C_9  and  C_11
REMARK    5  A    between atoms: C_11  and  O_12
REMARK    6  A    between atoms: O_12  and  C_13
REMARK    7  A    between atoms: C_13  and  C_15
REMARK    8  A    between atoms: C_15  and  C_17
REMARK    9  A    between atoms: C_15  and  N_27
REMARK   10  A    between atoms: C_17  and  C_18
REMARK   11  A    between atoms: C_28  and  C_30
REMARK                            x       y       z     vdW  Elec       q    Type
REMARK                         _______ _______ _______ _____ _____    ______ ____
ROOT
ATOM      1  C   UNL     1       6.570  -3.323  -7.536  0.00  0.00    +0.186 C 
ENDROOT
BRANCH   1   2
ATOM      2  N   UNL     1       8.033  -3.244  -7.504  0.00  0.00    -0.298 N 
ATOM      3  C   UNL     1       8.761  -3.852  -8.461  0.00  0.00    +0.245 C 
ATOM      4  O   UNL     1       8.205  -4.465  -9.351  0.00  0.00    -0.270 OA
ATOM      5  H   UNL     1       8.477  -2.755  -6.794  0.00  0.00    +0.150 HD
BRANCH   3   6
ATOM      6  C   UNL     1      10.237  -3.773  -8.429  0.00  0.00    +0.037 A 
ATOM      7  C   UNL     1      10.879  -3.075  -7.404  0.00  0.00    +0.014 A 
ATOM      8  C   UNL     1      12.256  -3.005  -7.379  0.00  0.00    +0.021 A 
ATOM      9  C   UNL     1      13.002  -3.625  -8.368  0.00  0.00    +0.041 A 
ATOM     10  C   UNL     1      12.370  -4.320  -9.386  0.00  0.00    +0.021 A 
ATOM     11  C   UNL     1      10.994  -4.402  -9.419  0.00  0.00    +0.014 A 
ATOM     12 CL   UNL     1      14.735  -3.532  -8.330  0.00  0.00    -0.084 Cl
ENDBRANCH   3   6
ENDBRANCH   1   2
BRANCH   1  13
ATOM     13  C   UNL     1       6.029  -3.192  -6.135  0.00  0.00    +0.328 C 
ATOM     14  O   UNL     1       6.787  -3.049  -5.206  0.00  0.00    -0.249 OA
BRANCH  13  15
ATOM     15  O   UNL     1       4.705  -3.236  -5.921  0.00  0.00    -0.455 OA
BRANCH  15  16
ATOM     16  C   UNL     1       4.262  -3.105  -4.568  0.00  0.00    +0.311 C 
BRANCH  16  17
ATOM     17  C   UNL     1       2.758  -3.177  -4.523  0.00  0.00    +0.200 C 
ATOM     18  O   UNL     1       2.127  -3.325  -5.548  0.00  0.00    -0.288 OA
BRANCH  17  22
ATOM     19  C   UNL     1       0.731  -2.863  -0.810  0.00  0.00    -0.048 A 
ATOM     20  C   UNL     1       0.006  -3.031  -1.978  0.00  0.00    +0.004 A 
ATOM     21  C   UNL     1       0.658  -3.134  -3.188  0.00  0.00    +0.012 A 
ATOM     22  C   UNL     1       2.054  -3.068  -3.235  0.00  0.00    +0.021 A 
ATOM     23  C   UNL     1       2.779  -2.897  -2.050  0.00  0.00    +0.012 A 
ATOM     24  C   UNL     1       2.112  -2.791  -0.848  0.00  0.00    +0.004 A 
BRANCH  19  26
ATOM     25  C   UNL     1      -0.313  -1.283   0.792  0.00  0.00    +0.009 C 
ATOM     26  C   UNL     1       0.010  -2.752   0.509  0.00  0.00    +0.032 C 
ENDBRANCH  19  26
ENDBRANCH  17  22
ENDBRANCH  16  17
ENDBRANCH  15  16
ENDBRANCH  13  15
ENDBRANCH   1  13
BRANCH   1  27
ATOM     27  C   UNL     1       6.018  -2.190  -8.404  0.00  0.00    +0.067 C 
BRANCH  27  28
ATOM     28  C   UNL     1       6.479  -0.865  -7.854  0.00  0.00    -0.039 C 
ATOM     29  C   UNL     1       7.565  -0.158  -8.241  0.00  0.00    -0.001 A 
ATOM     30  C   UNL     1       8.603  -0.402  -9.250  0.00  0.00    +0.010 A 
ATOM     31  C   UNL     1       9.588   0.510  -9.412  0.00  0.00    +0.001 A 
ATOM     32  C   UNL     1       9.644   1.680  -8.642  0.00  0.00    +0.002 A 
ATOM     33  C   UNL     1       8.727   1.974  -7.695  0.00  0.00    +0.026 A 
ATOM     34  C   UNL     1       7.646   1.085  -7.441  0.00  0.00    +0.043 A 
ATOM     35  N   UNL     1       6.649   1.144  -6.592  0.00  0.00    -0.380 N 
ATOM     36  C   UNL     1       5.819  -0.054  -6.762  0.00  0.00    +0.144 C 
ATOM     37  H   UNL     1       6.486   1.861  -5.960  0.00  0.00    +0.160 HD
ENDBRANCH  27  28
ENDBRANCH   1  27
TORSDOF 10
