REMARK  Name = ZINC37240489
REMARK  9 active torsions:
REMARK  status: ('A' for Active; 'I' for Inactive)
REMARK    1  A    between atoms: C_1  and  C_2
REMARK    2  A    between atoms: C_2  and  C_4
REMARK    3  A    between atoms: C_2  and  N_11
REMARK    4  A    between atoms: N_11  and  C_12
REMARK    5  A    between atoms: C_12  and  C_13
REMARK    6  A    between atoms: C_13  and  C_15
REMARK    7  A    between atoms: C_13  and  N_18
REMARK    8  A    between atoms: C_15  and  C_16
REMARK    9  A    between atoms: C_15  and  C_17
REMARK                            x       y       z     vdW  Elec       q    Type
REMARK                         _______ _______ _______ _____ _____    ______ ____
ROOT
ATOM      1  N   UNL     1       0.883  -0.133  -0.989  0.00  0.00    +0.382 N 
ATOM      2  H   UNL     1       0.747  -1.129  -0.902  0.00  0.00    -0.085 HD
ATOM      3  H   UNL     1       0.365   0.210  -1.784  0.00  0.00    -0.085 HD
ENDROOT
BRANCH   1   5
ATOM      4  C   UNL     1       0.499   2.052   0.049  0.00  0.00    -0.009 C 
ATOM      5  C   UNL     1       0.408   0.535   0.230  0.00  0.00    -0.044 C 
BRANCH   5   6
ATOM      6  C   UNL     1      -1.025   0.146   0.489  0.00  0.00    -0.062 A 
ATOM      7  C   UNL     1      -1.913   0.034  -0.565  0.00  0.00    +0.003 A 
ATOM      8  C   UNL     1      -3.227  -0.323  -0.327  0.00  0.00    +0.014 A 
ATOM      9  C   UNL     1      -3.653  -0.568   0.966  0.00  0.00    +0.013 A 
ATOM     10  C   UNL     1      -2.765  -0.456   2.020  0.00  0.00    +0.014 A 
ATOM     11  C   UNL     1      -1.450  -0.104   1.781  0.00  0.00    +0.003 A 
ATOM     12  I   UNL     1      -5.645  -1.108   1.327  0.00  0.00    -0.044 I 
ENDBRANCH   5   6
ENDBRANCH   1   5
BRANCH   1  13
ATOM     13  C   UNL     1       2.312   0.151  -1.177  0.00  0.00    -0.097 C 
BRANCH  13  14
ATOM     14  C   UNL     1       2.845  -0.669  -2.354  0.00  0.00    -0.083 C 
BRANCH  14  15
ATOM     15  N   UNL     1       2.237  -0.185  -3.601  0.00  0.00    +0.381 N 
ATOM     16  C   UNL     1       2.807  -0.912  -4.764  0.00  0.00    -0.079 C 
ATOM     17  C   UNL     1       1.728  -0.729  -5.861  0.00  0.00    -0.020 C 
ATOM     18  C   UNL     1       0.407  -0.822  -5.064  0.00  0.00    -0.020 C 
ATOM     19  C   UNL     1       0.788  -0.482  -3.611  0.00  0.00    -0.079 C 
ATOM     20  H   UNL     1       2.389   0.807  -3.701  0.00  0.00    -0.082 HD
ENDBRANCH  14  15
BRANCH  14  21
ATOM     21  C   UNL     1       4.365  -0.517  -2.436  0.00  0.00    -0.033 C 
ATOM     22  C   UNL     1       4.726   0.968  -2.513  0.00  0.00    +0.005 C 
ATOM     23  C   UNL     1       5.006  -1.134  -1.191  0.00  0.00    +0.005 C 
ENDBRANCH  14  21
ENDBRANCH  13  14
ENDBRANCH   1  13
TORSDOF 6
