REMARK  Name = ZINC02197326
REMARK  8 active torsions:
REMARK  status: ('A' for Active; 'I' for Inactive)
REMARK    1  A    between atoms: C_1  and  C_2
REMARK    2  A    between atoms: C_2  and  C_3
REMARK    3  A    between atoms: C_3  and  C_4
REMARK    4  A    between atoms: C_4  and  S_5
REMARK    5  A    between atoms: S_5  and  C_6
REMARK    6  A    between atoms: C_17  and  C_19
REMARK    7  A    between atoms: C_17  and  C_20
REMARK    8  A    between atoms: C_20  and  C_21
REMARK                            x       y       z     vdW  Elec       q    Type
REMARK                         _______ _______ _______ _____ _____    ______ ____
ROOT
ATOM      1  C   UNL     1       1.579  -4.396   2.548  0.00  0.00    +0.171 A 
ATOM      2  N   UNL     1       0.978  -4.930   1.506  0.00  0.00    -0.185 NA
ATOM      3  C   UNL     1       0.895  -6.251   1.326  0.00  0.00    +0.282 A 
ATOM      4  C   UNL     1       1.496  -7.160   2.331  0.00  0.00    +0.075 A 
ATOM      5  C   UNL     1       1.526  -8.620   2.344  0.00  0.00    -0.018 A 
ATOM      6  C   UNL     1       2.145  -9.213   3.389  0.00  0.00    +0.021 A 
ATOM      7  S   UNL     1       2.715  -7.875   4.397  0.00  0.00    -0.073 S 
ATOM      8  C   UNL     1       2.117  -6.528   3.410  0.00  0.00    +0.093 A 
ATOM      9  N   UNL     1       2.158  -5.171   3.509  0.00  0.00    -0.328 N 
ATOM     10  C   UNL     1       2.295 -10.685   3.611  0.00  0.00    +0.203 C 
ATOM     11  O   UNL     1       1.405 -11.361   2.708  0.00  0.00    -0.368 OA
ATOM     12  C   UNL     1       1.496 -10.891   1.360  0.00  0.00    +0.071 C 
ATOM     13  C   UNL     1       0.902  -9.483   1.250  0.00  0.00    +0.071 C 
ATOM     14  C   UNL     1       2.964 -10.855   0.934  0.00  0.00    +0.042 C 
ATOM     15  O   UNL     1       0.329  -6.705   0.344  0.00  0.00    -0.265 OA
ATOM     16  H   UNL     1       2.599  -4.754   4.266  0.00  0.00    +0.168 HD
ENDROOT
BRANCH  12  17
ATOM     17  C   UNL     1       0.726 -11.839   0.439  0.00  0.00    +0.032 C 
ATOM     18  C   UNL     1       1.328 -13.242   0.533  0.00  0.00    +0.007 C 
ENDBRANCH  12  17
BRANCH   1  19
ATOM     19  S   UNL     1       1.640  -2.642   2.703  0.00  0.00    -0.088 S 
BRANCH  19  20
ATOM     20  C   UNL     1       0.763  -2.041   1.233  0.00  0.00    +0.077 C 
BRANCH  20  21
ATOM     21  C   UNL     1       0.742  -0.511   1.242  0.00  0.00    +0.011 C 
BRANCH  21  23
ATOM     22  C   UNL     1      -0.019   1.526   0.010  0.00  0.00    +0.004 C 
ATOM     23  C   UNL     1       0.002  -0.004   0.002  0.00  0.00    -0.003 C 
ENDBRANCH  21  23
ENDBRANCH  20  21
ENDBRANCH  19  20
ENDBRANCH   1  19
TORSDOF 5
