REMARK  Name = ZINC20311211
REMARK  9 active torsions:
REMARK  status: ('A' for Active; 'I' for Inactive)
REMARK    1  A    between atoms: C_1  and  C_2
REMARK    2  A    between atoms: C_2  and  C_4
REMARK    3  A    between atoms: C_2  and  N_20
REMARK    4  A    between atoms: N_6  and  N_7
REMARK    5  A    between atoms: C_8  and  C_9
REMARK    6  A    between atoms: C_11  and  O_18
REMARK    7  A    between atoms: C_12  and  O_16
REMARK    8  A    between atoms: O_16  and  C_17
REMARK    9  A    between atoms: O_18  and  C_19
REMARK                            x       y       z     vdW  Elec       q    Type
REMARK                         _______ _______ _______ _____ _____    ______ ____
ROOT
ATOM      1  C   UNL     1      -0.016   1.344   0.009  0.00  0.00    +0.252 C 
ATOM      2  O   UNL     1       1.026   1.964   0.003  0.00  0.00    -0.272 OA
ATOM      3  N   UNL     1       0.002  -0.004   0.002  0.00  0.00    -0.205 N 
ATOM      4  H   UNL     1      -0.943  -0.567   0.008  0.00  0.00    +0.177 HD
ENDROOT
BRANCH   1   6
ATOM      5  C   UNL     1      -2.123   1.692   1.271  0.00  0.00    +0.038 C 
ATOM      6  C   UNL     1      -1.331   2.079   0.020  0.00  0.00    +0.158 C 
BRANCH   6   7
ATOM      7  N   UNL     1      -1.083   3.523   0.026  0.00  0.00    -0.295 NA
ATOM      8  C   UNL     1      -1.494   4.530  -0.954  0.00  0.00    +0.126 C 
ATOM      9  C   UNL     1      -2.729   4.300  -1.759  0.00  0.00    -0.003 C 
ATOM     10  C   UNL     1      -3.363   5.434  -2.150  0.00  0.00    -0.003 C 
ATOM     11  C   UNL     1      -2.793   6.756  -1.817  0.00  0.00    -0.002 C 
ATOM     12  C   UNL     1      -2.042   6.896  -0.704  0.00  0.00    +0.003 C 
ATOM     13  C   UNL     1      -1.856   5.647   0.079  0.00  0.00    +0.176 C 
ATOM     14  N   UNL     1      -0.775   5.497   1.028  0.00  0.00    -0.163 NA
ATOM     15  N   UNL     1      -0.387   4.305   0.990  0.00  0.00    -0.101 NA
ATOM     16  H   UNL     1      -1.202   2.432   0.099  0.00  0.00    +0.149 HD
ENDBRANCH   6   7
ENDBRANCH   1   6
BRANCH   3  17
ATOM     17  N   UNL     1       1.225  -0.688  -0.013  0.00  0.00    -0.188 NA
ATOM     18  C   UNL     1       1.242  -1.986  -0.021  0.00  0.00    +0.138 C 
BRANCH  18  19
ATOM     19  C   UNL     1       2.529  -2.705  -0.037  0.00  0.00    -0.001 A 
ATOM     20  C   UNL     1       2.550  -4.103  -0.044  0.00  0.00    +0.059 A 
ATOM     21  C   UNL     1       3.759  -4.773  -0.060  0.00  0.00    +0.163 A 
ATOM     22  C   UNL     1       4.953  -4.056  -0.068  0.00  0.00    +0.175 A 
ATOM     23  C   UNL     1       4.933  -2.668  -0.060  0.00  0.00    +0.064 A 
ATOM     24  C   UNL     1       3.730  -1.992  -0.050  0.00  0.00    +0.028 A 
ATOM     25 BR   UNL     1       6.558  -1.701  -0.072  0.00  0.00    -0.046 Br
BRANCH  22  26
ATOM     26  O   UNL     1       6.141  -4.717  -0.084  0.00  0.00    -0.490 OA
ATOM     27  C   UNL     1       6.694  -5.025  -1.365  0.00  0.00    +0.277 C 
ENDBRANCH  22  26
BRANCH  21  28
ATOM     28  O   UNL     1       3.782  -6.133  -0.068  0.00  0.00    -0.491 OA
ATOM     29  C   UNL     1       2.520  -6.803  -0.059  0.00  0.00    +0.277 C 
ENDBRANCH  21  28
ENDBRANCH  18  19
ENDBRANCH   3  17
TORSDOF 6
