REMARK  Name = ZINC19501708
REMARK  9 active torsions:
REMARK  status: ('A' for Active; 'I' for Inactive)
REMARK    1  A    between atoms: C_1  and  C_2
REMARK    2  A    between atoms: C_2  and  C_3
REMARK    3  A    between atoms: C_3  and  C_4
REMARK    4  A    between atoms: C_10  and  C_17
REMARK    5  A    between atoms: C_14  and  C_16
REMARK    6  A    between atoms: C_17  and  C_19
REMARK    7  A    between atoms: C_17  and  O_36
REMARK    8  A    between atoms: C_19  and  N_20
REMARK    9  A    between atoms: C_33  and  C_35
REMARK                            x       y       z     vdW  Elec       q    Type
REMARK                         _______ _______ _______ _____ _____    ______ ____
ROOT
ATOM      1  C   UNL     1      -0.002   1.058   0.029  0.00  0.00    +0.128 C 
ENDROOT
BRANCH   1   8
ATOM      2  C   UNL     1      -3.220   3.707   5.203  0.00  0.00    +0.220 C 
ATOM      3  O   UNL     1      -3.685   3.816   6.318  0.00  0.00    -0.275 OA
ATOM      4  N   UNL     1      -2.543   2.593   4.861  0.00  0.00    -0.268 N 
ATOM      5  C   UNL     1      -1.965   2.358   3.610  0.00  0.00    +0.040 A 
ATOM      6  C   UNL     1      -1.949   3.172   2.475  0.00  0.00    +0.024 A 
ATOM      7  C   UNL     1      -1.312   2.752   1.327  0.00  0.00    +0.008 A 
ATOM      8  C   UNL     1      -0.693   1.516   1.287  0.00  0.00    -0.021 A 
ATOM      9  C   UNL     1      -0.704   0.705   2.406  0.00  0.00    +0.011 A 
ATOM     10  C   UNL     1      -1.337   1.123   3.561  0.00  0.00    -0.024 A 
ATOM     11  C   UNL     1      -1.498   0.448   4.904  0.00  0.00    +0.059 C 
ATOM     12  C   UNL     1      -2.304   1.450   5.747  0.00  0.00    +0.083 C 
ATOM     13  C   UNL     1      -3.633   0.829   6.182  0.00  0.00    +0.029 C 
BRANCH   2  14
ATOM     14  C   UNL     1      -3.399   4.817   4.200  0.00  0.00    +0.096 C 
BRANCH  14  16
ATOM     15  C   UNL     1      -4.380   7.083   3.818  0.00  0.00    +0.004 C 
ATOM     16  C   UNL     1      -4.198   5.956   4.837  0.00  0.00    +0.006 C 
ENDBRANCH  14  16
ENDBRANCH   2  14
ENDBRANCH   1   8
BRANCH   1  17
ATOM     17  O   UNL     1      -0.724   1.531  -1.110  0.00  0.00    -0.389 OA
ATOM     18  H   UNL     1      -0.368   1.294  -2.124  0.00  0.00    +0.210 HD
ENDBRANCH   1  17
BRANCH   1  19
ATOM     19  C   UNL     1       1.423   1.615  -0.003  0.00  0.00    -0.041 C 
BRANCH  19  20
ATOM     20  N   UNL     1       2.146   1.046  -1.147  0.00  0.00    +0.387 N 
ATOM     21  C   UNL     1       1.976  -0.413  -1.205  0.00  0.00    -0.073 C 
ATOM     22  C   UNL     1       3.029  -1.014  -2.145  0.00  0.00    +0.019 C 
ATOM     23  C   UNL     1       3.014  -0.222  -3.429  0.00  0.00    -0.022 A 
ATOM     24  C   UNL     1       3.575  -0.557  -4.718  0.00  0.00    +0.003 A 
ATOM     25  C   UNL     1       4.287  -1.667  -5.186  0.00  0.00    +0.010 A 
ATOM     26  C   UNL     1       4.673  -1.646  -6.504  0.00  0.00    +0.001 A 
ATOM     27  C   UNL     1       4.378  -0.583  -7.341  0.00  0.00    +0.002 A 
ATOM     28  C   UNL     1       3.675   0.527  -6.905  0.00  0.00    +0.026 A 
ATOM     29  C   UNL     1       3.271   0.535  -5.572  0.00  0.00    +0.047 A 
ATOM     30  N   UNL     1       2.578   1.450  -4.831  0.00  0.00    -0.359 N 
ATOM     31  H   UNL     1       2.236   2.387  -5.294  0.00  0.00    +0.166 HD
ATOM     32  C   UNL     1       2.429   0.991  -3.550  0.00  0.00    +0.006 A 
ATOM     33  C   UNL     1       1.730   1.686  -2.406  0.00  0.00    -0.024 C 
ATOM     34  C   UNL     1       2.124   3.164  -2.385  0.00  0.00    -0.007 C 
ATOM     35  H   UNL     1       3.218   1.249  -1.007  0.00  0.00    -0.081 HD
ENDBRANCH  19  20
ENDBRANCH   1  19
TORSDOF 6
