REMARK  Name = ZINC43742680
REMARK  9 active torsions:
REMARK  status: ('A' for Active; 'I' for Inactive)
REMARK    1  A    between atoms: C_1  and  C_2
REMARK    2  A    between atoms: C_5  and  C_8
REMARK    3  A    between atoms: C_8  and  C_10
REMARK    4  A    between atoms: C_8  and  C_35
REMARK    5  A    between atoms: C_10  and  C_11
REMARK    6  A    between atoms: C_11  and  N_12
REMARK    7  A    between atoms: N_12  and  C_13
REMARK    8  A    between atoms: C_13  and  C_14
REMARK    9  A    between atoms: C_21  and  C_34
REMARK                            x       y       z     vdW  Elec       q    Type
REMARK                         _______ _______ _______ _____ _____    ______ ____
ROOT
ATOM      1  N   UNL     1      -2.414  -6.839   1.284  0.00  0.00    +0.380 N 
ATOM      2  H   UNL     1      -2.371  -6.577   2.258  0.00  0.00    -0.086 HD
ATOM      3  H   UNL     1      -3.243  -6.445   0.866  0.00  0.00    -0.086 HD
ENDROOT
BRANCH   1   4
ATOM      4  C   UNL     1      -1.224  -6.330   0.588  0.00  0.00    -0.082 C 
BRANCH   4   5
ATOM      5  C   UNL     1      -1.179  -4.805   0.704  0.00  0.00    -0.003 C 
BRANCH   5   6
ATOM      6  C   UNL     1       0.059  -4.275  -0.021  0.00  0.00    +0.083 C 
BRANCH   6  11
ATOM      7  C   UNL     1      -0.018   1.503   0.010  0.00  0.00    +0.044 C 
ATOM      8  C   UNL     1       0.002  -0.004   0.002  0.00  0.00    -0.050 A 
ATOM      9  C   UNL     1       0.006  -0.689  -1.199  0.00  0.00    +0.003 A 
ATOM     10  C   UNL     1       0.025  -2.071  -1.206  0.00  0.00    +0.004 A 
ATOM     11  C   UNL     1       0.040  -2.768  -0.013  0.00  0.00    -0.037 A 
ATOM     12  C   UNL     1       0.037  -2.084   1.188  0.00  0.00    +0.004 A 
ATOM     13  C   UNL     1       0.023  -0.702   1.195  0.00  0.00    +0.003 A 
ENDBRANCH   6  11
BRANCH   6  14
ATOM     14  C   UNL     1       1.300  -4.766   0.679  0.00  0.00    +0.112 A 
ATOM     15  C   UNL     1       2.267  -5.522   0.130  0.00  0.00    +0.045 A 
ATOM     16  C   UNL     1       3.234  -5.747   1.137  0.00  0.00    +0.041 A 
ATOM     17  C   UNL     1       2.800  -5.114   2.242  0.00  0.00    +0.195 A 
ATOM     18  O   UNL     1       1.631  -4.516   1.957  0.00  0.00    -0.467 OA
ENDBRANCH   6  14
ENDBRANCH   5   6
ENDBRANCH   4   5
ENDBRANCH   1   4
BRANCH   1  19
ATOM     19  C   UNL     1      -2.457  -8.303   1.173  0.00  0.00    -0.068 C 
BRANCH  19  20
ATOM     20  C   UNL     1      -3.696  -8.833   1.898  0.00  0.00    +0.087 C 
ATOM     21  C   UNL     1      -3.734 -10.373   1.855  0.00  0.00    +0.042 C 
ATOM     22  C   UNL     1      -3.204 -11.008   3.116  0.00  0.00    +0.014 C 
ATOM     23  C   UNL     1      -4.064 -10.657   4.330  0.00  0.00    +0.030 C 
ATOM     24  C   UNL     1      -5.489 -11.160   4.056  0.00  0.00    -0.023 C 
ATOM     25  C   UNL     1      -6.355 -10.928   5.295  0.00  0.00    +0.007 C 
ATOM     26  C   UNL     1      -5.815 -11.751   6.466  0.00  0.00    +0.003 C 
ATOM     27  C   UNL     1      -4.402 -11.272   6.817  0.00  0.00    +0.037 C 
ATOM     28  C   UNL     1      -3.511 -11.356   5.573  0.00  0.00    +0.096 C 
ATOM     29  C   UNL     1      -1.996 -11.383   5.765  0.00  0.00    +0.196 C 
ATOM     30  O   UNL     1      -2.742 -12.543   5.387  0.00  0.00    -0.368 OA
ATOM     31  C   UNL     1      -6.052 -10.374   2.875  0.00  0.00    +0.052 C 
ATOM     32  C   UNL     1      -5.235 -10.634   1.622  0.00  0.00    +0.181 C 
ATOM     33  O   UNL     1      -5.571  -9.554   0.707  0.00  0.00    -0.461 OA
ATOM     34  C   UNL     1      -4.963  -8.431   1.160  0.00  0.00    +0.309 C 
ATOM     35  O   UNL     1      -5.359  -7.300   1.005  0.00  0.00    -0.251 OA
ATOM     36  C   UNL     1      -5.453 -12.653   3.726  0.00  0.00    +0.011 C 
ENDBRANCH  19  20
ENDBRANCH   1  19
TORSDOF 7
