REMARK  Name = ZINC49007272
REMARK  5 active torsions:
REMARK  status: ('A' for Active; 'I' for Inactive)
REMARK    1  A    between atoms: C_1  and  C_2
REMARK    2  A    between atoms: C_5  and  S_8
REMARK    3  A    between atoms: S_8  and  C_11
REMARK    4  A    between atoms: C_16  and  N_17
REMARK    5  A    between atoms: C_21  and  C_24
REMARK                            x       y       z     vdW  Elec       q    Type
REMARK                         _______ _______ _______ _____ _____    ______ ____
ROOT
ATOM      1  C   UNL     1       1.848  -4.809  -0.070  0.00  0.00    +0.151 A 
ATOM      2  C   UNL     1       2.444  -5.596   0.897  0.00  0.00    +0.145 A 
ATOM      3  N   UNL     1       3.611  -6.168   0.638  0.00  0.00    -0.221 NA
ATOM      4  C   UNL     1       4.209  -5.995  -0.531  0.00  0.00    +0.220 A 
ATOM      5  N   UNL     1       3.672  -5.249  -1.484  0.00  0.00    -0.198 NA
ATOM      6  C   UNL     1       2.500  -4.650  -1.294  0.00  0.00    +0.147 A 
ATOM      7  N   UNL     1       5.427  -6.610  -0.763  0.00  0.00    -0.300 N 
ATOM      8  C   UNL     1       6.122  -6.436  -2.045  0.00  0.00    +0.108 C 
ATOM      9  C   UNL     1       7.548  -5.947  -1.771  0.00  0.00    +0.032 C 
ATOM     10  C   UNL     1       8.239  -6.915  -0.809  0.00  0.00    +0.078 C 
ATOM     11  C   UNL     1       7.477  -6.950   0.518  0.00  0.00    +0.032 C 
ATOM     12  C   UNL     1       6.053  -7.445   0.272  0.00  0.00    +0.108 C 
ENDROOT
BRANCH  10  13
ATOM     13  C   UNL     1       9.653  -6.456  -0.563  0.00  0.00    +0.214 C 
ATOM     14  O   UNL     1      10.068  -5.453  -1.105  0.00  0.00    -0.276 OA
ATOM     15  N   UNL     1      10.457  -7.160   0.258  0.00  0.00    -0.329 N 
ATOM     16  H   UNL     1      10.126  -7.962   0.691  0.00  0.00    +0.145 HD
ATOM     17  H   UNL     1      11.368  -6.864   0.415  0.00  0.00    +0.145 HD
ENDBRANCH  10  13
BRANCH   1  18
ATOM     18  S   UNL     1       0.297  -4.030   0.233  0.00  0.00    +0.030 S 
ATOM     19  O   UNL     1      -0.076  -4.370   1.562  0.00  0.00    -0.164 OA
ATOM     20  O   UNL     1      -0.528  -4.319  -0.887  0.00  0.00    -0.164 OA
BRANCH  18  25
ATOM     21  C   UNL     1       1.248   1.928   0.181  0.00  0.00    +0.044 C 
ATOM     22  C   UNL     1       1.010   0.440   0.194  0.00  0.00    -0.050 A 
ATOM     23  C   UNL     1       0.581  -0.202  -0.953  0.00  0.00    +0.005 A 
ATOM     24  C   UNL     1       0.363  -1.567  -0.941  0.00  0.00    +0.027 A 
ATOM     25  C   UNL     1       0.575  -2.291   0.218  0.00  0.00    +0.094 A 
ATOM     26  C   UNL     1       1.006  -1.649   1.364  0.00  0.00    +0.027 A 
ATOM     27  C   UNL     1       1.228  -0.285   1.351  0.00  0.00    +0.005 A 
ENDBRANCH  18  25
ENDBRANCH   1  18
BRANCH   6  28
ATOM     28  N   UNL     1       1.937  -3.874  -2.294  0.00  0.00    -0.341 N 
ATOM     29  H   UNL     1       1.037  -3.529  -2.192  0.00  0.00    +0.144 HD
ATOM     30  H   UNL     1       2.444  -3.676  -3.097  0.00  0.00    +0.144 HD
ENDBRANCH   6  28
TORSDOF 4
