REMARK  Name = ZINC13500551
REMARK  14 active torsions:
REMARK  status: ('A' for Active; 'I' for Inactive)
REMARK    1  A    between atoms: C_1  and  C_2
REMARK    2  A    between atoms: C_9  and  C_14
REMARK    3  A    between atoms: C_14  and  N_66
REMARK    4  A    between atoms: C_15  and  C_16
REMARK    5  A    between atoms: C_15  and  N_66
REMARK    6  A    between atoms: C_16  and  C_17
REMARK    7  A    between atoms: C_17  and  O_18
REMARK    8  A    between atoms: C_19  and  C_21
REMARK    9  A    between atoms: C_19  and  C_34
REMARK   10  A    between atoms: C_19  and  N_66
REMARK   11  A    between atoms: N_25  and  C_26
REMARK   12  A    between atoms: C_26  and  C_27
REMARK   13  A    between atoms: C_34  and  C_35
REMARK   14  A    between atoms: C_34  and  C_36
REMARK                            x       y       z     vdW  Elec       q    Type
REMARK                         _______ _______ _______ _____ _____    ______ ____
ROOT
ATOM      1  N   UNL     1      -3.268   6.388   1.488  0.00  0.00    +0.389 N 
ATOM      2  H   UNL     1      -3.082   7.388   1.629  0.00  0.00    -0.080 HD
ENDROOT
BRANCH   1   3
ATOM      3  C   UNL     1      -3.853   6.193   0.145  0.00  0.00    -0.037 C 
BRANCH   3  12
ATOM      4  C   UNL     1       1.005   7.031  -5.452  0.00  0.00    +0.044 C 
ATOM      5  C   UNL     1       0.037   7.612  -4.454  0.00  0.00    -0.050 A 
ATOM      6  C   UNL     1      -0.181   8.983  -4.424  0.00  0.00    +0.005 A 
ATOM      7  C   UNL     1      -1.062   9.536  -3.520  0.00  0.00    +0.026 A 
ATOM      8  C   UNL     1      -1.741   8.714  -2.627  0.00  0.00    +0.049 A 
ATOM      9  C   UNL     1      -1.518   7.325  -2.659  0.00  0.00    -0.001 A 
ATOM     10  C   UNL     1      -0.619   6.785  -3.586  0.00  0.00    +0.013 A 
ATOM     11  C   UNL     1      -2.232   6.468  -1.711  0.00  0.00    +0.017 A 
ATOM     12  C   UNL     1      -3.096   7.047  -0.840  0.00  0.00    +0.001 A 
ATOM     13  C   UNL     1      -3.284   8.445  -0.849  0.00  0.00    +0.251 A 
ATOM     14  O   UNL     1      -4.061   8.945  -0.053  0.00  0.00    -0.268 OA
ATOM     15  N   UNL     1      -2.628   9.240  -1.712  0.00  0.00    -0.322 N 
ATOM     16  H   UNL     1      -2.780  10.198  -1.691  0.00  0.00    +0.169 HD
ENDBRANCH   3  12
ENDBRANCH   1   3
BRANCH   1  17
ATOM     17  C   UNL     1      -1.995   5.643   1.597  0.00  0.00    -0.075 C 
BRANCH  17  18
ATOM     18  C   UNL     1      -0.856   6.557   1.143  0.00  0.00    +0.009 C 
BRANCH  18  19
ATOM     19  C   UNL     1       0.461   5.778   1.161  0.00  0.00    +0.154 C 
BRANCH  19  20
ATOM     20  O   UNL     1       1.525   6.632   0.737  0.00  0.00    -0.395 OA
ATOM     21  H   UNL     1       2.392   6.204   0.723  0.00  0.00    +0.209 HD
ENDBRANCH  19  20
ENDBRANCH  18  19
ENDBRANCH  17  18
ENDBRANCH   1  17
BRANCH   1  22
ATOM     22  C   UNL     1      -4.215   5.924   2.523  0.00  0.00    +0.006 C 
BRANCH  22  23
ATOM     23  C   UNL     1      -3.850   6.571   3.835  0.00  0.00    +0.139 A 
ATOM     24  N   UNL     1      -2.963   6.142   4.699  0.00  0.00    -0.115 NA
ATOM     25  N   UNL     1      -2.940   6.967   5.688  0.00  0.00    -0.023 NA
ATOM     26  N   UNL     1      -3.795   7.907   5.481  0.00  0.00    -0.044 NA
ATOM     27  N   UNL     1      -4.376   7.699   4.348  0.00  0.00    -0.226 N 
BRANCH  27  28
ATOM     28  C   UNL     1      -5.415   8.531   3.736  0.00  0.00    +0.182 C 
BRANCH  28  29
ATOM     29  C   UNL     1      -6.751   8.200   4.349  0.00  0.00    -0.026 A 
ATOM     30  C   UNL     1      -7.576   7.269   3.746  0.00  0.00    +0.008 A 
ATOM     31  C   UNL     1      -8.799   6.962   4.311  0.00  0.00    +0.038 A 
ATOM     32  C   UNL     1      -9.203   7.593   5.474  0.00  0.00    +0.123 A 
ATOM     33  C   UNL     1      -8.378   8.530   6.075  0.00  0.00    +0.038 A 
ATOM     34  C   UNL     1      -7.153   8.832   5.512  0.00  0.00    +0.008 A 
ATOM     35  F   UNL     1     -10.401   7.296   6.024  0.00  0.00    -0.205 F 
ENDBRANCH  28  29
ENDBRANCH  27  28
ENDBRANCH  22  23
BRANCH  22  36
ATOM     36  C   UNL     1      -4.146   4.402   2.669  0.00  0.00    -0.024 C 
ATOM     37  C   UNL     1      -5.136   3.947   3.743  0.00  0.00    +0.006 C 
ATOM     38  C   UNL     1      -4.503   3.746   1.334  0.00  0.00    +0.006 C 
ENDBRANCH  22  36
ENDBRANCH   1  22
TORSDOF 11
