REMARK  Name = ZINC22508054
REMARK  6 active torsions:
REMARK  status: ('A' for Active; 'I' for Inactive)
REMARK    1  A    between atoms: C_1  and  C_2
REMARK    2  A    between atoms: C_6  and  C_8
REMARK    3  A    between atoms: C_6  and  C_9
REMARK    4  A    between atoms: N_11  and  N_12
REMARK    5  A    between atoms: N_12  and  C_13
REMARK    6  A    between atoms: C_13  and  C_14
REMARK                            x       y       z     vdW  Elec       q    Type
REMARK                         _______ _______ _______ _____ _____    ______ ____
ROOT
ATOM      1  C   UNL     1      -2.304   2.832   8.081  0.00  0.00    +0.234 C 
ATOM      2  O   UNL     1      -3.285   2.946   7.378  0.00  0.00    -0.274 OA
ATOM      3  N   UNL     1      -1.093   2.637   7.522  0.00  0.00    -0.264 N 
ATOM      4  C   UNL     1      -0.969   2.567   6.139  0.00  0.00    +0.165 A 
ATOM      5  N   UNL     1      -1.907   2.667   5.217  0.00  0.00    -0.229 NA
ATOM      6  C   UNL     1      -1.616   2.576   3.934  0.00  0.00    +0.054 A 
ATOM      7  C   UNL     1      -0.323   2.378   3.578  0.00  0.00    +0.014 A 
ATOM      8  S   UNL     1       0.460   2.326   5.183  0.00  0.00    -0.057 S 
ATOM      9  C   UNL     1       0.284   2.238   2.205  0.00  0.00    +0.044 C 
ATOM     10  C   UNL     1      -0.729   1.579   1.267  0.00  0.00    +0.005 C 
ATOM     11  C   UNL     1      -0.013   1.086   0.008  0.00  0.00    +0.000 C 
ATOM     12  C   UNL     1      -0.753   1.593  -1.231  0.00  0.00    +0.000 C 
ATOM     13  C   UNL     1      -1.380   2.955  -0.929  0.00  0.00    +0.000 C 
ATOM     14  C   UNL     1      -2.836   2.763  -0.501  0.00  0.00    +0.000 C 
ATOM     15  C   UNL     1      -3.474   4.128  -0.235  0.00  0.00    +0.000 C 
ATOM     16  C   UNL     1      -3.716   4.294   1.266  0.00  0.00    +0.000 C 
ATOM     17  C   UNL     1      -2.440   3.932   2.030  0.00  0.00    +0.006 C 
ATOM     18  C   UNL     1      -2.694   2.691   2.888  0.00  0.00    +0.056 C 
ATOM     19  H   UNL     1      -0.203   2.534   8.160  0.00  0.00    +0.157 HD
ENDROOT
BRANCH   1  20
ATOM     20  C   UNL     1      -2.438   2.908   9.580  0.00  0.00    +0.198 C 
BRANCH  20  21
ATOM     21  N   UNL     1      -3.847   3.124   9.935  0.00  0.00    -0.232 NA
ATOM     22  H   UNL     1      -4.212   3.949   9.483  0.00  0.00    +0.145 HD
BRANCH  21  25
ATOM     23  C   UNL     1      -5.230   3.393  11.816  0.00  0.00    +0.286 C 
ATOM     24  O   UNL     1      -6.192   3.504  11.087  0.00  0.00    -0.269 OA
ATOM     25  N   UNL     1      -4.005   3.198  11.290  0.00  0.00    -0.246 N 
ATOM     26  H   UNL     1      -3.131   3.098  11.952  0.00  0.00    +0.169 HD
BRANCH  23  31
ATOM     27  C   UNL     1      -8.554   2.325  12.833  0.00  0.00    +0.040 C 
ATOM     28  C   UNL     1      -7.442   2.529  13.864  0.00  0.00    +0.145 C 
ATOM     29  C   UNL     1      -6.349   1.451  13.694  0.00  0.00    +0.195 C 
ATOM     30  O   UNL     1      -5.124   2.193  13.914  0.00  0.00    -0.339 OA
ATOM     31  C   UNL     1      -5.404   3.475  13.311  0.00  0.00    +0.247 C 
ATOM     32  O   UNL     1      -6.771   3.781  13.634  0.00  0.00    -0.336 OA
ATOM     33  C   UNL     1      -4.474   4.543  13.891  0.00  0.00    +0.085 C 
ENDBRANCH  23  31
ENDBRANCH  21  25
ENDBRANCH  20  21
ENDBRANCH   1  20
TORSDOF 4
