REMARK  Name = ZINC39469659
REMARK  7 active torsions:
REMARK  status: ('A' for Active; 'I' for Inactive)
REMARK    1  A    between atoms: C_1  and  S_2
REMARK    2  A    between atoms: S_2  and  C_3
REMARK    3  A    between atoms: P_12  and  S_28
REMARK    4  A    between atoms: C_20  and  C_21
REMARK    5  A    between atoms: C_21  and  C_22
REMARK    6  A    between atoms: S_28  and  O_31
REMARK    7  A    between atoms: O_31  and  C_32
REMARK                            x       y       z     vdW  Elec       q    Type
REMARK                         _______ _______ _______ _____ _____    ______ ____
ROOT
ATOM      1  C   UNL     1      -1.702  -0.454   0.016  0.00  0.00    +0.007 C 
ATOM      2  C   UNL     1      -2.651   0.496   0.024  0.00  0.00    -0.008 C 
ATOM      3  C   UNL     1      -4.094   0.073   0.022  0.00  0.00    +0.017 C 
ATOM      4  C   UNL     1      -5.000   1.173  -0.520  0.00  0.00    -0.003 C 
ATOM      5  C   UNL     1      -6.453   0.676  -0.537  0.00  0.00    -0.020 C 
ATOM      6  C   UNL     1      -7.314   1.809  -1.111  0.00  0.00    +0.158 C 
ATOM      7  O   UNL     1      -8.700   1.423  -1.065  0.00  0.00    -0.301 OA
ATOM      8  P   UNL     1      -9.102  -0.031  -1.677  0.00  0.00    +0.431 P 
ATOM      9  O   UNL     1      -9.211   0.045  -3.151  0.00  0.00    -0.246 OA
ATOM     10  N   UNL     1      -7.868  -1.039  -1.245  0.00  0.00    -0.271 NA
ATOM     11  N   UNL     1      -6.586  -0.536  -1.345  0.00  0.00    +0.398 N 
ATOM     12  C   UNL     1      -5.701  -1.608  -0.857  0.00  0.00    -0.046 C 
ATOM     13  C   UNL     1      -4.248  -1.156  -0.883  0.00  0.00    +0.005 C 
ATOM     14  C   UNL     1      -3.305  -2.229  -0.414  0.00  0.00    -0.020 C 
ATOM     15  C   UNL     1      -2.095  -1.878   0.012  0.00  0.00    -0.034 C 
ATOM     16  H   UNL     1      -8.041  -1.945  -0.945  0.00  0.00    +0.113 HD
ATOM     17  H   UNL     1      -6.366  -0.326  -2.307  0.00  0.00    -0.055 HD
ENDROOT
BRANCH   8  18
ATOM     18  S   UNL     1     -10.931  -0.700  -0.839  0.00  0.00    +0.209 S 
ATOM     19  O   UNL     1     -11.279  -1.895  -1.526  0.00  0.00    -0.126 OA
ATOM     20  O   UNL     1     -10.773  -0.651   0.573  0.00  0.00    -0.126 OA
BRANCH  18  21
ATOM     21  O   UNL     1     -11.992   0.331  -1.194  0.00  0.00    -0.339 OA
BRANCH  21  22
ATOM     22  C   UNL     1     -12.401   0.280  -2.489  0.00  0.00    +0.157 A 
ATOM     23  C   UNL     1     -11.746   1.032  -3.454  0.00  0.00    +0.048 A 
ATOM     24  C   UNL     1     -12.162   0.978  -4.770  0.00  0.00    +0.004 A 
ATOM     25  C   UNL     1     -13.232   0.177  -5.126  0.00  0.00    +0.000 A 
ATOM     26  C   UNL     1     -13.886  -0.572  -4.166  0.00  0.00    +0.004 A 
ATOM     27  C   UNL     1     -13.470  -0.527  -2.850  0.00  0.00    +0.048 A 
ENDBRANCH  21  22
ENDBRANCH  18  21
ENDBRANCH   8  18
BRANCH   1  29
ATOM     28  C   UNL     1      -0.022   1.810   0.012  0.00  0.00    +0.090 C 
ATOM     29  S   UNL     1       0.002  -0.004   0.002  0.00  0.00    -0.129 S 
ENDBRANCH   1  29
BRANCH  15  30
ATOM     30  C   UNL     1      -1.130  -2.930   0.494  0.00  0.00    +0.071 C 
BRANCH  30  31
ATOM     31  C   UNL     1      -0.217  -3.330  -0.636  0.00  0.00    -0.043 A 
ATOM     32  C   UNL     1      -0.573  -4.365  -1.480  0.00  0.00    +0.004 A 
ATOM     33  C   UNL     1       0.264  -4.732  -2.517  0.00  0.00    +0.000 A 
ATOM     34  C   UNL     1       1.459  -4.063  -2.710  0.00  0.00    +0.000 A 
ATOM     35  C   UNL     1       1.815  -3.027  -1.867  0.00  0.00    +0.000 A 
ATOM     36  C   UNL     1       0.975  -2.658  -0.833  0.00  0.00    +0.004 A 
ENDBRANCH  30  31
ENDBRANCH  15  30
TORSDOF 6
