REMARK  Name = ZINC50093973
REMARK  1 active torsions:
REMARK  status: ('A' for Active; 'I' for Inactive)
REMARK    1  A    between atoms: C_5  and  C_6
REMARK                            x       y       z     vdW  Elec       q    Type
REMARK                         _______ _______ _______ _____ _____    ______ ____
ROOT
ATOM      1  C   UNL     1      -1.177  -0.884   0.009  0.00  0.00    +0.196 A 
ATOM      2  N   UNL     1      -2.390  -0.335   0.019  0.00  0.00    -0.232 NA
ATOM      3  C   UNL     1      -3.471  -1.090   0.029  0.00  0.00    +0.126 A 
ATOM      4  C   UNL     1      -3.318  -2.484   0.027  0.00  0.00    +0.057 A 
ATOM      5  C   UNL     1      -2.027  -3.027   0.012  0.00  0.00    +0.056 A 
ATOM      6  N   UNL     1      -0.996  -2.202   0.000  0.00  0.00    -0.229 NA
ATOM      7  C   UNL     1      -1.798  -4.512  -0.003  0.00  0.00    +0.057 C 
ATOM      8  C   UNL     1      -3.010  -5.262   0.545  0.00  0.00    +0.014 C 
ATOM      9  C   UNL     1      -4.266  -4.840  -0.228  0.00  0.00    +0.080 C 
ATOM     10  C   UNL     1      -4.493  -3.366   0.044  0.00  0.00    +0.166 C 
ATOM     11  O   UNL     1      -5.603  -2.931   0.266  0.00  0.00    -0.292 OA
ENDROOT
BRANCH   1  16
ATOM     12  C   UNL     1      -0.016   1.360   0.009  0.00  0.00    +0.054 A 
ATOM     13  C   UNL     1       1.323   1.783  -0.001  0.00  0.00    +0.057 A 
ATOM     14  C   UNL     1       2.091   0.670  -0.014  0.00  0.00    +0.171 A 
ATOM     15  O   UNL     1       1.290  -0.405  -0.012  0.00  0.00    -0.445 OA
ATOM     16  C   UNL     1       0.002  -0.004   0.002  0.00  0.00    +0.173 A 
ATOM     17 BR   UNL     1       3.981   0.635  -0.033  0.00  0.00    -0.008 Br
ENDBRANCH   1  16
TORSDOF 1
