REMARK  Name = ZINC08993821
REMARK  7 active torsions:
REMARK  status: ('A' for Active; 'I' for Inactive)
REMARK    1  A    between atoms: C_1  and  C_2
REMARK    2  A    between atoms: C_11  and  N_21
REMARK    3  A    between atoms: C_13  and  C_15
REMARK    4  A    between atoms: C_15  and  N_63
REMARK    5  A    between atoms: N_21  and  C_22
REMARK    6  A    between atoms: C_22  and  C_24
REMARK    7  A    between atoms: C_22  and  C_25
REMARK                            x       y       z     vdW  Elec       q    Type
REMARK                         _______ _______ _______ _____ _____    ______ ____
ROOT
ATOM      1  C   UNL     1      -5.372   3.569  -8.028  0.00  0.00    +0.008 C 
ATOM      2  C   UNL     1      -4.274   3.205  -7.026  0.00  0.00    -0.009 C 
ATOM      3  C   UNL     1      -3.925   4.433  -6.179  0.00  0.00    +0.008 C 
ATOM      4  C   UNL     1      -2.670   4.152  -5.352  0.00  0.00    +0.037 C 
ATOM      5  C   UNL     1      -2.872   2.853  -4.576  0.00  0.00    -0.025 A 
ATOM      6  C   UNL     1      -3.822   1.970  -4.946  0.00  0.00    -0.004 A 
ATOM      7  S   UNL     1      -3.696   0.640  -3.780  0.00  0.00    -0.073 S 
ATOM      8  C   UNL     1      -2.365   1.273  -2.795  0.00  0.00    +0.114 A 
ATOM      9  C   UNL     1      -2.060   2.505  -3.409  0.00  0.00    +0.051 A 
ATOM     10  C   UNL     1      -1.003   3.242  -2.808  0.00  0.00    +0.131 A 
ATOM     11  N   UNL     1      -0.392   2.742  -1.745  0.00  0.00    -0.219 NA
ATOM     12  C   UNL     1      -0.732   1.578  -1.221  0.00  0.00    +0.116 A 
ATOM     13  N   UNL     1      -1.701   0.847  -1.738  0.00  0.00    -0.227 NA
ATOM     14  C   UNL     1      -4.776   2.092  -6.095  0.00  0.00    +0.046 C 
ENDROOT
BRANCH  10  15
ATOM     15  N   UNL     1      -0.618   4.465  -3.327  0.00  0.00    -0.322 N 
ATOM     16  H   UNL     1      -1.012   4.787  -4.153  0.00  0.00    +0.148 HD
BRANCH  15  17
ATOM     17  C   UNL     1       0.386   5.273  -2.630  0.00  0.00    +0.099 C 
ATOM     18  C   UNL     1      -0.298   6.113  -1.549  0.00  0.00    +0.033 C 
BRANCH  17  19
ATOM     19  C   UNL     1       1.070   6.185  -3.616  0.00  0.00    -0.024 A 
ATOM     20  C   UNL     1       0.334   6.804  -4.609  0.00  0.00    +0.009 A 
ATOM     21  C   UNL     1       0.957   7.641  -5.516  0.00  0.00    +0.050 A 
ATOM     22  C   UNL     1       2.322   7.862  -5.431  0.00  0.00    +0.166 A 
ATOM     23  C   UNL     1       3.063   7.239  -4.430  0.00  0.00    +0.167 A 
ATOM     24  C   UNL     1       2.431   6.405  -3.522  0.00  0.00    +0.055 A 
ATOM     25  O   UNL     1       4.370   7.613  -4.558  0.00  0.00    -0.453 OA
ATOM     26  C   UNL     1       4.353   8.788  -5.390  0.00  0.00    +0.466 C 
ATOM     27  O   UNL     1       3.164   8.627  -6.185  0.00  0.00    -0.453 OA
ENDBRANCH  17  19
ENDBRANCH  15  17
ENDBRANCH  10  15
BRANCH  12  28
ATOM     28  C   UNL     1       0.008   1.072  -0.010  0.00  0.00    -0.001 C 
BRANCH  28  34
ATOM     29  C   UNL     1      -0.565   3.006   1.331  0.00  0.00    -0.050 C 
ATOM     30  C   UNL     1      -1.327   3.461   2.578  0.00  0.00    +0.141 C 
ATOM     31  O   UNL     1      -0.804   2.784   3.724  0.00  0.00    -0.383 OA
ATOM     32  C   UNL     1      -0.886   1.358   3.638  0.00  0.00    +0.141 C 
ATOM     33  C   UNL     1      -0.119   0.882   2.401  0.00  0.00    -0.050 C 
ATOM     34  N   UNL     1      -0.691   1.539   1.207  0.00  0.00    +0.387 N 
ATOM     35  H   UNL     1      -1.686   1.294   1.135  0.00  0.00    -0.081 HD
ENDBRANCH  28  34
ENDBRANCH  12  28
TORSDOF 5
