REMARK  Name = ZINC36599513
REMARK  11 active torsions:
REMARK  status: ('A' for Active; 'I' for Inactive)
REMARK    1  A    between atoms: C_1  and  C_2
REMARK    2  A    between atoms: C_5  and  C_7
REMARK    3  A    between atoms: C_7  and  N_8
REMARK    4  A    between atoms: N_8  and  C_9
REMARK    5  A    between atoms: C_9  and  C_11
REMARK    6  A    between atoms: C_9  and  C_20
REMARK    7  A    between atoms: C_14  and  N_17
REMARK    8  A    between atoms: N_22  and  C_23
REMARK    9  A    between atoms: C_29  and  C_31
REMARK   10  A    between atoms: C_32  and  C_33
REMARK   11  A    between atoms: C_32  and  C_34
REMARK                            x       y       z     vdW  Elec       q    Type
REMARK                         _______ _______ _______ _____ _____    ______ ____
ROOT
ATOM      1  C   UNL     1       3.471  -3.997  -1.045  0.00  0.00    +0.193 C 
ENDROOT
BRANCH   1   2
ATOM      2  C   UNL     1       3.517  -3.442  -2.445  0.00  0.00    -0.018 A 
ATOM      3  C   UNL     1       3.594  -4.301  -3.526  0.00  0.00    +0.008 A 
ATOM      4  C   UNL     1       3.635  -3.792  -4.811  0.00  0.00    +0.033 A 
ATOM      5  C   UNL     1       3.599  -2.425  -5.015  0.00  0.00    +0.126 A 
ATOM      6  C   UNL     1       3.521  -1.567  -3.934  0.00  0.00    +0.033 A 
ATOM      7  C   UNL     1       3.475  -2.076  -2.649  0.00  0.00    +0.008 A 
BRANCH   5   8
ATOM      8  N   UNL     1       3.644  -1.881  -6.390  0.00  0.00    +0.056 N 
ATOM      9  O   UNL     1       3.713  -2.631  -7.336  0.00  0.00    -0.126 OA
ATOM     10  O   UNL     1       3.612  -0.685  -6.569  0.00  0.00    -0.126 OA
ENDBRANCH   5   8
ENDBRANCH   1   2
BRANCH   1  11
ATOM     11  C   UNL     1       4.237  -5.294  -0.993  0.00  0.00    +0.238 C 
ATOM     12  O   UNL     1       3.674  -6.317  -0.666  0.00  0.00    -0.273 OA
ATOM     13  N   UNL     1       5.546  -5.317  -1.310  0.00  0.00    -0.311 N 
ATOM     14  H   UNL     1       5.997  -4.498  -1.572  0.00  0.00    +0.149 HD
BRANCH  13  15
ATOM     15  C   UNL     1       6.290  -6.578  -1.260  0.00  0.00    +0.073 C 
ATOM     16  C   UNL     1       6.782  -6.823   0.168  0.00  0.00    +0.022 C 
ATOM     17  C   UNL     1       7.559  -8.140   0.220  0.00  0.00    +0.002 C 
ATOM     18  C   UNL     1       8.759  -8.063  -0.726  0.00  0.00    +0.000 C 
ATOM     19  C   UNL     1       8.267  -7.817  -2.154  0.00  0.00    +0.002 C 
ATOM     20  C   UNL     1       7.490  -6.500  -2.207  0.00  0.00    +0.022 C 
ENDBRANCH  13  15
ENDBRANCH   1  11
BRANCH   1  21
ATOM     21  N   UNL     1       2.079  -4.236  -0.658  0.00  0.00    -0.275 N 
ATOM     22  C   UNL     1       1.310  -5.067  -1.389  0.00  0.00    +0.241 C 
ATOM     23  O   UNL     1       1.798  -5.694  -2.310  0.00  0.00    -0.271 OA
BRANCH  22  24
ATOM     24  C   UNL     1      -0.119  -5.216  -1.073  0.00  0.00    +0.066 C 
ATOM     25  C   UNL     1      -0.905  -5.933  -1.871  0.00  0.00    -0.071 C 
ATOM     26  C   UNL     1      -0.375  -6.452  -3.183  0.00  0.00    +0.039 C 
ATOM     27  C   UNL     1      -2.326  -6.227  -1.463  0.00  0.00    +0.039 C 
ENDBRANCH  22  24
BRANCH  21  28
ATOM     28  C   UNL     1       1.521  -3.571   0.522  0.00  0.00    +0.183 C 
BRANCH  28  33
ATOM     29  C   UNL     1       1.050   1.347  -0.495  0.00  0.00    +0.086 C 
ATOM     30  C   UNL     1       0.713  -0.112  -0.325  0.00  0.00    +0.102 A 
ATOM     31  C   UNL     1      -0.487  -0.674  -0.555  0.00  0.00    +0.045 A 
ATOM     32  C   UNL     1      -0.355  -2.053  -0.270  0.00  0.00    +0.046 A 
ATOM     33  C   UNL     1       0.918  -2.250   0.117  0.00  0.00    +0.122 A 
ATOM     34  O   UNL     1       1.562  -1.072   0.076  0.00  0.00    -0.463 OA
ENDBRANCH  28  33
ENDBRANCH  21  28
ENDBRANCH   1  21
TORSDOF 8
