REMARK  Name = ZINC12323996
REMARK  11 active torsions:
REMARK  status: ('A' for Active; 'I' for Inactive)
REMARK    1  A    between atoms: C_1  and  C_2
REMARK    2  A    between atoms: C_2  and  C_3
REMARK    3  A    between atoms: C_2  and  C_4
REMARK    4  A    between atoms: C_4  and  C_5
REMARK    5  A    between atoms: C_7  and  C_11
REMARK    6  A    between atoms: C_17  and  C_19
REMARK    7  A    between atoms: C_19  and  C_20
REMARK    8  A    between atoms: C_23  and  O_28
REMARK    9  A    between atoms: C_24  and  O_26
REMARK   10  A    between atoms: O_26  and  C_27
REMARK   11  A    between atoms: O_28  and  C_29
REMARK                            x       y       z     vdW  Elec       q    Type
REMARK                         _______ _______ _______ _____ _____    ______ ____
ROOT
ATOM      1  C   UNL     1       3.010   6.142  -4.584  0.00  0.00    +0.203 A 
ATOM      2  N   UNL     1       3.718   5.597  -5.549  0.00  0.00    -0.125 NA
ATOM      3  N   UNL     1       4.213   4.477  -5.149  0.00  0.00    -0.120 NA
ATOM      4  C   UNL     1       3.850   4.253  -3.921  0.00  0.00    +0.218 A 
ATOM      5  N   UNL     1       3.066   5.293  -3.487  0.00  0.00    -0.184 N 
ATOM      6  N   UNL     1       2.590   5.208  -2.185  0.00  0.00    -0.160 NA
ATOM      7  C   UNL     1       2.877   4.195  -1.423  0.00  0.00    +0.107 A 
ATOM      8  S   UNL     1       3.902   3.198  -2.493  0.00  0.00    -0.031 S 
ENDROOT
BRANCH   1  11
ATOM      9  C   UNL     1       1.574   9.445  -5.303  0.00  0.00    +0.064 A 
ATOM     10  C   UNL     1       2.450   8.405  -5.611  0.00  0.00    +0.056 A 
ATOM     11  C   UNL     1       2.287   7.423  -4.655  0.00  0.00    +0.105 A 
ATOM     12  N   UNL     1       1.327   7.862  -3.790  0.00  0.00    -0.274 N 
ATOM     13  H   UNL     1       0.983   7.368  -2.991  0.00  0.00    +0.189 HD
ATOM     14  N   UNL     1       0.909   9.127  -4.221  0.00  0.00    -0.178 NA
BRANCH   9  15
ATOM     15  C   UNL     1       1.419  10.723  -6.085  0.00  0.00    +0.060 C 
BRANCH  15  17
ATOM     16  C   UNL     1      -0.896  11.095  -5.221  0.00  0.00    +0.007 C 
ATOM     17  C   UNL     1      -0.048  10.905  -6.481  0.00  0.00    -0.011 C 
ATOM     18  C   UNL     1      -0.186  12.135  -7.379  0.00  0.00    +0.007 C 
ENDBRANCH  15  17
ENDBRANCH   9  15
ENDBRANCH   1  11
BRANCH   7  19
ATOM     19  C   UNL     1       2.458   3.932   0.000  0.00  0.00    +0.100 C 
BRANCH  19  20
ATOM     20  C   UNL     1       1.160   3.166   0.008  0.00  0.00    -0.037 A 
ATOM     21  C   UNL     1       1.175   1.783   0.000  0.00  0.00    +0.008 A 
ATOM     22  C   UNL     1      -0.013   1.076   0.008  0.00  0.00    +0.049 A 
ATOM     23  C   UNL     1      -1.222   1.752   0.017  0.00  0.00    +0.161 A 
ATOM     24  C   UNL     1      -1.237   3.144   0.029  0.00  0.00    +0.162 A 
ATOM     25  C   UNL     1      -0.043   3.847   0.022  0.00  0.00    +0.053 A 
BRANCH  24  26
ATOM     26  O   UNL     1      -2.421   3.812   0.043  0.00  0.00    -0.491 OA
ATOM     27  C   UNL     1      -2.361   5.240   0.050  0.00  0.00    +0.277 C 
ENDBRANCH  24  26
BRANCH  23  28
ATOM     28  O   UNL     1      -2.391   1.058   0.020  0.00  0.00    -0.491 OA
ATOM     29  C   UNL     1      -2.299  -0.368   0.012  0.00  0.00    +0.277 C 
ENDBRANCH  23  28
ENDBRANCH  19  20
ENDBRANCH   7  19
TORSDOF 7
