REMARK  Name = ZINC51145124
REMARK  10 active torsions:
REMARK  status: ('A' for Active; 'I' for Inactive)
REMARK    1  A    between atoms: C_1  and  C_2
REMARK    2  A    between atoms: C_3  and  C_10
REMARK    3  A    between atoms: C_4  and  N_8
REMARK    4  A    between atoms: N_5  and  C_7
REMARK    5  A    between atoms: N_8  and  N_9
REMARK    6  A    between atoms: C_10  and  N_11
REMARK    7  A    between atoms: C_14  and  C_17
REMARK    8  A    between atoms: C_17  and  N_18
REMARK    9  A    between atoms: N_18  and  C_19
REMARK   10  A    between atoms: N_18  and  C_20
REMARK                            x       y       z     vdW  Elec       q    Type
REMARK                         _______ _______ _______ _____ _____    ______ ____
ROOT
ATOM      1  C   UNL     1      -0.116  -0.092  -2.538  0.00  0.00    -0.038 C 
ENDROOT
BRANCH   1   4
ATOM      2  C   UNL     1       0.010   1.779   0.016  0.00  0.00    +0.068 C 
ATOM      3  C   UNL     1      -0.067   0.274   0.026  0.00  0.00    +0.063 A 
ATOM      4  C   UNL     1      -0.123  -0.550  -1.102  0.00  0.00    -0.001 A 
ATOM      5  C   UNL     1      -0.184  -1.841  -0.672  0.00  0.00    +0.132 A 
ATOM      6  N   UNL     1      -0.167  -1.822   0.680  0.00  0.00    -0.252 N 
ATOM      7  N   UNL     1      -0.088  -0.485   1.091  0.00  0.00    -0.175 NA
ATOM      8  C   UNL     1      -0.218  -2.993   1.559  0.00  0.00    +0.174 C 
BRANCH   5   9
ATOM      9  N   UNL     1      -0.252  -2.974  -1.478  0.00  0.00    -0.268 N 
ATOM     10  H   UNL     1      -0.043  -2.910  -2.423  0.00  0.00    +0.167 HD
BRANCH   9  11
ATOM     11  N   UNL     1      -0.614  -4.175  -0.939  0.00  0.00    -0.255 NA
ATOM     12  H   UNL     1      -1.510  -4.110  -0.479  0.00  0.00    +0.140 HD
ATOM     13  H   UNL     1      -0.619  -4.900  -1.640  0.00  0.00    +0.140 HD
ENDBRANCH   9  11
ENDBRANCH   5   9
ENDBRANCH   1   4
BRANCH   1  14
ATOM     14  N   UNL     1       1.269  -0.014  -3.021  0.00  0.00    +0.383 N 
ATOM     15  C   UNL     1       1.990   1.021  -2.270  0.00  0.00    -0.078 C 
ATOM     16  C   UNL     1       3.455   1.050  -2.713  0.00  0.00    -0.017 C 
ATOM     17  C   UNL     1       3.524   1.362  -4.211  0.00  0.00    -0.031 C 
ATOM     18  C   UNL     1       2.707   0.318  -4.977  0.00  0.00    -0.017 C 
ATOM     19  C   UNL     1       1.270   0.316  -4.451  0.00  0.00    -0.078 C 
ATOM     20  H   UNL     1       1.723  -0.905  -2.882  0.00  0.00    -0.081 HD
BRANCH  17  21
ATOM     21  C   UNL     1       4.980   1.314  -4.677  0.00  0.00    -0.076 C 
BRANCH  21  22
ATOM     22  N   UNL     1       5.059   1.738  -6.081  0.00  0.00    +0.376 N 
ATOM     23  C   UNL     1       4.686   3.155  -6.187  0.00  0.00    -0.097 C 
ATOM     24  C   UNL     1       6.431   1.554  -6.572  0.00  0.00    -0.097 C 
ATOM     25  H   UNL     1       4.426   1.181  -6.636  0.00  0.00    -0.083 HD
ENDBRANCH  21  22
ENDBRANCH  17  21
ENDBRANCH   1  14
TORSDOF 6
