REMARK  Name = ZINC09229554
REMARK  7 active torsions:
REMARK  status: ('A' for Active; 'I' for Inactive)
REMARK    1  A    between atoms: C_3  and  N_24
REMARK    2  A    between atoms: C_6  and  C_7
REMARK    3  A    between atoms: C_8  and  C_9
REMARK    4  A    between atoms: N_11  and  C_12
REMARK    5  A    between atoms: C_12  and  N_14
REMARK    6  A    between atoms: N_14  and  C_15
REMARK    7  A    between atoms: C_18  and  C_21
REMARK                            x       y       z     vdW  Elec       q    Type
REMARK                         _______ _______ _______ _____ _____    ______ ____
ROOT
ATOM      1  C   UNL     1       0.115   0.034   0.531  0.00  0.00    +0.242 C 
ATOM      2  O   UNL     1      -0.913  -0.572   0.767  0.00  0.00    -0.270 OA
ATOM      3  N   UNL     1       1.248  -0.643   0.256  0.00  0.00    -0.264 N 
ATOM      4  H   UNL     1       2.068  -0.160   0.068  0.00  0.00    +0.157 HD
ENDROOT
BRANCH   1   6
ATOM      5  C   UNL     1      -1.012   2.175   0.818  0.00  0.00    +0.013 C 
ATOM      6  C   UNL     1       0.123   1.497   0.547  0.00  0.00    +0.068 C 
BRANCH   5  12
ATOM      7  C   UNL     1       0.179   4.346   0.575  0.00  0.00    +0.010 A 
ATOM      8  C   UNL     1       0.177   5.724   0.588  0.00  0.00    +0.033 A 
ATOM      9  C   UNL     1      -0.989   6.416   0.865  0.00  0.00    +0.126 A 
ATOM     10  C   UNL     1      -2.162   5.731   1.128  0.00  0.00    +0.033 A 
ATOM     11  C   UNL     1      -2.178   4.352   1.114  0.00  0.00    +0.010 A 
ATOM     12  C   UNL     1      -1.004   3.646   0.834  0.00  0.00    -0.025 A 
BRANCH   9  13
ATOM     13  N   UNL     1      -0.981   7.896   0.882  0.00  0.00    +0.056 N 
ATOM     14  O   UNL     1      -2.005   8.508   1.126  0.00  0.00    -0.126 OA
ATOM     15  O   UNL     1       0.050   8.502   0.651  0.00  0.00    -0.126 OA
ENDBRANCH   9  13
ENDBRANCH   5  12
ENDBRANCH   1   6
BRANCH   3  16
ATOM     16  C   UNL     1       1.240  -1.991   0.241  0.00  0.00    +0.141 C 
ATOM     17  S   UNL     1      -0.207  -2.843   0.573  0.00  0.00    -0.018 S 
BRANCH  16  18
ATOM     18  N   UNL     1       2.373  -2.667  -0.035  0.00  0.00    -0.297 N 
ATOM     19  H   UNL     1       3.172  -2.187  -0.301  0.00  0.00    +0.154 HD
BRANCH  18  20
ATOM     20  C   UNL     1       2.395  -4.058   0.063  0.00  0.00    +0.033 A 
ATOM     21  C   UNL     1       1.772  -4.688   1.135  0.00  0.00    +0.024 A 
ATOM     22  C   UNL     1       1.787  -6.061   1.231  0.00  0.00    +0.015 A 
ATOM     23  C   UNL     1       2.439  -6.821   0.257  0.00  0.00    +0.037 A 
ATOM     24  C   UNL     1       3.069  -6.184  -0.816  0.00  0.00    +0.015 A 
ATOM     25  C   UNL     1       3.045  -4.811  -0.910  0.00  0.00    +0.024 A 
BRANCH  23  26
ATOM     26  C   UNL     1       2.462  -8.293   0.359  0.00  0.00    +0.242 C 
ATOM     27  O   UNL     1       3.029  -8.953  -0.489  0.00  0.00    -0.270 OA
ATOM     28  N   UNL     1       1.854  -8.906   1.395  0.00  0.00    -0.325 N 
ATOM     29  H   UNL     1       1.401  -8.380   2.072  0.00  0.00    +0.145 HD
ATOM     30  H   UNL     1       1.869  -9.874   1.462  0.00  0.00    +0.145 HD
ENDBRANCH  23  26
ENDBRANCH  18  20
ENDBRANCH  16  18
ENDBRANCH   3  16
TORSDOF 7
