REMARK  Name = ZINC35375212
REMARK  8 active torsions:
REMARK  status: ('A' for Active; 'I' for Inactive)
REMARK    1  A    between atoms: C_1  and  C_2
REMARK    2  A    between atoms: C_2  and  C_3
REMARK    3  A    between atoms: C_3  and  C_5
REMARK    4  A    between atoms: C_3  and  N_6
REMARK    5  A    between atoms: C_11  and  C_29
REMARK    6  A    between atoms: C_29  and  C_30
REMARK    7  A    between atoms: C_33  and  O_37
REMARK    8  A    between atoms: C_34  and  O_36
REMARK                            x       y       z     vdW  Elec       q    Type
REMARK                         _______ _______ _______ _____ _____    ______ ____
ROOT
ATOM      1  N   UNL     1      -0.055  -0.114  -2.441  0.00  0.00    -0.239 N 
ATOM      2  C   UNL     1      -1.342  -0.513  -2.665  0.00  0.00    +0.227 C 
ATOM      3  O   UNL     1      -2.116  -0.976  -1.856  0.00  0.00    -0.275 OA
ATOM      4  C   UNL     1      -1.600  -0.257  -4.125  0.00  0.00    +0.107 C 
ATOM      5  C   UNL     1      -2.936   0.363  -4.552  0.00  0.00    +0.072 C 
ATOM      6  N   UNL     1      -2.543   1.219  -5.721  0.00  0.00    -0.295 NA
ATOM      7  C   UNL     1      -1.113   1.612  -5.523  0.00  0.00    +0.136 C 
ATOM      8  C   UNL     1      -0.728   1.060  -4.215  0.00  0.00    +0.122 C 
ATOM      9  C   UNL     1       0.434   0.690  -3.440  0.00  0.00    +0.228 C 
ATOM     10  O   UNL     1       1.586   1.015  -3.632  0.00  0.00    -0.275 OA
ATOM     11  C   UNL     1      -0.285   1.078  -6.663  0.00  0.00    +0.005 A 
ATOM     12  C   UNL     1       0.005  -0.195  -7.101  0.00  0.00    +0.027 A 
ATOM     13  C   UNL     1       0.820  -0.378  -8.206  0.00  0.00    +0.041 A 
ATOM     14  C   UNL     1       1.341   0.721  -8.866  0.00  0.00    +0.022 A 
ATOM     15  C   UNL     1       1.051   1.997  -8.430  0.00  0.00    +0.025 A 
ATOM     16  C   UNL     1       0.231   2.189  -7.320  0.00  0.00    +0.039 A 
ATOM     17  N   UNL     1      -0.202   3.362  -6.697  0.00  0.00    -0.283 N 
ATOM     18  C   UNL     1      -0.993   3.113  -5.638  0.00  0.00    +0.243 C 
ATOM     19  O   UNL     1      -1.510   3.937  -4.914  0.00  0.00    -0.273 OA
ATOM     20 CL   UNL     1       1.188  -1.982  -8.760  0.00  0.00    -0.084 Cl
ATOM     21  H   UNL     1      -2.665   0.722  -6.590  0.00  0.00    +0.124 HD
ATOM     22  H   UNL     1       0.040   4.253  -6.994  0.00  0.00    +0.155 HD
ENDROOT
BRANCH   1  23
ATOM     23  C   UNL     1       0.718  -0.497  -1.257  0.00  0.00    +0.081 C 
ATOM     24  C   UNL     1       0.849  -2.021  -1.205  0.00  0.00    +0.028 C 
BRANCH  23  26
ATOM     25  C   UNL     1      -0.019   1.526   0.010  0.00  0.00    +0.006 C 
ATOM     26  C   UNL     1       0.002  -0.004   0.002  0.00  0.00    +0.019 C 
ENDBRANCH  23  26
ENDBRANCH   1  23
BRANCH   5  27
ATOM     27  C   UNL     1      -3.926  -0.722  -4.979  0.00  0.00    +0.054 C 
BRANCH  27  28
ATOM     28  C   UNL     1      -5.264  -0.093  -5.274  0.00  0.00    -0.042 A 
ATOM     29  C   UNL     1      -6.198   0.046  -4.265  0.00  0.00    +0.007 A 
ATOM     30  C   UNL     1      -7.426   0.623  -4.531  0.00  0.00    +0.049 A 
ATOM     31  C   UNL     1      -7.723   1.061  -5.812  0.00  0.00    +0.158 A 
ATOM     32  C   UNL     1      -6.782   0.921  -6.827  0.00  0.00    +0.158 A 
ATOM     33  C   UNL     1      -5.551   0.347  -6.553  0.00  0.00    +0.052 A 
BRANCH  32  34
ATOM     34  O   UNL     1      -7.069   1.350  -8.086  0.00  0.00    -0.503 OA
ATOM     35  H   UNL     1      -6.821   2.270  -8.254  0.00  0.00    +0.292 HD
ENDBRANCH  32  34
BRANCH  31  36
ATOM     36  O   UNL     1      -8.931   1.628  -6.075  0.00  0.00    -0.503 OA
ATOM     37  H   UNL     1      -8.950   2.587  -5.955  0.00  0.00    +0.292 HD
ENDBRANCH  31  36
ENDBRANCH  27  28
ENDBRANCH   5  27
TORSDOF 6
