REMARK  Name = ZINC09848399
REMARK  11 active torsions:
REMARK  status: ('A' for Active; 'I' for Inactive)
REMARK    1  A    between atoms: C_1  and  C_2
REMARK    2  A    between atoms: C_2  and  C_3
REMARK    3  A    between atoms: C_3  and  C_5
REMARK    4  A    between atoms: C_3  and  N_75
REMARK    5  A    between atoms: C_6  and  C_7
REMARK    6  A    between atoms: C_6  and  N_75
REMARK    7  A    between atoms: C_7  and  N_8
REMARK    8  A    between atoms: C_9  and  C_11
REMARK    9  A    between atoms: C_21  and  C_28
REMARK   10  A    between atoms: C_23  and  C_27
REMARK   11  A    between atoms: C_29  and  N_75
REMARK                            x       y       z     vdW  Elec       q    Type
REMARK                         _______ _______ _______ _____ _____    ______ ____
ROOT
ATOM      1  N   UNL     1       1.070   4.105  10.061  0.00  0.00    -0.317 N 
ATOM      2  C   UNL     1       0.186   3.213  10.549  0.00  0.00    +0.218 C 
ATOM      3  O   UNL     1       0.345   2.745  11.656  0.00  0.00    -0.275 OA
ATOM      4  H   UNL     1       0.943   4.479   9.175  0.00  0.00    +0.149 HD
ENDROOT
BRANCH   2   5
ATOM      5  C   UNL     1      -1.001   2.797   9.719  0.00  0.00    +0.092 C 
ATOM      6  C   UNL     1      -1.838   1.779  10.498  0.00  0.00    +0.016 C 
ATOM      7  C   UNL     1      -3.008   1.317   9.625  0.00  0.00    +0.020 C 
ATOM      8  C   UNL     1      -2.464   0.722   8.325  0.00  0.00    +0.107 C 
ATOM      9  N   UNL     1      -1.671   1.735   7.616  0.00  0.00    -0.309 N 
ATOM     10  C   UNL     1      -0.515   2.159   8.416  0.00  0.00    +0.119 C 
ATOM     11  C   UNL     1      -1.273   1.274   6.377  0.00  0.00    +0.162 A 
ATOM     12  N   UNL     1      -2.012   0.813   5.394  0.00  0.00    -0.224 NA
ATOM     13  C   UNL     1      -1.482   0.392   4.224  0.00  0.00    +0.083 A 
ATOM     14  C   UNL     1      -2.158  -0.122   3.094  0.00  0.00    -0.024 A 
ATOM     15  C   UNL     1      -1.464  -0.502   1.975  0.00  0.00    +0.009 A 
ATOM     16  C   UNL     1      -0.081  -0.408   1.913  0.00  0.00    -0.049 A 
ATOM     17  C   UNL     1       0.613   0.090   3.001  0.00  0.00    +0.020 A 
ATOM     18  C   UNL     1      -0.075   0.478   4.123  0.00  0.00    +0.041 A 
ATOM     19  S   UNL     1       0.378   1.152   5.704  0.00  0.00    -0.052 S 
ATOM     20  C   UNL     1       0.657  -0.839   0.672  0.00  0.00    +0.044 C 
ATOM     21  C   UNL     1      -3.660  -0.248   3.118  0.00  0.00    +0.046 C 
ENDBRANCH   2   5
BRANCH   1  22
ATOM     22  C   UNL     1       2.224   4.509  10.868  0.00  0.00    +0.085 C 
BRANCH  22  23
ATOM     23  C   UNL     1       3.063   5.523  10.086  0.00  0.00    -0.059 C 
BRANCH  23  24
ATOM     24  N   UNL     1       4.140   6.026  10.965  0.00  0.00    +0.384 N 
ATOM     25  H   UNL     1       3.737   6.279  11.875  0.00  0.00    -0.081 HD
BRANCH  24  26
ATOM     26  C   UNL     1       4.761   7.226  10.365  0.00  0.00    -0.068 C 
ATOM     27  C   UNL     1       5.745   7.828  11.371  0.00  0.00    -0.015 C 
ATOM     28  C   UNL     1       6.380   9.085  10.773  0.00  0.00    -0.002 C 
ATOM     29  C   UNL     1       5.287  10.107  10.453  0.00  0.00    -0.000 C 
ATOM     30  C   UNL     1       4.304   9.504   9.448  0.00  0.00    -0.002 C 
ATOM     31  C   UNL     1       3.668   8.248  10.046  0.00  0.00    -0.015 C 
ENDBRANCH  24  26
BRANCH  24  32
ATOM     32  C   UNL     1       5.160   4.976  11.167  0.00  0.00    -0.072 C 
ATOM     33  C   UNL     1       6.274   5.109  10.127  0.00  0.00    -0.013 C 
BRANCH  32  35
ATOM     34  C   UNL     1       4.666   4.852  13.613  0.00  0.00    +0.002 C 
ATOM     35  C   UNL     1       5.750   5.134  12.570  0.00  0.00    -0.019 C 
ENDBRANCH  32  35
ENDBRANCH  24  32
ENDBRANCH  23  24
ENDBRANCH  22  23
ENDBRANCH   1  22
TORSDOF 7
