REMARK  Name = ZINC21710075
REMARK  13 active torsions:
REMARK  status: ('A' for Active; 'I' for Inactive)
REMARK    1  A    between atoms: C_1  and  C_2
REMARK    2  A    between atoms: C_4  and  C_36
REMARK    3  A    between atoms: C_5  and  S_9
REMARK    4  A    between atoms: C_6  and  C_8
REMARK    5  A    between atoms: S_9  and  N_12
REMARK    6  A    between atoms: N_12  and  C_13
REMARK    7  A    between atoms: C_17  and  C_19
REMARK    8  A    between atoms: C_25  and  C_28
REMARK    9  A    between atoms: N_30  and  C_31
REMARK   10  A    between atoms: C_31  and  C_32
REMARK   11  A    between atoms: C_32  and  C_33
REMARK   12  A    between atoms: C_33  and  C_34
REMARK   13  A    between atoms: C_33  and  C_35
REMARK                            x       y       z     vdW  Elec       q    Type
REMARK                         _______ _______ _______ _____ _____    ______ ____
ROOT
ATOM      1  C   UNL     1      -9.039   5.096   7.859  0.00  0.00    +0.049 A 
ATOM      2  C   UNL     1      -8.129   5.526   8.819  0.00  0.00    +0.024 A 
ATOM      3  C   UNL     1      -6.790   5.204   8.703  0.00  0.00    +0.003 A 
ATOM      4  C   UNL     1      -6.347   4.453   7.633  0.00  0.00    +0.013 A 
ATOM      5  C   UNL     1      -7.251   4.017   6.663  0.00  0.00    +0.039 A 
ATOM      6  C   UNL     1      -8.602   4.346   6.777  0.00  0.00    +0.037 A 
ENDROOT
BRANCH   5   7
ATOM      7  C   UNL     1      -6.778   3.213   5.516  0.00  0.00    +0.247 C 
ATOM      8  O   UNL     1      -5.726   3.488   4.974  0.00  0.00    -0.270 OA
ATOM      9  N   UNL     1      -7.514   2.175   5.071  0.00  0.00    -0.297 N 
ATOM     10  C   UNL     1      -8.739   1.770   5.774  0.00  0.00    +0.108 C 
ATOM     11  C   UNL     1      -8.648   0.277   6.103  0.00  0.00    +0.020 C 
ATOM     12  C   UNL     1      -8.372  -0.509   4.819  0.00  0.00    +0.016 C 
ATOM     13  C   UNL     1      -7.034  -0.062   4.224  0.00  0.00    +0.092 C 
ATOM     14  C   UNL     1      -7.107   1.427   3.874  0.00  0.00    +0.120 C 
BRANCH  13  15
ATOM     15  C   UNL     1      -6.748  -0.859   2.977  0.00  0.00    +0.218 C 
ATOM     16  O   UNL     1      -7.535  -1.702   2.602  0.00  0.00    -0.275 OA
ATOM     17  N   UNL     1      -5.617  -0.634   2.279  0.00  0.00    -0.315 N 
ATOM     18  H   UNL     1      -4.903   0.130   2.620  0.00  0.00    +0.149 HD
BRANCH  17  19
ATOM     19  C   UNL     1      -5.338  -1.409   1.067  0.00  0.00    +0.104 C 
BRANCH  19  20
ATOM     20  C   UNL     1      -4.002  -0.961   0.472  0.00  0.00    +0.022 C 
BRANCH  20  21
ATOM     21  C   UNL     1      -3.711  -1.769  -0.794  0.00  0.00    -0.016 C 
ATOM     22  C   UNL     1      -2.320  -1.411  -1.320  0.00  0.00    +0.007 C 
ATOM     23  C   UNL     1      -4.759  -1.442  -1.860  0.00  0.00    +0.007 C 
ENDBRANCH  20  21
ENDBRANCH  19  20
ENDBRANCH  17  19
ENDBRANCH  13  15
ENDBRANCH   5   7
BRANCH   1  24
ATOM     24  N   UNL     1     -10.391   5.425   7.981  0.00  0.00    -0.216 N 
ATOM     25  H   UNL     1     -11.160   4.652   7.834  0.00  0.00    +0.174 HD
BRANCH  24  26
ATOM     26  S   UNL     1     -10.836   6.978   8.345  0.00  0.00    +0.073 S 
ATOM     27  O   UNL     1     -12.250   7.035   8.219  0.00  0.00    -0.150 OA
ATOM     28  O   UNL     1     -10.165   7.320   9.550  0.00  0.00    -0.150 OA
BRANCH  26  33
ATOM     29  C   UNL     1      -8.574  10.541   4.034  0.00  0.00    +0.044 C 
ATOM     30  C   UNL     1      -9.139   9.652   5.111  0.00  0.00    -0.050 A 
ATOM     31  C   UNL     1     -10.341   9.000   4.909  0.00  0.00    +0.008 A 
ATOM     32  C   UNL     1     -10.860   8.183   5.896  0.00  0.00    -0.023 A 
ATOM     33  C   UNL     1     -10.176   8.018   7.086  0.00  0.00    +0.114 A 
ATOM     34  C   UNL     1      -8.976   8.674   7.291  0.00  0.00    -0.023 A 
ATOM     35  C   UNL     1      -8.455   9.487   6.301  0.00  0.00    +0.008 A 
ATOM     36  C   UNL     1      -8.234   8.499   8.590  0.00  0.00    +0.046 C 
ATOM     37  C   UNL     1     -12.170   7.473   5.676  0.00  0.00    +0.046 C 
ENDBRANCH  26  33
ENDBRANCH  24  26
ENDBRANCH   1  24
TORSDOF 8
