REMARK  Name = ZINC36704485
REMARK  10 active torsions:
REMARK  status: ('A' for Active; 'I' for Inactive)
REMARK    1  A    between atoms: C_1  and  C_2
REMARK    2  A    between atoms: C_4  and  C_34
REMARK    3  A    between atoms: N_11  and  C_12
REMARK    4  A    between atoms: C_12  and  C_13
REMARK    5  A    between atoms: C_13  and  N_14
REMARK    6  A    between atoms: N_14  and  C_15
REMARK    7  A    between atoms: N_14  and  C_16
REMARK    8  A    between atoms: C_17  and  C_19
REMARK    9  A    between atoms: N_24  and  S_25
REMARK   10  A    between atoms: S_25  and  C_28
REMARK                            x       y       z     vdW  Elec       q    Type
REMARK                         _______ _______ _______ _____ _____    ______ ____
ROOT
ATOM      1  C   UNL     1      -0.019   1.451  -0.619  0.00  0.00    +0.044 C 
ATOM      2  C   UNL     1       0.052  -0.049  -0.491  0.00  0.00    -0.049 A 
ATOM      3  C   UNL     1       0.840  -0.790  -1.360  0.00  0.00    +0.009 A 
ATOM      4  C   UNL     1       0.923  -2.154  -1.265  0.00  0.00    -0.024 A 
ATOM      5  C   UNL     1       0.202  -2.854  -0.270  0.00  0.00    +0.083 A 
ATOM      6  C   UNL     1      -0.590  -2.067   0.597  0.00  0.00    +0.041 A 
ATOM      7  C   UNL     1      -0.662  -0.700   0.497  0.00  0.00    +0.020 A 
ATOM      8  S   UNL     1      -1.310  -3.290   1.666  0.00  0.00    -0.052 S 
ATOM      9  C   UNL     1      -0.541  -4.721   0.920  0.00  0.00    +0.168 A 
ATOM     10  N   UNL     1       0.173  -4.185  -0.042  0.00  0.00    -0.224 NA
ATOM     11  N   UNL     1      -0.667  -6.056   1.269  0.00  0.00    -0.251 N 
ATOM     12  C   UNL     1       0.003  -6.999   0.577  0.00  0.00    +0.240 C 
ATOM     13  O   UNL     1       0.770  -6.674  -0.304  0.00  0.00    -0.273 OA
ATOM     14  C   UNL     1       1.792  -2.917  -2.232  0.00  0.00    +0.046 C 
ENDROOT
BRANCH  12  15
ATOM     15  C   UNL     1      -0.202  -8.457   0.900  0.00  0.00    +0.166 C 
ATOM     16  C   UNL     1       0.921  -8.950   1.837  0.00  0.00    +0.031 C 
ATOM     17  C   UNL     1       1.210 -10.380   1.311  0.00  0.00    +0.019 C 
ATOM     18  C   UNL     1       1.003 -10.199  -0.213  0.00  0.00    +0.110 C 
ATOM     19  N   UNL     1      -0.128  -9.256  -0.332  0.00  0.00    -0.164 NA
BRANCH  19  20
ATOM     20  S   UNL     1      -1.144  -9.120  -1.633  0.00  0.00    +0.068 S 
ATOM     21  O   UNL     1      -1.105 -10.368  -2.311  0.00  0.00    -0.152 OA
ATOM     22  O   UNL     1      -2.353  -8.555  -1.146  0.00  0.00    -0.152 OA
BRANCH  20  23
ATOM     23  C   UNL     1      -0.436  -7.931  -2.724  0.00  0.00    +0.144 A 
ATOM     24  C   UNL     1       0.430  -8.123  -3.749  0.00  0.00    +0.038 A 
ATOM     25  C   UNL     1       0.857  -7.030  -4.479  0.00  0.00    +0.030 A 
ATOM     26  C   UNL     1       0.397  -5.798  -4.148  0.00  0.00    +0.080 A 
ATOM     27  S   UNL     1      -0.681  -6.164  -2.772  0.00  0.00    -0.057 S 
ATOM     28 CL   UNL     1       0.755  -4.264  -4.878  0.00  0.00    -0.076 Cl
ENDBRANCH  20  23
ENDBRANCH  19  20
ENDBRANCH  12  15
BRANCH  11  29
ATOM     29  C   UNL     1      -1.527  -6.442   2.390  0.00  0.00    +0.097 C 
BRANCH  29  30
ATOM     30  C   UNL     1      -2.951  -6.679   1.882  0.00  0.00    -0.060 C 
BRANCH  30  31
ATOM     31  N   UNL     1      -3.814  -7.066   3.006  0.00  0.00    +0.377 N 
ATOM     32  C   UNL     1      -5.203  -7.177   2.541  0.00  0.00    -0.097 C 
ATOM     33  C   UNL     1      -3.371  -8.361   3.540  0.00  0.00    -0.097 C 
ATOM     34  H   UNL     1      -3.757  -6.366   3.730  0.00  0.00    -0.083 HD
ENDBRANCH  30  31
ENDBRANCH  29  30
ENDBRANCH  11  29
TORSDOF 6
