REMARK  Name = ZINC09911105
REMARK  15 active torsions:
REMARK  status: ('A' for Active; 'I' for Inactive)
REMARK    1  A    between atoms: C_1  and  C_2
REMARK    2  A    between atoms: C_2  and  O_3
REMARK    3  A    between atoms: O_3  and  C_4
REMARK    4  A    between atoms: C_4  and  C_6
REMARK    5  A    between atoms: C_7  and  C_33
REMARK    6  A    between atoms: C_8  and  C_25
REMARK    7  A    between atoms: C_9  and  N_11
REMARK    8  A    between atoms: C_12  and  C_14
REMARK    9  A    between atoms: C_14  and  C_15
REMARK   10  A    between atoms: C_15  and  C_16
REMARK   11  A    between atoms: C_16  and  S_17
REMARK   12  A    between atoms: S_17  and  C_18
REMARK   13  A    between atoms: C_28  and  O_30
REMARK   14  A    between atoms: O_30  and  C_31
REMARK   15  A    between atoms: C_31  and  C_32
REMARK                            x       y       z     vdW  Elec       q    Type
REMARK                         _______ _______ _______ _____ _____    ______ ____
ROOT
ATOM      1  C   UNL     1       5.732  12.331   0.010  0.00  0.00    +0.102 A 
ATOM      2  C   UNL     1       7.005  11.824  -0.004  0.00  0.00    -0.015 A 
ATOM      3  C   UNL     1       7.149  10.446  -0.012  0.00  0.00    +0.069 A 
ATOM      4  C   UNL     1       5.985   9.669  -0.005  0.00  0.00    +0.085 A 
ATOM      5  S   UNL     1       4.725  10.860   0.005  0.00  0.00    -0.066 S 
ATOM      6  C   UNL     1       8.206  12.734  -0.010  0.00  0.00    +0.046 C 
ENDROOT
BRANCH   3   7
ATOM      7  C   UNL     1       8.478   9.822  -0.026  0.00  0.00    +0.255 C 
ATOM      8  O   UNL     1       9.019   9.568  -1.085  0.00  0.00    -0.270 OA
ATOM      9  N   UNL     1       9.098   9.530   1.135  0.00  0.00    -0.217 N 
ATOM     10  C   UNL     1      10.318   8.957   1.121  0.00  0.00    +0.407 C 
ATOM     11  O   UNL     1      10.858   8.704   0.064  0.00  0.00    -0.226 OA
ATOM     12  H   UNL     1       8.666   9.732   1.979  0.00  0.00    +0.161 HD
BRANCH  10  13
ATOM     13  O   UNL     1      10.937   8.666   2.280  0.00  0.00    -0.450 OA
BRANCH  13  14
ATOM     14  C   UNL     1      12.248   8.050   2.190  0.00  0.00    +0.230 C 
ATOM     15  C   UNL     1      12.790   7.795   3.599  0.00  0.00    +0.048 C 
ENDBRANCH  13  14
ENDBRANCH  10  13
ENDBRANCH   3   7
BRANCH   4  16
ATOM     16  N   UNL     1       5.869   8.293  -0.011  0.00  0.00    -0.279 N 
ATOM     17  C   UNL     1       4.649   7.720  -0.002  0.00  0.00    +0.218 C 
ATOM     18  O   UNL     1       3.654   8.412   0.011  0.00  0.00    -0.275 OA
ATOM     19  H   UNL     1       6.665   7.739  -0.021  0.00  0.00    +0.155 HD
BRANCH  17  20
ATOM     20  C   UNL     1       4.522   6.218  -0.008  0.00  0.00    +0.097 C 
BRANCH  20  21
ATOM     21  C   UNL     1       3.042   5.831   0.004  0.00  0.00    +0.020 C 
BRANCH  21  22
ATOM     22  C   UNL     1       2.913   4.307  -0.003  0.00  0.00    +0.075 C 
BRANCH  22  23
ATOM     23  S   UNL     1       1.158   3.848   0.011  0.00  0.00    -0.125 S 
BRANCH  23  24
ATOM     24  C   UNL     1       1.178   2.086   0.002  0.00  0.00    +0.008 A 
ATOM     25  C   UNL     1      -0.017   1.377   0.010  0.00  0.00    +0.016 A 
ATOM     26  C   UNL     1       0.002  -0.004   0.002  0.00  0.00    +0.021 A 
ATOM     27  C   UNL     1       1.209  -0.681  -0.013  0.00  0.00    +0.041 A 
ATOM     28  C   UNL     1       2.401   0.023  -0.020  0.00  0.00    +0.021 A 
ATOM     29  C   UNL     1       2.388   1.404  -0.013  0.00  0.00    +0.016 A 
ATOM     30 CL   UNL     1       1.228  -2.417  -0.021  0.00  0.00    -0.084 Cl
ENDBRANCH  23  24
ENDBRANCH  22  23
ENDBRANCH  21  22
ENDBRANCH  20  21
ENDBRANCH  17  20
ENDBRANCH   4  16
BRANCH   1  31
ATOM     31  C   UNL     1       5.306  13.729   0.020  0.00  0.00    +0.346 C 
ATOM     32  O   UNL     1       6.136  14.618   0.016  0.00  0.00    -0.244 OA
BRANCH  31  33
ATOM     33  O   UNL     1       3.991  14.034   0.033  0.00  0.00    -0.461 OA
BRANCH  33  35
ATOM     34  C   UNL     1       2.124  15.568   0.057  0.00  0.00    +0.048 C 
ATOM     35  C   UNL     1       3.647  15.421   0.042  0.00  0.00    +0.229 C 
ENDBRANCH  33  35
ENDBRANCH  31  33
ENDBRANCH   1  31
TORSDOF 12
