REMARK  Name = ZINC36543942
REMARK  16 active torsions:
REMARK  status: ('A' for Active; 'I' for Inactive)
REMARK    1  A    between atoms: C_1  and  C_2
REMARK    2  A    between atoms: C_2  and  C_3
REMARK    3  A    between atoms: C_2  and  C_4
REMARK    4  A    between atoms: C_2  and  C_5
REMARK    5  A    between atoms: C_5  and  C_6
REMARK    6  A    between atoms: C_6  and  C_7
REMARK    7  A    between atoms: C_6  and  C_8
REMARK    8  A    between atoms: C_6  and  N_9
REMARK    9  A    between atoms: C_10  and  C_12
REMARK   10  A    between atoms: C_12  and  C_14
REMARK   11  A    between atoms: C_12  and  N_23
REMARK   12  A    between atoms: C_15  and  O_22
REMARK   13  A    between atoms: C_17  and  O_21
REMARK   14  A    between atoms: C_19  and  O_20
REMARK   15  A    between atoms: N_23  and  C_24
REMARK   16  A    between atoms: C_31  and  C_33
REMARK                            x       y       z     vdW  Elec       q    Type
REMARK                         _______ _______ _______ _____ _____    ______ ____
ROOT
ATOM      1  C   UNL     1       4.879   0.325  -2.430  0.00  0.00    +0.205 C 
ENDROOT
BRANCH   1   2
ATOM      2  C   UNL     1       5.368   0.932  -3.720  0.00  0.00    +0.065 A 
ATOM      3  C   UNL     1       6.388   1.871  -3.702  0.00  0.00    +0.129 A 
ATOM      4  C   UNL     1       6.838   2.429  -4.889  0.00  0.00    +0.091 A 
ATOM      5  C   UNL     1       6.269   2.048  -6.094  0.00  0.00    +0.124 A 
ATOM      6  C   UNL     1       5.249   1.107  -6.113  0.00  0.00    +0.091 A 
ATOM      7  C   UNL     1       4.802   0.546  -4.926  0.00  0.00    +0.129 A 
BRANCH   7   8
ATOM      8  O   UNL     1       3.807  -0.379  -4.945  0.00  0.00    -0.506 OA
ATOM      9  H   UNL     1       2.919  -0.002  -4.875  0.00  0.00    +0.292 HD
ENDBRANCH   7   8
BRANCH   5  10
ATOM     10  O   UNL     1       6.709   2.595  -7.257  0.00  0.00    -0.507 OA
ATOM     11  H   UNL     1       7.434   2.108  -7.672  0.00  0.00    +0.292 HD
ENDBRANCH   5  10
BRANCH   3  12
ATOM     12  O   UNL     1       6.946   2.245  -2.520  0.00  0.00    -0.506 OA
ATOM     13  H   UNL     1       7.754   1.764  -2.297  0.00  0.00    +0.292 HD
ENDBRANCH   3  12
ENDBRANCH   1   2
BRANCH   1  15
ATOM     14  N   UNL     1       2.568   1.194  -2.272  0.00  0.00    -0.308 N 
ATOM     15  C   UNL     1       3.836   1.224  -1.816  0.00  0.00    +0.239 C 
ATOM     16  O   UNL     1       4.138   1.974  -0.912  0.00  0.00    -0.273 OA
ATOM     17  H   UNL     1       2.327   0.594  -2.995  0.00  0.00    +0.149 HD
BRANCH  14  18
ATOM     18  C   UNL     1       1.555   2.067  -1.675  0.00  0.00    +0.030 C 
ATOM     19  C   UNL     1       2.066   3.509  -1.666  0.00  0.00    +0.031 C 
ATOM     20  C   UNL     1       1.274   1.617  -0.240  0.00  0.00    +0.031 C 
BRANCH  18  21
ATOM     21  C   UNL     1       0.266   1.988  -2.496  0.00  0.00    +0.031 C 
BRANCH  21  23
ATOM     22  C   UNL     1       1.523   1.143  -4.483  0.00  0.00    +0.010 C 
ATOM     23  C   UNL     1       0.585   2.238  -3.971  0.00  0.00    -0.036 C 
ATOM     24  C   UNL     1       1.262   3.601  -4.123  0.00  0.00    +0.010 C 
ATOM     25  C   UNL     1      -0.712   2.219  -4.784  0.00  0.00    +0.010 C 
ENDBRANCH  21  23
ENDBRANCH  18  21
ENDBRANCH  14  18
ENDBRANCH   1  15
BRANCH   1  26
ATOM     26  N   UNL     1       6.003   0.177  -1.503  0.00  0.00    -0.247 N 
ATOM     27  C   UNL     1       7.207  -0.219  -1.961  0.00  0.00    +0.287 C 
ATOM     28  O   UNL     1       8.194  -0.104  -1.258  0.00  0.00    -0.266 OA
BRANCH  26  29
ATOM     29  C   UNL     1       5.827   0.447  -0.142  0.00  0.00    +0.056 A 
ATOM     30  C   UNL     1       5.631  -0.595   0.755  0.00  0.00    +0.025 A 
ATOM     31  C   UNL     1       5.458  -0.325   2.098  0.00  0.00    +0.002 A 
ATOM     32  C   UNL     1       5.479   0.982   2.551  0.00  0.00    +0.002 A 
ATOM     33  C   UNL     1       5.674   2.022   1.662  0.00  0.00    +0.022 A 
ATOM     34  C   UNL     1       5.854   1.759   0.317  0.00  0.00    +0.062 A 
ATOM     35 CL   UNL     1       6.106   3.065  -0.798  0.00  0.00    -0.082 Cl
ENDBRANCH  26  29
BRANCH  27  36
ATOM     36  C   UNL     1       7.328  -0.789  -3.307  0.00  0.00    +0.190 A 
ATOM     37  C   UNL     1       8.484  -1.208  -3.900  0.00  0.00    +0.054 A 
ATOM     38  C   UNL     1       8.136  -1.679  -5.176  0.00  0.00    +0.042 A 
ATOM     39  C   UNL     1       6.799  -1.528  -5.304  0.00  0.00    +0.196 A 
ATOM     40  O   UNL     1       6.315  -0.997  -4.173  0.00  0.00    -0.458 OA
ENDBRANCH  27  36
ENDBRANCH   1  26
TORSDOF 11
