REMARK  Name = ZINC62772221
REMARK  7 active torsions:
REMARK  status: ('A' for Active; 'I' for Inactive)
REMARK    1  A    between atoms: C_4  and  C_7
REMARK    2  A    between atoms: C_13  and  C_15
REMARK    3  A    between atoms: N_17  and  N_18
REMARK    4  A    between atoms: C_19  and  C_20
REMARK    5  A    between atoms: C_22  and  C_27
REMARK    6  A    between atoms: C_25  and  O_26
REMARK    7  A    between atoms: C_27  and  C_28
REMARK                            x       y       z     vdW  Elec       q    Type
REMARK                         _______ _______ _______ _____ _____    ______ ____
ROOT
ATOM      1  N   UNL     1       0.712  -2.852  -3.361  0.00  0.00    -0.188 NA
ATOM      2  C   UNL     1       0.527  -4.044  -3.840  0.00  0.00    +0.142 C 
ENDROOT
BRANCH   2   3
ATOM      3  C   UNL     1       1.652  -4.777  -4.447  0.00  0.00    +0.036 A 
ATOM      4  C   UNL     1       2.962  -4.512  -4.043  0.00  0.00    +0.017 A 
ATOM      5  C   UNL     1       4.011  -5.202  -4.615  0.00  0.00    -0.042 A 
ATOM      6  C   UNL     1       3.770  -6.156  -5.588  0.00  0.00    +0.007 A 
ATOM      7  C   UNL     1       2.478  -6.427  -5.997  0.00  0.00    +0.046 A 
ATOM      8  C   UNL     1       1.413  -5.748  -5.429  0.00  0.00    +0.125 A 
BRANCH   8   9
ATOM      9  O   UNL     1       0.142  -6.017  -5.826  0.00  0.00    -0.506 OA
ATOM     10  H   UNL     1      -0.135  -5.532  -6.615  0.00  0.00    +0.292 HD
ENDBRANCH   8   9
BRANCH   5  11
ATOM     11  C   UNL     1       5.424  -4.915  -4.179  0.00  0.00    +0.071 C 
BRANCH  11  12
ATOM     12  C   UNL     1       5.788  -5.817  -3.027  0.00  0.00    -0.025 A 
ATOM     13  C   UNL     1       5.641  -5.372  -1.727  0.00  0.00    +0.005 A 
ATOM     14  C   UNL     1       5.974  -6.200  -0.671  0.00  0.00    +0.000 A 
ATOM     15  C   UNL     1       6.454  -7.473  -0.915  0.00  0.00    +0.001 A 
ATOM     16  C   UNL     1       6.601  -7.919  -2.215  0.00  0.00    +0.020 A 
ATOM     17  C   UNL     1       6.263  -7.093  -3.272  0.00  0.00    +0.044 A 
ATOM     18 CL   UNL     1       6.441  -7.656  -4.905  0.00  0.00    -0.083 Cl
ENDBRANCH  11  12
ENDBRANCH   5  11
ENDBRANCH   2   3
BRANCH   1  21
ATOM     19  C   UNL     1       2.156  -0.991  -3.014  0.00  0.00    +0.245 C 
ATOM     20  O   UNL     1       1.334  -0.510  -2.263  0.00  0.00    -0.273 OA
ATOM     21  N   UNL     1       1.913  -2.175  -3.610  0.00  0.00    -0.206 N 
ATOM     22  H   UNL     1       2.571  -2.560  -4.211  0.00  0.00    +0.177 HD
BRANCH  19  28
ATOM     23  C   UNL     1       3.288   0.703  -4.478  0.00  0.00    +0.057 C 
ATOM     24  C   UNL     1       2.931   2.028  -3.767  0.00  0.00    +0.113 C 
ATOM     25  N   UNL     1       3.504   1.916  -2.420  0.00  0.00    -0.314 N 
ATOM     26  C   UNL     1       3.798   0.639  -2.119  0.00  0.00    +0.226 C 
ATOM     27  O   UNL     1       4.275   0.266  -1.068  0.00  0.00    -0.275 OA
ATOM     28  C   UNL     1       3.449  -0.264  -3.282  0.00  0.00    +0.171 C 
ATOM     29  H   UNL     1       3.651   2.667  -1.824  0.00  0.00    +0.149 HD
BRANCH  23  33
ATOM     30  C   UNL     1       0.116  -0.554  -7.048  0.00  0.00    +0.000 A 
ATOM     31  C   UNL     1      -0.172   0.009  -5.819  0.00  0.00    +0.000 A 
ATOM     32  C   UNL     1       0.855   0.416  -4.987  0.00  0.00    +0.004 A 
ATOM     33  C   UNL     1       2.169   0.259  -5.384  0.00  0.00    -0.042 A 
ATOM     34  C   UNL     1       2.458  -0.305  -6.613  0.00  0.00    +0.004 A 
ATOM     35  C   UNL     1       1.431  -0.711  -7.445  0.00  0.00    +0.000 A 
ENDBRANCH  23  33
ENDBRANCH  19  28
ENDBRANCH   1  21
TORSDOF 7
