REMARK  Name = ZINC10341922
REMARK  4 active torsions:
REMARK  status: ('A' for Active; 'I' for Inactive)
REMARK    1  A    between atoms: C_1  and  C_2
REMARK    2  A    between atoms: N_10  and  N_14
REMARK    3  A    between atoms: C_15  and  C_17
REMARK    4  A    between atoms: C_17  and  N_50
REMARK                            x       y       z     vdW  Elec       q    Type
REMARK                         _______ _______ _______ _____ _____    ______ ____
ROOT
ATOM      1  N   UNL     1       1.351   7.409   0.978  0.00  0.00    -0.225 N 
ATOM      2  C   UNL     1       1.488   6.068   0.975  0.00  0.00    +0.213 C 
ATOM      3  O   UNL     1       0.591   5.366   1.392  0.00  0.00    -0.276 OA
ATOM      4  H   UNL     1       2.069   7.970   0.644  0.00  0.00    +0.173 HD
ENDROOT
BRANCH   1  14
ATOM      5  C   UNL     1      -5.025  10.862   4.203  0.00  0.00    +0.007 C 
ATOM      6  C   UNL     1      -3.568  10.401   4.133  0.00  0.00    -0.014 C 
ATOM      7  C   UNL     1      -3.521   8.879   3.993  0.00  0.00    +0.006 C 
ATOM      8  C   UNL     1      -2.062   8.418   3.935  0.00  0.00    +0.035 C 
ATOM      9  C   UNL     1      -1.365   9.075   2.749  0.00  0.00    +0.114 C 
ATOM     10  C   UNL     1      -1.426  10.595   2.861  0.00  0.00    +0.035 C 
ATOM     11  C   UNL     1      -2.887  11.047   2.924  0.00  0.00    +0.006 C 
ATOM     12  C   UNL     1       0.070   8.611   2.658  0.00  0.00    +0.263 C 
ATOM     13  O   UNL     1       0.945   8.762   3.484  0.00  0.00    -0.271 OA
ATOM     14  N   UNL     1       0.174   7.992   1.464  0.00  0.00    -0.137 N 
ATOM     15  C   UNL     1      -0.987   8.009   0.798  0.00  0.00    +0.326 C 
ATOM     16  O   UNL     1      -1.142   7.518  -0.303  0.00  0.00    -0.251 OA
ATOM     17  N   UNL     1      -1.966   8.628   1.486  0.00  0.00    -0.284 N 
ATOM     18  H   UNL     1      -2.884   8.756   1.202  0.00  0.00    +0.151 HD
ENDBRANCH   1  14
BRANCH   2  19
ATOM     19  C   UNL     1       2.755   5.441   0.453  0.00  0.00    +0.021 C 
BRANCH  19  28
ATOM     20  C   UNL     1       2.755   3.694   2.131  0.00  0.00    -0.073 C 
ATOM     21  C   UNL     1       2.305   2.239   2.347  0.00  0.00    +0.024 C 
ATOM     22  C   UNL     1       3.031   1.387   1.358  0.00  0.00    -0.011 A 
ATOM     23  C   UNL     1       3.721   1.817   0.265  0.00  0.00    -0.054 A 
ATOM     24  C   UNL     1       4.324   0.835  -0.517  0.00  0.00    +0.009 A 
ATOM     25  C   UNL     1       4.205  -0.469  -0.175  0.00  0.00    +0.045 A 
ATOM     26  S   UNL     1       3.212  -0.373   1.307  0.00  0.00    -0.101 S 
ATOM     27  C   UNL     1       3.795   3.311  -0.039  0.00  0.00    -0.042 C 
ATOM     28  N   UNL     1       2.687   3.984   0.678  0.00  0.00    +0.388 N 
ATOM     29  H   UNL     1       1.794   3.632   0.312  0.00  0.00    -0.081 HD
ENDBRANCH  19  28
ENDBRANCH   2  19
TORSDOF 3
