REMARK  Name = ZINC33959537
REMARK  13 active torsions:
REMARK  status: ('A' for Active; 'I' for Inactive)
REMARK    1  A    between atoms: C_1  and  C_2
REMARK    2  A    between atoms: C_2  and  O_3
REMARK    3  A    between atoms: O_3  and  C_4
REMARK    4  A    between atoms: C_9  and  C_10
REMARK    5  A    between atoms: N_11  and  N_12
REMARK    6  A    between atoms: C_13  and  C_15
REMARK    7  A    between atoms: C_15  and  C_17
REMARK    8  A    between atoms: C_15  and  N_30
REMARK    9  A    between atoms: C_17  and  C_18
REMARK   10  A    between atoms: C_18  and  C_19
REMARK   11  A    between atoms: C_19  and  C_20
REMARK   12  A    between atoms: C_20  and  N_21
REMARK   13  A    between atoms: C_22  and  C_24
REMARK                            x       y       z     vdW  Elec       q    Type
REMARK                         _______ _______ _______ _____ _____    ______ ____
ROOT
ATOM      1  C   UNL     1       3.210   2.953   5.317  0.00  0.00    +0.021 C 
ENDROOT
BRANCH   1   2
ATOM      2  N   UNL     1       3.411   4.331   4.851  0.00  0.00    +0.387 N 
ATOM      3  C   UNL     1       4.421   4.343   3.786  0.00  0.00    -0.078 C 
ATOM      4  C   UNL     1       4.576   5.764   3.240  0.00  0.00    -0.019 C 
ATOM      5  C   UNL     1       5.016   6.695   4.374  0.00  0.00    -0.004 C 
ATOM      6  C   UNL     1       3.993   6.618   5.510  0.00  0.00    -0.019 C 
ATOM      7  C   UNL     1       3.860   5.165   5.972  0.00  0.00    -0.078 C 
ATOM      8  H   UNL     1       2.541   4.694   4.490  0.00  0.00    -0.081 HD
ENDBRANCH   1   2
BRANCH   1  10
ATOM      9  N   UNL     1       2.754   0.776   4.235  0.00  0.00    -0.208 N 
ATOM     10  C   UNL     1       2.649   2.119   4.194  0.00  0.00    +0.219 C 
ATOM     11  O   UNL     1       2.103   2.657   3.253  0.00  0.00    -0.276 OA
ATOM     12  H   UNL     1       3.190   0.346   4.987  0.00  0.00    +0.177 HD
BRANCH   9  14
ATOM     13  C   UNL     1       2.333  -1.293   3.230  0.00  0.00    +0.142 C 
ATOM     14  N   UNL     1       2.232   0.001   3.191  0.00  0.00    -0.188 NA
BRANCH  13  20
ATOM     15  C   UNL     1       1.153  -1.491   1.043  0.00  0.00    +0.129 A 
ATOM     16  C   UNL     1       0.646  -2.267   0.013  0.00  0.00    +0.046 A 
ATOM     17  C   UNL     1       0.758  -3.643   0.063  0.00  0.00    +0.004 A 
ATOM     18  C   UNL     1       1.375  -4.257   1.139  0.00  0.00    +0.001 A 
ATOM     19  C   UNL     1       1.885  -3.501   2.173  0.00  0.00    +0.013 A 
ATOM     20  C   UNL     1       1.785  -2.108   2.132  0.00  0.00    +0.036 A 
BRANCH  15  21
ATOM     21  O   UNL     1       1.044  -0.138   0.995  0.00  0.00    -0.492 OA
BRANCH  21  23
ATOM     22  C   UNL     1       0.362   1.945  -0.023  0.00  0.00    +0.048 C 
ATOM     23  C   UNL     1       0.389   0.420  -0.145  0.00  0.00    +0.226 C 
ENDBRANCH  21  23
ENDBRANCH  15  21
ENDBRANCH  13  20
ENDBRANCH   9  14
ENDBRANCH   1  10
BRANCH   1  24
ATOM     24  C   UNL     1       2.230   2.951   6.493  0.00  0.00    -0.006 C 
BRANCH  24  25
ATOM     25  C   UNL     1       2.055   1.520   7.007  0.00  0.00    +0.000 C 
BRANCH  25  26
ATOM     26  C   UNL     1       1.181   1.534   8.263  0.00  0.00    +0.019 C 
BRANCH  26  27
ATOM     27  C   UNL     1       1.006   0.104   8.778  0.00  0.00    +0.104 C 
BRANCH  27  28
ATOM     28  N   UNL     1       0.170   0.117   9.981  0.00  0.00    -0.311 N 
ATOM     29  C   UNL     1      -0.122  -1.038  10.611  0.00  0.00    +0.244 C 
ATOM     30  O   UNL     1       0.309  -2.090  10.182  0.00  0.00    -0.270 OA
ATOM     31  H   UNL     1      -0.175   0.957  10.323  0.00  0.00    +0.149 HD
BRANCH  29  32
ATOM     32  C   UNL     1      -0.966  -1.025  11.825  0.00  0.00    +0.037 A 
ATOM     33  C   UNL     1      -1.467   0.181  12.317  0.00  0.00    +0.013 A 
ATOM     34  C   UNL     1      -2.255   0.186  13.450  0.00  0.00    +0.001 A 
ATOM     35  C   UNL     1      -2.547  -1.000  14.099  0.00  0.00    +0.000 A 
ATOM     36  C   UNL     1      -2.052  -2.199  13.617  0.00  0.00    +0.001 A 
ATOM     37  C   UNL     1      -1.269  -2.219  12.481  0.00  0.00    +0.013 A 
ENDBRANCH  29  32
ENDBRANCH  27  28
ENDBRANCH  26  27
ENDBRANCH  25  26
ENDBRANCH  24  25
ENDBRANCH   1  24
TORSDOF 12
