REMARK  Name = ZINC39936967
REMARK  14 active torsions:
REMARK  status: ('A' for Active; 'I' for Inactive)
REMARK    1  A    between atoms: C_1  and  C_2
REMARK    2  A    between atoms: C_2  and  C_3
REMARK    3  A    between atoms: C_3  and  C_4
REMARK    4  A    between atoms: C_7  and  C_12
REMARK    5  A    between atoms: N_9  and  C_11
REMARK    6  A    between atoms: N_14  and  C_15
REMARK    7  A    between atoms: C_15  and  C_17
REMARK    8  A    between atoms: C_15  and  C_33
REMARK    9  A    between atoms: C_19  and  O_32
REMARK   10  A    between atoms: C_21  and  O_31
REMARK   11  A    between atoms: C_23  and  O_30
REMARK   12  A    between atoms: C_25  and  S_28
REMARK   13  A    between atoms: S_28  and  C_29
REMARK   14  A    between atoms: C_33  and  C_35
REMARK                            x       y       z     vdW  Elec       q    Type
REMARK                         _______ _______ _______ _____ _____    ______ ____
ROOT
ATOM      1  C   UNL     1      -0.876  -4.613  -5.039  0.00  0.00    +0.122 C 
ENDROOT
BRANCH   1   2
ATOM      2  C   UNL     1       0.587  -4.306  -5.366  0.00  0.00    +0.172 C 
ATOM      3  C   UNL     1       0.820  -2.795  -5.299  0.00  0.00    +0.176 C 
ATOM      4  C   UNL     1      -0.047  -2.105  -6.356  0.00  0.00    +0.177 C 
ATOM      5  C   UNL     1       0.289  -2.684  -7.734  0.00  0.00    +0.184 C 
ATOM      6  C   UNL     1       0.077  -4.200  -7.707  0.00  0.00    +0.207 C 
ATOM      7  O   UNL     1       0.889  -4.776  -6.682  0.00  0.00    -0.356 OA
BRANCH   6   8
ATOM      8  S   UNL     1       0.542  -4.904  -9.313  0.00  0.00    -0.131 S 
ATOM      9  C   UNL     1      -0.245  -6.538  -9.320  0.00  0.00    +0.087 C 
ENDBRANCH   6   8
BRANCH   5  10
ATOM     10  O   UNL     1      -0.563  -2.098  -8.720  0.00  0.00    -0.386 OA
ATOM     11  H   UNL     1      -0.405  -2.420  -9.618  0.00  0.00    +0.210 HD
ENDBRANCH   5  10
BRANCH   4  12
ATOM     12  O   UNL     1       0.216  -0.700  -6.349  0.00  0.00    -0.386 OA
ATOM     13  H   UNL     1      -0.300  -0.200  -6.996  0.00  0.00    +0.210 HD
ENDBRANCH   4  12
BRANCH   3  14
ATOM     14  O   UNL     1       0.464  -2.314  -4.001  0.00  0.00    -0.387 OA
ATOM     15  H   UNL     1       0.587  -1.362  -3.887  0.00  0.00    +0.210 HD
ENDBRANCH   3  14
ENDBRANCH   1   2
BRANCH   1  18
ATOM     16  C   UNL     1      -2.506  -3.700  -3.475  0.00  0.00    +0.200 C 
ATOM     17  O   UNL     1      -3.372  -3.916  -4.296  0.00  0.00    -0.278 OA
ATOM     18  N   UNL     1      -1.224  -4.013  -3.749  0.00  0.00    -0.310 N 
ATOM     19  H   UNL     1      -0.531  -3.840  -3.092  0.00  0.00    +0.149 HD
BRANCH  16  22
ATOM     20  C   UNL     1      -3.056  -0.986  -0.952  0.00  0.00    -0.029 C 
ATOM     21  C   UNL     1      -2.150  -1.720  -1.968  0.00  0.00    -0.005 C 
ATOM     22  C   UNL     1      -2.864  -3.083  -2.147  0.00  0.00    +0.019 C 
ATOM     23  N   UNL     1      -4.304  -2.721  -2.104  0.00  0.00    +0.386 N 
ATOM     24  C   UNL     1      -4.427  -1.679  -1.060  0.00  0.00    -0.075 C 
ATOM     25  C   UNL     1      -5.111  -3.895  -1.745  0.00  0.00    -0.095 C 
ATOM     26  H   UNL     1      -4.597  -2.356  -2.998  0.00  0.00    -0.081 HD
BRANCH  20  27
ATOM     27  C   UNL     1      -3.177   0.493  -1.321  0.00  0.00    +0.001 C 
BRANCH  27  29
ATOM     28  C   UNL     1      -1.947   2.661  -1.490  0.00  0.00    +0.004 C 
ATOM     29  C   UNL     1      -1.825   1.181  -1.121  0.00  0.00    -0.003 C 
ENDBRANCH  27  29
ENDBRANCH  20  27
ENDBRANCH  16  22
ENDBRANCH   1  18
BRANCH   1  30
ATOM     30  C   UNL     1      -1.076  -6.128  -4.968  0.00  0.00    +0.100 C 
ATOM     31  C   UNL     1      -2.501  -6.433  -4.500  0.00  0.00    +0.026 C 
ATOM     32 CL   UNL     1      -0.814  -6.846  -6.601  0.00  0.00    -0.120 Cl
ENDBRANCH   1  30
TORSDOF 10
