REMARK  Name = ZINC01170939
REMARK  12 active torsions:
REMARK  status: ('A' for Active; 'I' for Inactive)
REMARK    1  A    between atoms: C_1  and  C_2
REMARK    2  A    between atoms: C_2  and  C_3
REMARK    3  A    between atoms: C_3  and  C_5
REMARK    4  A    between atoms: C_3  and  O_6
REMARK    5  A    between atoms: O_6  and  C_7
REMARK    6  A    between atoms: C_7  and  C_9
REMARK    7  A    between atoms: C_10  and  C_28
REMARK    8  A    between atoms: C_15  and  C_17
REMARK    9  A    between atoms: C_19  and  O_25
REMARK   10  A    between atoms: C_20  and  O_24
REMARK   11  A    between atoms: O_25  and  C_26
REMARK   12  A    between atoms: C_26  and  C_27
REMARK                            x       y       z     vdW  Elec       q    Type
REMARK                         _______ _______ _______ _____ _____    ______ ____
ROOT
ATOM      1  C   UNL     1       0.036   0.824  -4.592  0.00  0.00    +0.078 C 
ATOM      2  C   UNL     1       0.635   1.142  -5.760  0.00  0.00    +0.021 C 
ATOM      3  N   UNL     1      -0.102   1.413  -6.878  0.00  0.00    -0.273 N 
ATOM      4  C   UNL     1      -1.440   1.388  -6.910  0.00  0.00    +0.304 C 
ATOM      5  O   UNL     1      -2.008   1.644  -7.953  0.00  0.00    -0.252 OA
ATOM      6  N   UNL     1      -2.178   1.087  -5.823  0.00  0.00    -0.288 N 
ATOM      7  C   UNL     1      -1.478   0.772  -4.566  0.00  0.00    +0.144 C 
ATOM      8  C   UNL     1       2.139   1.199  -5.831  0.00  0.00    +0.061 C 
ATOM      9  H   UNL     1       0.372   1.637  -7.694  0.00  0.00    +0.156 HD
ATOM     10  H   UNL     1      -3.147   1.075  -5.868  0.00  0.00    +0.151 HD
ENDROOT
BRANCH   7  11
ATOM     11  C   UNL     1      -1.958   1.742  -3.517  0.00  0.00    -0.018 A 
ATOM     12  C   UNL     1      -2.448   1.270  -2.313  0.00  0.00    +0.055 A 
ATOM     13  C   UNL     1      -2.889   2.160  -1.348  0.00  0.00    +0.163 A 
ATOM     14  C   UNL     1      -2.838   3.529  -1.592  0.00  0.00    +0.173 A 
ATOM     15  C   UNL     1      -2.345   3.996  -2.800  0.00  0.00    +0.063 A 
ATOM     16  C   UNL     1      -1.901   3.102  -3.758  0.00  0.00    +0.025 A 
ATOM     17 BR   UNL     1      -2.273   5.856  -3.137  0.00  0.00    -0.046 Br
BRANCH  14  18
ATOM     18  O   UNL     1      -3.271   4.407  -0.647  0.00  0.00    -0.503 OA
ATOM     19  H   UNL     1      -2.583   4.691  -0.030  0.00  0.00    +0.292 HD
ENDBRANCH  14  18
BRANCH  13  20
ATOM     20  O   UNL     1      -3.372   1.697  -0.164  0.00  0.00    -0.489 OA
BRANCH  20  21
ATOM     21  C   UNL     1      -3.304   0.287   0.058  0.00  0.00    +0.226 C 
ATOM     22  C   UNL     1      -3.934  -0.048   1.411  0.00  0.00    +0.048 C 
ENDBRANCH  20  21
ENDBRANCH  13  20
ENDBRANCH   7  11
BRANCH   1  23
ATOM     23  C   UNL     1       0.798   0.542  -3.433  0.00  0.00    +0.339 C 
ATOM     24  O   UNL     1       0.999  -0.612  -3.103  0.00  0.00    -0.245 OA
BRANCH  23  25
ATOM     25  O   UNL     1       1.300   1.553  -2.694  0.00  0.00    -0.458 OA
BRANCH  25  26
ATOM     26  C   UNL     1       2.152   1.197  -1.603  0.00  0.00    +0.173 C 
ATOM     27  C   UNL     1       1.298   0.878  -0.373  0.00  0.00    +0.052 C 
BRANCH  26  29
ATOM     28  C   UNL     1       4.031   2.599  -2.466  0.00  0.00    +0.007 C 
ATOM     29  C   UNL     1       3.088   2.365  -1.284  0.00  0.00    +0.041 C 
ENDBRANCH  26  29
ENDBRANCH  25  26
ENDBRANCH  23  25
ENDBRANCH   1  23
TORSDOF 8
