REMARK  Name = ZINC14924058
REMARK  7 active torsions:
REMARK  status: ('A' for Active; 'I' for Inactive)
REMARK    1  A    between atoms: C_1  and  C_2
REMARK    2  A    between atoms: C_2  and  C_4
REMARK    3  A    between atoms: C_2  and  N_63
REMARK    4  A    between atoms: N_9  and  S_12
REMARK    5  A    between atoms: S_12  and  C_15
REMARK    6  A    between atoms: N_23  and  C_26
REMARK    7  A    between atoms: C_31  and  N_32
REMARK                            x       y       z     vdW  Elec       q    Type
REMARK                         _______ _______ _______ _____ _____    ______ ____
ROOT
ATOM      1  C   UNL     1       2.606  -1.688   5.507  0.00  0.00    -0.004 C 
ATOM      2  C   UNL     1       1.519  -0.875   6.213  0.00  0.00    +0.016 C 
ENDROOT
BRANCH   2   3
ATOM      3  C   UNL     1       0.239  -0.954   5.422  0.00  0.00    +0.202 C 
ATOM      4  O   UNL     1      -0.615  -1.759   5.728  0.00  0.00    -0.277 OA
ATOM      5  N   UNL     1       0.042  -0.130   4.374  0.00  0.00    -0.300 N 
ATOM      6  C   UNL     1      -1.153  -0.266   3.529  0.00  0.00    +0.125 C 
ATOM      7  C   UNL     1      -0.706  -0.438   2.072  0.00  0.00    +0.128 C 
ATOM      8  N   UNL     1       0.272   0.613   1.753  0.00  0.00    -0.174 NA
ATOM      9  C   UNL     1       1.469   0.745   2.594  0.00  0.00    +0.128 C 
ATOM     10  C   UNL     1       1.019   0.921   4.055  0.00  0.00    +0.125 C 
BRANCH   8  11
ATOM     11  S   UNL     1       0.031   1.625   0.464  0.00  0.00    +0.061 S 
ATOM     12  O   UNL     1      -0.826   0.937  -0.437  0.00  0.00    -0.153 OA
ATOM     13  O   UNL     1       1.312   2.106   0.081  0.00  0.00    -0.153 OA
BRANCH  11  14
ATOM     14  C   UNL     1      -0.873   3.016   1.057  0.00  0.00    +0.105 A 
ATOM     15  C   UNL     1      -2.256   3.003   1.035  0.00  0.00    +0.028 A 
ATOM     16  C   UNL     1      -2.965   4.092   1.504  0.00  0.00    +0.002 A 
ATOM     17  C   UNL     1      -2.292   5.200   1.986  0.00  0.00    +0.000 A 
ATOM     18  C   UNL     1      -0.910   5.215   2.002  0.00  0.00    +0.002 A 
ATOM     19  C   UNL     1      -0.201   4.123   1.538  0.00  0.00    +0.028 A 
ENDBRANCH  11  14
ENDBRANCH   8  11
ENDBRANCH   2   3
BRANCH   2  25
ATOM     20  C   UNL     1       0.306  -0.619   8.294  0.00  0.00    -0.059 C 
ATOM     21  C   UNL     1       0.045  -1.263   9.658  0.00  0.00    +0.086 C 
ATOM     22  N   UNL     1       1.307  -1.349  10.405  0.00  0.00    -0.332 N 
ATOM     23  C   UNL     1       2.298  -2.149   9.671  0.00  0.00    +0.086 C 
ATOM     24  C   UNL     1       2.559  -1.505   8.307  0.00  0.00    -0.059 C 
ATOM     25  N   UNL     1       1.287  -1.445   7.557  0.00  0.00    +0.389 N 
ATOM     26  H   UNL     1       0.913  -2.396   7.456  0.00  0.00    -0.081 HD
BRANCH  22  27
ATOM     27  C   UNL     1       1.096  -1.866  11.685  0.00  0.00    +0.060 A 
ATOM     28  C   UNL     1       0.525  -3.123  11.843  0.00  0.00    +0.025 A 
ATOM     29  C   UNL     1       0.323  -3.634  13.110  0.00  0.00    +0.002 A 
ATOM     30  C   UNL     1       0.678  -2.891  14.222  0.00  0.00    +0.002 A 
ATOM     31  C   UNL     1       1.241  -1.638  14.068  0.00  0.00    +0.034 A 
ATOM     32  C   UNL     1       1.451  -1.123  12.804  0.00  0.00    +0.147 A 
BRANCH  32  33
ATOM     33  N   UNL     1       2.054   0.219  12.641  0.00  0.00    +0.058 N 
ATOM     34  O   UNL     1       2.453   0.830  13.616  0.00  0.00    -0.126 OA
ATOM     35  O   UNL     1       2.150   0.713  11.531  0.00  0.00    -0.126 OA
ENDBRANCH  32  33
ENDBRANCH  22  27
ENDBRANCH   2  25
TORSDOF 6
