REMARK  Name = ZINC10593688
REMARK  4 active torsions:
REMARK  status: ('A' for Active; 'I' for Inactive)
REMARK    1  A    between atoms: C_7  and  C_15
REMARK    2  A    between atoms: N_17  and  C_18
REMARK    3  A    between atoms: C_18  and  C_19
REMARK    4  A    between atoms: N_23  and  C_24
REMARK                            x       y       z     vdW  Elec       q    Type
REMARK                         _______ _______ _______ _____ _____    ______ ____
ROOT
ATOM      1  C   UNL     1      -1.049   2.291  -0.011  0.00  0.00    +0.225 C 
ATOM      2  O   UNL     1      -2.119   1.720  -0.007  0.00  0.00    -0.275 OA
ATOM      3  N   UNL     1       0.095   1.578  -0.012  0.00  0.00    -0.307 N 
ATOM      4  H   UNL     1       0.951   2.034  -0.018  0.00  0.00    +0.149 HD
ENDROOT
BRANCH   1  11
ATOM      5  C   UNL     1      -4.409   4.836  -1.236  0.00  0.00    +0.001 A 
ATOM      6  C   UNL     1      -4.986   5.335  -0.082  0.00  0.00    +0.004 A 
ATOM      7  C   UNL     1      -4.274   5.337   1.100  0.00  0.00    +0.046 A 
ATOM      8  C   UNL     1      -2.976   4.840   1.134  0.00  0.00    +0.133 A 
ATOM      9  C   UNL     1      -2.400   4.341  -0.023  0.00  0.00    +0.011 A 
ATOM     10  C   UNL     1      -3.119   4.340  -1.205  0.00  0.00    +0.008 A 
ATOM     11  C   UNL     1      -0.998   3.797  -0.012  0.00  0.00    +0.142 C 
ATOM     12  C   UNL     1      -0.257   4.270   1.209  0.00  0.00    +0.011 A 
ATOM     13  C   UNL     1       1.125   4.198   1.233  0.00  0.00    +0.008 A 
ATOM     14  C   UNL     1       1.824   4.628   2.345  0.00  0.00    +0.001 A 
ATOM     15  C   UNL     1       1.144   5.130   3.439  0.00  0.00    +0.004 A 
ATOM     16  C   UNL     1      -0.234   5.203   3.420  0.00  0.00    +0.046 A 
ATOM     17  C   UNL     1      -0.941   4.772   2.303  0.00  0.00    +0.133 A 
ATOM     18  O   UNL     1      -2.293   4.852   2.304  0.00  0.00    -0.455 OA
ENDBRANCH   1  11
BRANCH   3  19
ATOM     19  C   UNL     1       0.045   0.113  -0.010  0.00  0.00    +0.182 C 
BRANCH  19  20
ATOM     20  C   UNL     1       1.448  -0.437  -0.019  0.00  0.00    +0.174 A 
ATOM     21  N   UNL     1       2.213  -0.625   1.024  0.00  0.00    -0.111 NA
ATOM     22  N   UNL     1       3.349  -1.109   0.670  0.00  0.00    -0.023 NA
ATOM     23  N   UNL     1       3.389  -1.261  -0.610  0.00  0.00    -0.039 NA
ATOM     24  N   UNL     1       2.146  -0.833  -1.106  0.00  0.00    -0.195 N 
BRANCH  24  25
ATOM     25  C   UNL     1       1.721  -0.817  -2.443  0.00  0.00    +0.072 A 
ATOM     26  C   UNL     1       2.009  -1.890  -3.276  0.00  0.00    +0.028 A 
ATOM     27  C   UNL     1       1.587  -1.875  -4.591  0.00  0.00    +0.005 A 
ATOM     28  C   UNL     1       0.886  -0.789  -5.082  0.00  0.00    +0.038 A 
ATOM     29  C   UNL     1       0.602   0.285  -4.256  0.00  0.00    +0.125 A 
ATOM     30  C   UNL     1       1.018   0.273  -2.936  0.00  0.00    +0.066 A 
ATOM     31  F   UNL     1      -0.083   1.345  -4.738  0.00  0.00    -0.205 F 
ENDBRANCH  24  25
ENDBRANCH  19  20
ENDBRANCH   3  19
TORSDOF 4
