REMARK  Name = ZINC39657669
REMARK  8 active torsions:
REMARK  status: ('A' for Active; 'I' for Inactive)
REMARK    1  A    between atoms: C_1  and  C_2
REMARK    2  A    between atoms: C_6  and  C_15
REMARK    3  A    between atoms: N_17  and  C_18
REMARK    4  A    between atoms: C_18  and  C_19
REMARK    5  A    between atoms: C_24  and  S_25
REMARK    6  A    between atoms: S_25  and  C_26
REMARK    7  A    between atoms: C_31  and  C_32
REMARK    8  A    between atoms: C_32  and  O_33
REMARK                            x       y       z     vdW  Elec       q    Type
REMARK                         _______ _______ _______ _____ _____    ______ ____
ROOT
ATOM      1  C   UNL     1      -5.299  -1.941  -0.274  0.00  0.00    +0.218 C 
ATOM      2  O   UNL     1      -5.947  -2.934  -0.020  0.00  0.00    -0.275 OA
ATOM      3  N   UNL     1      -5.837  -0.719  -0.088  0.00  0.00    -0.311 N 
ATOM      4  H   UNL     1      -5.318   0.075  -0.290  0.00  0.00    +0.149 HD
ENDROOT
BRANCH   1  10
ATOM      5  C   UNL     1      -0.564  -4.723  -0.138  0.00  0.00    +0.109 C 
ATOM      6  C   UNL     1      -1.242  -4.451  -1.457  0.00  0.00    +0.212 C 
ATOM      7  O   UNL     1      -0.696  -4.763  -2.494  0.00  0.00    -0.276 OA
ATOM      8  N   UNL     1      -2.454  -3.863  -1.483  0.00  0.00    -0.300 N 
ATOM      9  C   UNL     1      -3.268  -3.408  -0.331  0.00  0.00    +0.121 C 
ATOM     10  C   UNL     1      -3.892  -2.073  -0.797  0.00  0.00    +0.100 C 
ATOM     11  C   UNL     1      -3.895  -2.156  -2.333  0.00  0.00    -0.004 C 
ATOM     12  C   UNL     1      -3.271  -3.518  -2.671  0.00  0.00    +0.115 C 
ATOM     13  C   UNL     1      -3.048  -1.033  -2.924  0.00  0.00    -0.010 C 
ATOM     14  C   UNL     1      -3.112  -1.102  -4.452  0.00  0.00    -0.082 C 
ATOM     15  N   UNL     1      -4.507  -0.974  -4.891  0.00  0.00    +0.379 N 
ATOM     16  C   UNL     1      -5.295  -2.108  -4.394  0.00  0.00    -0.082 C 
ATOM     17  C   UNL     1      -5.323  -2.082  -2.864  0.00  0.00    -0.010 C 
ATOM     18  H   UNL     1      -4.894  -0.114  -4.531  0.00  0.00    -0.086 HD
ATOM     19  H   UNL     1      -4.541  -0.958  -5.899  0.00  0.00    -0.086 HD
ENDBRANCH   1  10
BRANCH   3  20
ATOM     20  C   UNL     1      -7.205  -0.591   0.421  0.00  0.00    +0.140 C 
BRANCH  20  21
ATOM     21  C   UNL     1      -7.562   0.868   0.537  0.00  0.00    -0.017 A 
ATOM     22  C   UNL     1      -7.498   1.500   1.763  0.00  0.00    +0.006 A 
ATOM     23  C   UNL     1      -7.826   2.840   1.871  0.00  0.00    +0.000 A 
ATOM     24  C   UNL     1      -8.220   3.551   0.752  0.00  0.00    +0.001 A 
ATOM     25  C   UNL     1      -8.287   2.925  -0.477  0.00  0.00    +0.015 A 
ATOM     26  C   UNL     1      -7.952   1.581  -0.590  0.00  0.00    +0.017 A 
BRANCH  26  27
ATOM     27  S   UNL     1      -8.029   0.780  -2.158  0.00  0.00    -0.089 S 
BRANCH  27  28
ATOM     28  C   UNL     1      -8.726   1.998  -3.224  0.00  0.00    +0.018 A 
ATOM     29  C   UNL     1      -7.915   2.689  -4.117  0.00  0.00    +0.015 A 
ATOM     30  C   UNL     1      -8.465   3.642  -4.951  0.00  0.00    +0.001 A 
ATOM     31  C   UNL     1      -9.821   3.909  -4.899  0.00  0.00    +0.000 A 
ATOM     32  C   UNL     1     -10.631   3.224  -4.012  0.00  0.00    +0.007 A 
ATOM     33  C   UNL     1     -10.089   2.265  -3.179  0.00  0.00    -0.008 A 
BRANCH  33  34
ATOM     34  C   UNL     1     -10.973   1.514  -2.217  0.00  0.00    +0.192 C 
BRANCH  34  35
ATOM     35  O   UNL     1     -12.322   1.964  -2.359  0.00  0.00    -0.390 OA
ATOM     36  H   UNL     1     -12.948   1.522  -1.770  0.00  0.00    +0.210 HD
ENDBRANCH  34  35
ENDBRANCH  33  34
ENDBRANCH  27  28
ENDBRANCH  26  27
ENDBRANCH  20  21
ENDBRANCH   3  20
TORSDOF 7
