REMARK  Name = ZINC15882196
REMARK  7 active torsions:
REMARK  status: ('A' for Active; 'I' for Inactive)
REMARK    1  A    between atoms: C_1  and  C_2
REMARK    2  A    between atoms: C_11  and  C_14
REMARK    3  A    between atoms: C_17  and  N_20
REMARK    4  A    between atoms: N_20  and  S_21
REMARK    5  A    between atoms: S_21  and  C_24
REMARK    6  A    between atoms: C_27  and  O_30
REMARK    7  A    between atoms: O_30  and  C_31
REMARK                            x       y       z     vdW  Elec       q    Type
REMARK                         _______ _______ _______ _____ _____    ______ ____
ROOT
ATOM      1  C   UNL     1       2.456   1.055  -0.087  0.00  0.00    +0.002 A 
ATOM      2  C   UNL     1       2.527  -0.336  -0.016  0.00  0.00    +0.012 A 
ATOM      3  C   UNL     1       3.755  -0.963  -0.013  0.00  0.00    +0.025 A 
ATOM      4  C   UNL     1       4.922  -0.210  -0.070  0.00  0.00    +0.048 A 
ATOM      5  C   UNL     1       4.854   1.178  -0.135  0.00  0.00    +0.025 A 
ATOM      6  C   UNL     1       3.628   1.809  -0.144  0.00  0.00    +0.012 A 
ENDROOT
BRANCH   1  17
ATOM      7  C   UNL     1      -5.746   6.274  -1.038  0.00  0.00    +0.007 C 
ATOM      8  C   UNL     1      -4.405   5.555  -1.200  0.00  0.00    -0.011 C 
ATOM      9  C   UNL     1      -3.457   5.979  -0.075  0.00  0.00    +0.022 C 
ATOM     10  C   UNL     1      -2.140   5.212  -0.207  0.00  0.00    +0.107 C 
ATOM     11  N   UNL     1      -2.403   3.769  -0.133  0.00  0.00    -0.314 N 
ATOM     12  C   UNL     1      -3.272   3.330  -1.232  0.00  0.00    +0.107 C 
ATOM     13  C   UNL     1      -4.623   4.041  -1.130  0.00  0.00    +0.022 C 
ATOM     14  C   UNL     1      -1.215   3.046  -0.118  0.00  0.00    +0.144 A 
ATOM     15  C   UNL     1      -1.246   1.652  -0.056  0.00  0.00    +0.047 A 
ATOM     16  C   UNL     1      -0.040   0.976  -0.039  0.00  0.00    +0.033 A 
ATOM     17  C   UNL     1       1.137   1.731  -0.096  0.00  0.00    +0.093 A 
ATOM     18  N   UNL     1       1.068   3.054  -0.158  0.00  0.00    -0.147 NA
ATOM     19  N   UNL     1      -0.052   3.679  -0.169  0.00  0.00    -0.134 NA
ENDBRANCH   1  17
BRANCH   4  20
ATOM     20  N   UNL     1       6.163  -0.846  -0.061  0.00  0.00    -0.216 N 
ATOM     21  H   UNL     1       6.850  -0.580  -0.693  0.00  0.00    +0.174 HD
BRANCH  20  22
ATOM     22  S   UNL     1       6.466  -2.056   1.028  0.00  0.00    +0.072 S 
ATOM     23  O   UNL     1       5.403  -2.991   0.902  0.00  0.00    -0.150 OA
ATOM     24  O   UNL     1       7.828  -2.424   0.860  0.00  0.00    -0.150 OA
BRANCH  22  25
ATOM     25  C   UNL     1       6.329  -1.354   2.639  0.00  0.00    +0.109 A 
ATOM     26  C   UNL     1       7.416  -0.716   3.208  0.00  0.00    +0.032 A 
ATOM     27  C   UNL     1       7.310  -0.159   4.468  0.00  0.00    +0.047 A 
ATOM     28  C   UNL     1       6.115  -0.251   5.167  0.00  0.00    +0.120 A 
ATOM     29  C   UNL     1       5.028  -0.896   4.596  0.00  0.00    +0.047 A 
ATOM     30  C   UNL     1       5.137  -1.446   3.333  0.00  0.00    +0.032 A 
BRANCH  28  31
ATOM     31  O   UNL     1       6.010   0.292   6.408  0.00  0.00    -0.495 OA
ATOM     32  C   UNL     1       7.169   0.941   6.933  0.00  0.00    +0.277 C 
ENDBRANCH  28  31
ENDBRANCH  22  25
ENDBRANCH  20  22
ENDBRANCH   4  20
TORSDOF 5
