REMARK  Name = ZINC63485965
REMARK  6 active torsions:
REMARK  status: ('A' for Active; 'I' for Inactive)
REMARK    1  A    between atoms: C_1  and  C_2
REMARK    2  A    between atoms: C_13  and  C_15
REMARK    3  A    between atoms: C_15  and  C_16
REMARK    4  A    between atoms: N_18  and  C_19
REMARK    5  A    between atoms: C_19  and  C_20
REMARK    6  A    between atoms: C_20  and  C_21
REMARK                            x       y       z     vdW  Elec       q    Type
REMARK                         _______ _______ _______ _____ _____    ______ ____
ROOT
ATOM      1  C   UNL     1      -0.019   1.526   0.010  0.00  0.00    +0.013 C 
ATOM      2  C   UNL     1       0.002  -0.004   0.002  0.00  0.00    +0.034 C 
ATOM      3  C   UNL     1       0.705  -0.489  -1.242  0.00  0.00    -0.001 A 
ATOM      4  C   UNL     1       0.467   0.174  -2.418  0.00  0.00    +0.019 A 
ATOM      5  C   UNL     1       1.086  -0.239  -3.595  0.00  0.00    +0.024 A 
ATOM      6  C   UNL     1       1.962  -1.341  -3.579  0.00  0.00    +0.139 A 
ATOM      7  C   UNL     1       2.193  -2.001  -2.382  0.00  0.00    +0.093 A 
ATOM      8  C   UNL     1       1.569  -1.575  -1.218  0.00  0.00    +0.139 A 
ATOM      9  O   UNL     1       1.841  -2.248  -0.065  0.00  0.00    -0.425 OA
ATOM     10  C   UNL     1       1.083  -1.967   1.014  0.00  0.00    +0.316 C 
ATOM     11  O   UNL     1       0.698  -2.836   1.760  0.00  0.00    -0.250 OA
ATOM     12  C   UNL     1       0.740  -0.510   1.245  0.00  0.00    +0.114 C 
ATOM     13  O   UNL     1       2.412  -1.516  -4.839  0.00  0.00    -0.459 OA
ATOM     14  C   UNL     1       1.882  -0.603  -5.670  0.00  0.00    +0.109 A 
ATOM     15  C   UNL     1       1.064   0.213  -4.985  0.00  0.00    +0.001 A 
ATOM     16  C   UNL     1       0.292   1.360  -5.581  0.00  0.00    +0.039 C 
ATOM     17  C   UNL     1       0.889   1.685  -6.956  0.00  0.00    +0.005 C 
ATOM     18  C   UNL     1       1.030   0.392  -7.765  0.00  0.00    +0.008 C 
ATOM     19  C   UNL     1       2.136  -0.475  -7.155  0.00  0.00    +0.075 C 
ENDROOT
BRANCH  12  20
ATOM     20  C   UNL     1       2.021   0.300   1.455  0.00  0.00    +0.111 C 
BRANCH  20  21
ATOM     21  C   UNL     1       2.676  -0.120   2.745  0.00  0.00    +0.214 C 
ATOM     22  O   UNL     1       2.168  -0.983   3.430  0.00  0.00    -0.276 OA
ATOM     23  N   UNL     1       3.826   0.463   3.138  0.00  0.00    -0.315 N 
ATOM     24  H   UNL     1       4.232   1.153   2.590  0.00  0.00    +0.149 HD
BRANCH  23  25
ATOM     25  C   UNL     1       4.463   0.054   4.392  0.00  0.00    +0.108 C 
BRANCH  25  26
ATOM     26  C   UNL     1       5.743   0.864   4.602  0.00  0.00    +0.052 C 
BRANCH  26  27
ATOM     27  C   UNL     1       6.399   0.444   5.892  0.00  0.00    -0.040 C 
ATOM     28  C   UNL     1       7.386  -0.468   6.043  0.00  0.00    +0.002 A 
ATOM     29  C   UNL     1       8.117  -1.308   5.088  0.00  0.00    +0.048 A 
ATOM     30  C   UNL     1       9.077  -2.145   5.550  0.00  0.00    +0.124 A 
ATOM     31  C   UNL     1       9.387  -2.228   6.917  0.00  0.00    +0.040 A 
ATOM     32  C   UNL     1       8.758  -1.487   7.853  0.00  0.00    +0.029 A 
ATOM     33  C   UNL     1       7.733  -0.574   7.479  0.00  0.00    +0.043 A 
ATOM     34  N   UNL     1       6.989   0.240   8.187  0.00  0.00    -0.380 N 
ATOM     35  C   UNL     1       6.089   0.961   7.279  0.00  0.00    +0.144 C 
ATOM     36  F   UNL     1       9.751  -2.921   4.673  0.00  0.00    -0.205 F 
ATOM     37  H   UNL     1       7.029   0.351   9.150  0.00  0.00    +0.160 HD
ENDBRANCH  26  27
ENDBRANCH  25  26
ENDBRANCH  23  25
ENDBRANCH  20  21
ENDBRANCH  12  20
TORSDOF 5
