REMARK  Name = ZINC54620509
REMARK  11 active torsions:
REMARK  status: ('A' for Active; 'I' for Inactive)
REMARK    1  A    between atoms: C_1  and  C_2
REMARK    2  A    between atoms: C_8  and  C_13
REMARK    3  A    between atoms: C_9  and  O_12
REMARK    4  A    between atoms: C_13  and  C_15
REMARK    5  A    between atoms: C_13  and  N_22
REMARK    6  A    between atoms: N_22  and  C_23
REMARK    7  A    between atoms: C_26  and  C_29
REMARK    8  A    between atoms: C_29  and  O_31
REMARK    9  A    between atoms: O_31  and  C_32
REMARK   10  A    between atoms: C_32  and  C_33
REMARK   11  A    between atoms: C_32  and  C_34
REMARK                            x       y       z     vdW  Elec       q    Type
REMARK                         _______ _______ _______ _____ _____    ______ ____
ROOT
ATOM      1  C   UNL     1       0.086  -4.769   3.747  0.00  0.00    +0.135 C 
ENDROOT
BRANCH   1   9
ATOM      2  C   UNL     1       0.739   1.563   0.171  0.00  0.00    +0.065 C 
ATOM      3  C   UNL     1       0.580   0.065   0.125  0.00  0.00    +0.039 A 
ATOM      4  C   UNL     1       0.507  -0.571  -1.113  0.00  0.00    +0.023 A 
ATOM      5  C   UNL     1       0.364  -1.928  -1.174  0.00  0.00    +0.012 A 
ATOM      6  C   UNL     1       0.293  -2.643   0.036  0.00  0.00    +0.004 A 
ATOM      7  C   UNL     1       0.146  -4.040   0.052  0.00  0.00    +0.010 A 
ATOM      8  C   UNL     1       0.082  -4.699   1.242  0.00  0.00    +0.010 A 
ATOM      9  C   UNL     1       0.161  -4.007   2.448  0.00  0.00    +0.021 A 
ATOM     10  C   UNL     1       0.304  -2.649   2.473  0.00  0.00    +0.148 A 
ATOM     11  C   UNL     1       0.374  -1.933   1.259  0.00  0.00    +0.113 A 
ATOM     12  N   UNL     1       0.519  -0.605   1.249  0.00  0.00    -0.248 NA
BRANCH  10  13
ATOM     13  O   UNL     1       0.378  -1.992   3.659  0.00  0.00    -0.504 OA
ATOM     14  H   UNL     1       1.278  -1.894   3.999  0.00  0.00    +0.292 HD
ENDBRANCH  10  13
ENDBRANCH   1   9
BRANCH   1  15
ATOM     15  C   UNL     1      -1.344  -4.815   4.220  0.00  0.00    -0.023 A 
ATOM     16  C   UNL     1      -2.223  -5.733   3.677  0.00  0.00    +0.008 A 
ATOM     17  C   UNL     1      -3.534  -5.776   4.111  0.00  0.00    +0.038 A 
ATOM     18  C   UNL     1      -3.968  -4.899   5.090  0.00  0.00    +0.123 A 
ATOM     19  C   UNL     1      -3.087  -3.980   5.634  0.00  0.00    +0.038 A 
ATOM     20  C   UNL     1      -1.775  -3.942   5.202  0.00  0.00    +0.008 A 
ATOM     21  F   UNL     1      -5.250  -4.940   5.515  0.00  0.00    -0.205 F 
ENDBRANCH   1  15
BRANCH   1  22
ATOM     22  N   UNL     1       0.576  -6.134   3.541  0.00  0.00    -0.333 N 
ATOM     23  H   UNL     1       0.553  -6.529   2.655  0.00  0.00    +0.147 HD
BRANCH  22  24
ATOM     24  C   UNL     1       1.073  -6.864   4.615  0.00  0.00    +0.028 A 
ATOM     25  C   UNL     1       1.099  -6.297   5.886  0.00  0.00    +0.024 A 
ATOM     26  C   UNL     1       1.588  -7.014   6.948  0.00  0.00    +0.017 A 
ATOM     27  C   UNL     1       2.061  -8.315   6.752  0.00  0.00    +0.059 A 
ATOM     28  C   UNL     1       2.034  -8.881   5.473  0.00  0.00    +0.017 A 
ATOM     29  C   UNL     1       1.538  -8.161   4.417  0.00  0.00    +0.024 A 
BRANCH  27  30
ATOM     30  C   UNL     1       2.588  -9.089   7.891  0.00  0.00    +0.339 C 
ATOM     31  O   UNL     1       2.612  -8.595   9.001  0.00  0.00    -0.245 OA
BRANCH  30  32
ATOM     32  O   UNL     1       3.044 -10.342   7.700  0.00  0.00    -0.458 OA
BRANCH  32  33
ATOM     33  C   UNL     1       3.541 -11.034   8.848  0.00  0.00    +0.171 C 
ATOM     34  C   UNL     1       3.310 -12.537   8.678  0.00  0.00    +0.052 C 
ATOM     35  C   UNL     1       5.039 -10.761   8.999  0.00  0.00    +0.052 C 
ENDBRANCH  32  33
ENDBRANCH  30  32
ENDBRANCH  27  30
ENDBRANCH  22  24
ENDBRANCH   1  22
TORSDOF 8
