REMARK  Name = ZINC39970607
REMARK  8 active torsions:
REMARK  status: ('A' for Active; 'I' for Inactive)
REMARK    1  A    between atoms: C_1  and  C_2
REMARK    2  A    between atoms: C_7  and  C_35
REMARK    3  A    between atoms: N_9  and  S_10
REMARK    4  A    between atoms: S_10  and  C_13
REMARK    5  A    between atoms: C_16  and  N_19
REMARK    6  A    between atoms: N_19  and  C_20
REMARK    7  A    between atoms: C_20  and  N_22
REMARK    8  A    between atoms: N_25  and  C_28
REMARK                            x       y       z     vdW  Elec       q    Type
REMARK                         _______ _______ _______ _____ _____    ______ ____
ROOT
ATOM      1  C   UNL     1      -0.068   0.557   3.713  0.00  0.00    +0.106 A 
ATOM      2  C   UNL     1      -1.299   1.151   3.499  0.00  0.00    +0.030 A 
ATOM      3  C   UNL     1      -2.248   1.156   4.503  0.00  0.00    +0.025 A 
ATOM      4  C   UNL     1      -1.965   0.564   5.727  0.00  0.00    +0.033 A 
ATOM      5  C   UNL     1      -0.728  -0.031   5.938  0.00  0.00    +0.025 A 
ATOM      6  C   UNL     1       0.214  -0.038   4.929  0.00  0.00    +0.030 A 
ENDROOT
BRANCH   1   7
ATOM      7  S   UNL     1       1.140   0.552   2.430  0.00  0.00    +0.061 S 
ATOM      8  O   UNL     1       2.404   0.416   3.063  0.00  0.00    -0.153 OA
ATOM      9  O   UNL     1       0.829   1.645   1.576  0.00  0.00    -0.153 OA
BRANCH   7  16
ATOM     10  C   UNL     1       2.696  -1.759   2.929  0.00  0.00    +0.026 C 
ATOM     11  C   UNL     1       1.650  -2.053   1.853  0.00  0.00    +0.077 C 
ATOM     12  C   UNL     1       2.347  -2.546   0.581  0.00  0.00    +0.020 C 
ATOM     13  C   UNL     1       1.311  -2.705  -0.535  0.00  0.00    +0.003 C 
ATOM     14  C   UNL     1       0.666  -1.349  -0.832  0.00  0.00    +0.020 C 
ATOM     15  C   UNL     1      -0.050  -0.843   0.424  0.00  0.00    +0.077 C 
ATOM     16  N   UNL     1       0.905  -0.825   1.541  0.00  0.00    -0.171 NA
ATOM     17  C   UNL     1      -0.580   0.571   0.177  0.00  0.00    +0.026 C 
ENDBRANCH   7  16
ENDBRANCH   1   7
BRANCH   4  18
ATOM     18  N   UNL     1      -2.924   0.569   6.746  0.00  0.00    -0.297 N 
ATOM     19  H   UNL     1      -2.655   0.727   7.664  0.00  0.00    +0.154 HD
BRANCH  18  20
ATOM     20  C   UNL     1      -4.221   0.352   6.451  0.00  0.00    +0.137 C 
ATOM     21  S   UNL     1      -4.679  -0.059   4.853  0.00  0.00    -0.018 S 
BRANCH  20  22
ATOM     22  N   UNL     1      -5.158   0.460   7.414  0.00  0.00    -0.309 N 
ATOM     23  C   UNL     1      -4.793   0.902   8.767  0.00  0.00    +0.125 C 
ATOM     24  C   UNL     1      -5.658   2.113   9.137  0.00  0.00    +0.124 C 
ATOM     25  N   UNL     1      -7.064   1.790   8.852  0.00  0.00    -0.325 N 
ATOM     26  C   UNL     1      -7.429   1.348   7.499  0.00  0.00    +0.124 C 
ATOM     27  C   UNL     1      -6.564   0.142   7.128  0.00  0.00    +0.125 C 
BRANCH  25  28
ATOM     28  C   UNL     1      -8.036   1.902   9.851  0.00  0.00    +0.065 A 
ATOM     29  C   UNL     1      -8.721   3.097  10.025  0.00  0.00    +0.026 A 
ATOM     30  C   UNL     1      -9.681   3.204  11.013  0.00  0.00    +0.002 A 
ATOM     31  C   UNL     1      -9.960   2.123  11.829  0.00  0.00    +0.003 A 
ATOM     32  C   UNL     1      -9.280   0.931  11.660  0.00  0.00    +0.040 A 
ATOM     33  C   UNL     1      -8.322   0.815  10.669  0.00  0.00    +0.144 A 
ATOM     34  F   UNL     1      -7.662  -0.352  10.501  0.00  0.00    -0.204 F 
ENDBRANCH  25  28
ENDBRANCH  20  22
ENDBRANCH  18  20
ENDBRANCH   4  18
TORSDOF 6
