REMARK  Name = ZINC05864574
REMARK  6 active torsions:
REMARK  status: ('A' for Active; 'I' for Inactive)
REMARK    1  A    between atoms: C_1  and  C_2
REMARK    2  A    between atoms: C_2  and  C_29
REMARK    3  A    between atoms: C_6  and  C_19
REMARK    4  A    between atoms: C_13  and  S_17
REMARK    5  A    between atoms: S_17  and  C_18
REMARK    6  A    between atoms: C_23  and  O_25
REMARK                            x       y       z     vdW  Elec       q    Type
REMARK                         _______ _______ _______ _____ _____    ______ ____
ROOT
ATOM      1  C   UNL     1       0.002  -0.004   0.002  0.00  0.00    +0.011 C 
ATOM      2  C   UNL     1      -0.019   1.526   0.010  0.00  0.00    -0.023 C 
ATOM      3  C   UNL     1      -0.745   2.024   1.262  0.00  0.00    +0.058 C 
ATOM      4  C   UNL     1      -0.807   3.533   1.245  0.00  0.00    +0.017 C 
ATOM      5  C   UNL     1      -0.861   4.214   0.081  0.00  0.00    +0.024 C 
ATOM      6  C   UNL     1      -0.924   5.720   0.059  0.00  0.00    +0.092 C 
ATOM      7  C   UNL     1      -1.341   6.269   1.390  0.00  0.00    +0.069 A 
ATOM      8  C   UNL     1      -1.811   7.583   1.498  0.00  0.00    +0.258 A 
ATOM      9  O   UNL     1      -1.891   8.298   0.512  0.00  0.00    -0.267 OA
ATOM     10  N   UNL     1      -2.175   8.045   2.713  0.00  0.00    -0.302 N 
ATOM     11  H   UNL     1      -2.549   9.074   2.821  0.00  0.00    +0.171 HD
ATOM     12  C   UNL     1      -2.079   7.239   3.807  0.00  0.00    +0.171 A 
ATOM     13  N   UNL     1      -1.638   6.002   3.711  0.00  0.00    -0.208 NA
ATOM     14  C   UNL     1      -1.267   5.491   2.532  0.00  0.00    +0.135 A 
ATOM     15  N   UNL     1      -0.809   4.191   2.445  0.00  0.00    -0.302 N 
ATOM     16  C   UNL     1      -0.857   3.538  -1.153  0.00  0.00    +0.162 C 
ATOM     17  O   UNL     1      -0.926   4.179  -2.183  0.00  0.00    -0.292 OA
ATOM     18  C   UNL     1      -0.770   2.038  -1.223  0.00  0.00    +0.086 C 
ATOM     19  C   UNL     1       1.415   2.061  -0.000  0.00  0.00    +0.011 C 
ATOM     20  H   UNL     1      -0.446   3.684   3.351  0.00  0.00    +0.153 HD
ENDROOT
BRANCH   6  21
ATOM     21  C   UNL     1       0.435   6.266  -0.296  0.00  0.00    -0.032 A 
ATOM     22  C   UNL     1       1.525   5.983   0.507  0.00  0.00    +0.005 A 
ATOM     23  C   UNL     1       2.773   6.481   0.183  0.00  0.00    +0.004 A 
ATOM     24  C   UNL     1       2.935   7.263  -0.944  0.00  0.00    +0.045 A 
ATOM     25  C   UNL     1       1.843   7.548  -1.752  0.00  0.00    +0.117 A 
ATOM     26  C   UNL     1       0.593   7.043  -1.427  0.00  0.00    +0.050 A 
BRANCH  25  27
ATOM     27  O   UNL     1       2.000   8.318  -2.861  0.00  0.00    -0.507 OA
ATOM     28  H   UNL     1       1.134   8.543  -3.501  0.00  0.00    +0.292 HD
ENDBRANCH  25  27
ENDBRANCH   6  21
BRANCH  12  29
ATOM     29  S   UNL     1      -2.557   7.865   5.384  0.00  0.00    -0.091 S 
ATOM     30  C   UNL     1      -2.228   6.412   6.411  0.00  0.00    +0.093 C 
ENDBRANCH  12  29
TORSDOF 3
