REMARK  Name = ZINC57531390
REMARK  8 active torsions:
REMARK  status: ('A' for Active; 'I' for Inactive)
REMARK    1  A    between atoms: C_1  and  O_2
REMARK    2  A    between atoms: O_2  and  C_3
REMARK    3  A    between atoms: C_5  and  C_10
REMARK    4  A    between atoms: C_8  and  O_9
REMARK    5  A    between atoms: C_12  and  C_24
REMARK    6  A    between atoms: C_14  and  C_19
REMARK    7  A    between atoms: C_14  and  O_23
REMARK    8  A    between atoms: C_24  and  C_26
REMARK                            x       y       z     vdW  Elec       q    Type
REMARK                         _______ _______ _______ _____ _____    ______ ____
ROOT
ATOM      1  C   UNL     1      -4.871   0.257   0.037  0.00  0.00    +0.118 C 
ATOM      2  C   UNL     1      -5.384   0.423  -1.397  0.00  0.00    +0.144 C 
ATOM      3  C   UNL     1      -5.753  -0.959  -1.946  0.00  0.00    +0.241 C 
ATOM      4  N   UNL     1      -6.718  -1.592  -1.045  0.00  0.00    -0.291 N 
ATOM      5  C   UNL     1      -6.732  -1.314   0.267  0.00  0.00    +0.133 C 
ATOM      6  S   UNL     1      -7.879  -2.105   1.262  0.00  0.00    -0.019 S 
ATOM      7  N   UNL     1      -5.883  -0.441   0.832  0.00  0.00    -0.319 N 
ATOM      8  H   UNL     1      -7.359  -2.225  -1.404  0.00  0.00    +0.151 HD
ATOM      9  H   UNL     1      -5.941  -0.269   1.785  0.00  0.00    +0.148 HD
ENDROOT
BRANCH   1  12
ATOM     10  C   UNL     1      -1.219  -0.662  -0.254  0.00  0.00    +0.162 A 
ATOM     11  C   UNL     1      -2.392   0.075  -0.244  0.00  0.00    +0.055 A 
ATOM     12  C   UNL     1      -3.596  -0.546   0.027  0.00  0.00    -0.023 A 
ATOM     13  C   UNL     1      -3.634  -1.903   0.290  0.00  0.00    +0.009 A 
ATOM     14  C   UNL     1      -2.467  -2.645   0.282  0.00  0.00    +0.049 A 
ATOM     15  C   UNL     1      -1.257  -2.029   0.005  0.00  0.00    +0.158 A 
BRANCH  10  17
ATOM     16  C   UNL     1      -0.069   1.353  -0.777  0.00  0.00    +0.277 C 
ATOM     17  O   UNL     1      -0.033  -0.053  -0.521  0.00  0.00    -0.491 OA
ENDBRANCH  10  17
BRANCH  15  18
ATOM     18  O   UNL     1      -0.109  -2.758  -0.009  0.00  0.00    -0.503 OA
ATOM     19  H   UNL     1       0.335  -2.809   0.848  0.00  0.00    +0.292 HD
ENDBRANCH  15  18
ENDBRANCH   1  12
BRANCH   3  20
ATOM     20  C   UNL     1      -6.375  -0.808  -3.336  0.00  0.00    +0.436 C 
ATOM     21  F   UNL     1      -5.455  -0.197  -4.194  0.00  0.00    -0.166 F 
ATOM     22  F   UNL     1      -6.712  -2.070  -3.836  0.00  0.00    -0.166 F 
ATOM     23  F   UNL     1      -7.527  -0.019  -3.248  0.00  0.00    -0.166 F 
ENDBRANCH   3  20
BRANCH   3  24
ATOM     24  O   UNL     1      -4.579  -1.768  -2.033  0.00  0.00    -0.364 OA
ATOM     25  H   UNL     1      -4.739  -2.659  -2.373  0.00  0.00    +0.212 HD
ENDBRANCH   3  24
BRANCH   2  26
ATOM     26  C   UNL     1      -6.599   1.314  -1.401  0.00  0.00    +0.179 C 
ATOM     27  O   UNL     1      -7.285   1.409  -0.404  0.00  0.00    -0.291 OA
BRANCH  26  28
ATOM     28  C   UNL     1      -6.939   2.040  -2.564  0.00  0.00    +0.055 A 
ATOM     29  C   UNL     1      -8.003   2.912  -2.774  0.00  0.00    +0.019 A 
ATOM     30  C   UNL     1      -8.073   3.473  -4.024  0.00  0.00    +0.008 A 
ATOM     31  C   UNL     1      -7.131   3.151  -4.947  0.00  0.00    +0.046 A 
ATOM     32  S   UNL     1      -6.114   2.082  -4.144  0.00  0.00    -0.094 S 
ENDBRANCH  26  28
ENDBRANCH   2  26
TORSDOF 7
