REMARK  Name = ZINC58849169
REMARK  11 active torsions:
REMARK  status: ('A' for Active; 'I' for Inactive)
REMARK    1  A    between atoms: C_1  and  C_2
REMARK    2  A    between atoms: C_2  and  O_3
REMARK    3  A    between atoms: O_3  and  C_4
REMARK    4  A    between atoms: C_9  and  N_10
REMARK    5  A    between atoms: N_10  and  S_11
REMARK    6  A    between atoms: S_11  and  C_14
REMARK    7  A    between atoms: C_27  and  C_30
REMARK    8  A    between atoms: C_33  and  O_36
REMARK    9  A    between atoms: O_36  and  C_37
REMARK   10  A    between atoms: C_37  and  C_38
REMARK   11  A    between atoms: C_37  and  C_39
REMARK                            x       y       z     vdW  Elec       q    Type
REMARK                         _______ _______ _______ _____ _____    ______ ____
ROOT
ATOM      1  C   UNL     1       4.726  -2.118   3.019  0.00  0.00    +0.109 A 
ATOM      2  C   UNL     1       5.048  -3.288   2.356  0.00  0.00    +0.030 A 
ATOM      3  C   UNL     1       6.124  -3.313   1.493  0.00  0.00    +0.025 A 
ATOM      4  C   UNL     1       6.881  -2.164   1.288  0.00  0.00    +0.031 A 
ATOM      5  C   UNL     1       6.552  -0.987   1.941  0.00  0.00    -0.018 A 
ATOM      6  C   UNL     1       5.469  -0.974   2.809  0.00  0.00    +0.034 A 
ATOM      7  C   UNL     1       7.315   0.275   1.716  0.00  0.00    +0.049 C 
ATOM      8  C   UNL     1       8.241   0.590   2.863  0.00  0.00    -0.023 C 
ATOM      9  C   UNL     1       9.347   1.132   2.417  0.00  0.00    -0.030 C 
ATOM     10  C   UNL     1       9.320   1.250   0.909  0.00  0.00    +0.033 C 
ATOM     11  C   UNL     1       8.211   0.261   0.480  0.00  0.00    +0.029 C 
ATOM     12  C   UNL     1       8.856  -1.082   0.208  0.00  0.00    +0.105 C 
ATOM     13  N   UNL     1       7.974  -2.209   0.430  0.00  0.00    -0.336 N 
ATOM     14  H   UNL     1       8.168  -3.043  -0.025  0.00  0.00    +0.147 HD
ENDROOT
BRANCH  12  15
ATOM     15  C   UNL     1      10.076  -1.214   1.084  0.00  0.00    -0.027 A 
ATOM     16  C   UNL     1       9.938  -1.579   2.410  0.00  0.00    +0.009 A 
ATOM     17  C   UNL     1      11.054  -1.700   3.215  0.00  0.00    +0.046 A 
ATOM     18  C   UNL     1      12.315  -1.455   2.691  0.00  0.00    +0.121 A 
ATOM     19  C   UNL     1      12.451  -1.089   1.359  0.00  0.00    +0.046 A 
ATOM     20  C   UNL     1      11.332  -0.974   0.557  0.00  0.00    +0.009 A 
BRANCH  18  21
ATOM     21  O   UNL     1      13.415  -1.572   3.480  0.00  0.00    -0.489 OA
BRANCH  21  22
ATOM     22  C   UNL     1      14.668  -1.190   2.909  0.00  0.00    +0.167 C 
ATOM     23  C   UNL     1      15.572  -0.616   4.000  0.00  0.00    +0.051 C 
ATOM     24  C   UNL     1      15.338  -2.415   2.283  0.00  0.00    +0.051 C 
ENDBRANCH  21  22
ENDBRANCH  18  21
ENDBRANCH  12  15
BRANCH   1  25
ATOM     25  S   UNL     1       3.357  -2.085   4.129  0.00  0.00    +0.072 S 
ATOM     26  O   UNL     1       3.593  -1.014   5.032  0.00  0.00    -0.150 OA
ATOM     27  O   UNL     1       3.158  -3.421   4.567  0.00  0.00    -0.150 OA
BRANCH  25  28
ATOM     28  N   UNL     1       2.020  -1.671   3.244  0.00  0.00    -0.213 N 
ATOM     29  H   UNL     1       1.519  -0.872   3.468  0.00  0.00    +0.174 HD
BRANCH  28  35
ATOM     30  C   UNL     1       1.061  -1.897   1.034  0.00  0.00    +0.143 A 
ATOM     31  C   UNL     1       0.665  -2.698  -0.024  0.00  0.00    +0.047 A 
ATOM     32  C   UNL     1       0.811  -4.071   0.056  0.00  0.00    +0.004 A 
ATOM     33  C   UNL     1       1.352  -4.648   1.190  0.00  0.00    +0.002 A 
ATOM     34  C   UNL     1       1.750  -3.855   2.249  0.00  0.00    +0.028 A 
ATOM     35  C   UNL     1       1.612  -2.477   2.175  0.00  0.00    +0.090 A 
BRANCH  30  36
ATOM     36  O   UNL     1       0.917  -0.546   0.958  0.00  0.00    -0.490 OA
BRANCH  36  38
ATOM     37  C   UNL     1       0.264   1.503  -0.144  0.00  0.00    +0.048 C 
ATOM     38  C   UNL     1       0.345  -0.022  -0.242  0.00  0.00    +0.226 C 
ENDBRANCH  36  38
ENDBRANCH  30  36
ENDBRANCH  28  35
ENDBRANCH  25  28
ENDBRANCH   1  25
TORSDOF 8
