REMARK  Name = ZINC11134519
REMARK  10 active torsions:
REMARK  status: ('A' for Active; 'I' for Inactive)
REMARK    1  A    between atoms: C_1  and  C_2
REMARK    2  A    between atoms: C_10  and  C_27
REMARK    3  A    between atoms: C_11  and  C_12
REMARK    4  A    between atoms: C_12  and  O_14
REMARK    5  A    between atoms: O_14  and  C_15
REMARK    6  A    between atoms: C_15  and  C_17
REMARK    7  A    between atoms: C_15  and  C_18
REMARK    8  A    between atoms: N_23  and  C_24
REMARK    9  A    between atoms: C_24  and  C_25
REMARK   10  A    between atoms: C_24  and  C_26
REMARK                            x       y       z     vdW  Elec       q    Type
REMARK                         _______ _______ _______ _____ _____    ______ ____
ROOT
ATOM      1  C   UNL     1      -2.299  -0.114   1.873  0.00  0.00    +0.342 C 
ATOM      2  O   UNL     1      -1.368  -0.715   2.370  0.00  0.00    -0.245 OA
ENDROOT
BRANCH   1  13
ATOM      3  C   UNL     1      -3.227  -1.840  -0.280  0.00  0.00    +0.045 C 
ATOM      4  C   UNL     1      -4.109  -1.512   0.897  0.00  0.00    -0.026 A 
ATOM      5  C   UNL     1      -5.409  -2.036   0.995  0.00  0.00    +0.004 A 
ATOM      6  C   UNL     1      -5.931  -2.880   0.000  0.00  0.00    +0.010 A 
ATOM      7  C   UNL     1      -7.198  -3.364   0.126  0.00  0.00    +0.001 A 
ATOM      8  C   UNL     1      -7.984  -3.032   1.227  0.00  0.00    +0.002 A 
ATOM      9  C   UNL     1      -7.510  -2.216   2.209  0.00  0.00    +0.028 A 
ATOM     10  C   UNL     1      -6.207  -1.696   2.117  0.00  0.00    +0.072 A 
ATOM     11  N   UNL     1      -5.721  -0.892   3.070  0.00  0.00    -0.251 NA
ATOM     12  C   UNL     1      -4.512  -0.398   3.002  0.00  0.00    +0.053 A 
ATOM     13  C   UNL     1      -3.659  -0.687   1.921  0.00  0.00    +0.083 A 
ATOM     14  C   UNL     1      -4.022   0.502   4.107  0.00  0.00    +0.066 C 
ENDBRANCH   1  13
BRANCH   1  15
ATOM     15  O   UNL     1      -2.091   1.077   1.277  0.00  0.00    -0.449 OA
BRANCH  15  16
ATOM     16  C   UNL     1      -0.729   1.579   1.267  0.00  0.00    +0.259 C 
ATOM     17  C   UNL     1      -0.013   1.086   0.008  0.00  0.00    +0.062 C 
BRANCH  16  18
ATOM     18  C   UNL     1      -0.749   3.086   1.275  0.00  0.00    +0.261 C 
ATOM     19  O   UNL     1      -1.804   3.678   1.197  0.00  0.00    -0.271 OA
ATOM     20  N   UNL     1       0.405   3.775   1.369  0.00  0.00    -0.237 N 
ATOM     21  C   UNL     1       0.387   5.123   1.377  0.00  0.00    +0.306 C 
ATOM     22  O   UNL     1      -0.671   5.717   1.298  0.00  0.00    -0.252 OA
ATOM     23  N   UNL     1       1.541   5.812   1.471  0.00  0.00    -0.297 N 
ATOM     24  H   UNL     1       1.249   3.301   1.432  0.00  0.00    +0.159 HD
ATOM     25  H   UNL     1       2.385   5.338   1.534  0.00  0.00    +0.151 HD
BRANCH  23  26
ATOM     26  C   UNL     1       1.521   7.277   1.479  0.00  0.00    +0.068 C 
ATOM     27  C   UNL     1       1.278   7.776   2.905  0.00  0.00    +0.027 C 
ATOM     28  C   UNL     1       2.865   7.808   0.976  0.00  0.00    +0.027 C 
ENDBRANCH  23  26
ENDBRANCH  16  18
ENDBRANCH  15  16
ENDBRANCH   1  15
TORSDOF 5
