REMARK  Name = ZINC16195442
REMARK  11 active torsions:
REMARK  status: ('A' for Active; 'I' for Inactive)
REMARK    1  A    between atoms: C_1  and  O_2
REMARK    2  A    between atoms: O_2  and  C_3
REMARK    3  A    between atoms: C_5  and  C_19
REMARK    4  A    between atoms: C_8  and  O_9
REMARK    5  A    between atoms: O_9  and  C_10
REMARK    6  A    between atoms: C_10  and  C_11
REMARK    7  A    between atoms: C_19  and  N_51
REMARK    8  A    between atoms: C_20  and  C_21
REMARK    9  A    between atoms: C_20  and  N_51
REMARK   10  A    between atoms: C_21  and  N_22
REMARK   11  A    between atoms: C_23  and  C_25
REMARK                            x       y       z     vdW  Elec       q    Type
REMARK                         _______ _______ _______ _____ _____    ______ ____
ROOT
ATOM      1  C   UNL     1      -0.787   2.893   1.346  0.00  0.00    +0.163 A 
ATOM      2  C   UNL     1      -0.259   3.751   0.395  0.00  0.00    +0.051 A 
ATOM      3  C   UNL     1      -0.368   5.119   0.561  0.00  0.00    -0.060 A 
ATOM      4  C   UNL     1      -1.002   5.635   1.675  0.00  0.00    +0.021 A 
ATOM      5  C   UNL     1      -1.531   4.784   2.629  0.00  0.00    +0.063 A 
ATOM      6  C   UNL     1      -1.431   3.411   2.465  0.00  0.00    +0.176 A 
ATOM      7 BR   UNL     1      -2.398   5.494   4.153  0.00  0.00    -0.046 Br
ENDROOT
BRANCH   1   9
ATOM      8  C   UNL     1      -0.013   1.086   0.008  0.00  0.00    +0.277 C 
ATOM      9  O   UNL     1      -0.682   1.547   1.184  0.00  0.00    -0.491 OA
ENDBRANCH   1   9
BRANCH   6  10
ATOM     10  O   UNL     1      -1.956   2.573   3.399  0.00  0.00    -0.483 OA
BRANCH  10  11
ATOM     11  C   UNL     1      -1.101   2.184   4.476  0.00  0.00    +0.264 C 
BRANCH  11  12
ATOM     12  C   UNL     1      -1.849   1.262   5.403  0.00  0.00    -0.010 A 
ATOM     13  C   UNL     1      -2.561   1.781   6.469  0.00  0.00    +0.008 A 
ATOM     14  C   UNL     1      -3.252   0.936   7.316  0.00  0.00    +0.020 A 
ATOM     15  C   UNL     1      -3.222  -0.431   7.105  0.00  0.00    +0.041 A 
ATOM     16  C   UNL     1      -2.506  -0.951   6.042  0.00  0.00    +0.020 A 
ATOM     17  C   UNL     1      -1.820  -0.104   5.192  0.00  0.00    +0.008 A 
ATOM     18 CL   UNL     1      -4.085  -1.493   8.174  0.00  0.00    -0.084 Cl
ENDBRANCH  11  12
ENDBRANCH  10  11
ENDBRANCH   6  10
BRANCH   3  19
ATOM     19  C   UNL     1       0.208   6.050  -0.475  0.00  0.00    -0.047 C 
BRANCH  19  20
ATOM     20  N   UNL     1      -0.821   6.335  -1.493  0.00  0.00    +0.383 N 
ATOM     21  H   UNL     1      -1.632   6.774  -1.041  0.00  0.00    -0.085 HD
ATOM     22  H   UNL     1      -1.111   5.456  -1.937  0.00  0.00    -0.085 HD
BRANCH  20  23
ATOM     23  C   UNL     1      -0.285   7.246  -2.522  0.00  0.00    -0.063 C 
BRANCH  23  24
ATOM     24  C   UNL     1      -1.372   7.524  -3.562  0.00  0.00    +0.085 C 
BRANCH  24  25
ATOM     25  N   UNL     1      -0.847   8.428  -4.588  0.00  0.00    -0.312 N 
ATOM     26  C   UNL     1      -1.633   8.814  -5.612  0.00  0.00    +0.269 C 
ATOM     27  O   UNL     1      -2.777   8.412  -5.685  0.00  0.00    -0.268 OA
ATOM     28  H   UNL     1       0.067   8.750  -4.529  0.00  0.00    +0.149 HD
BRANCH  26  29
ATOM     29  C   UNL     1      -1.102   9.729  -6.649  0.00  0.00    +0.209 A 
ATOM     30  C   UNL     1      -1.787  10.271  -7.845  0.00  0.00    +0.192 A 
ATOM     31  N   UNL     1      -0.854  11.013  -8.396  0.00  0.00    -0.033 NA
ATOM     32  O   UNL     1       0.152  10.957  -7.728  0.00  0.00    -0.240 OA
ATOM     33  N   UNL     1       0.095  10.268  -6.737  0.00  0.00    -0.042 NA
ATOM     34  N   UNL     1      -3.088  10.050  -8.275  0.00  0.00    -0.339 N 
ATOM     35  H   UNL     1      -3.676   9.472  -7.765  0.00  0.00    +0.144 HD
ATOM     36  H   UNL     1      -3.409  10.475  -9.086  0.00  0.00    +0.144 HD
ENDBRANCH  26  29
ENDBRANCH  24  25
ENDBRANCH  23  24
ENDBRANCH  20  23
ENDBRANCH  19  20
ENDBRANCH   3  19
TORSDOF 10
