REMARK  Name = ZINC59992959
REMARK  12 active torsions:
REMARK  status: ('A' for Active; 'I' for Inactive)
REMARK    1  A    between atoms: C_1  and  C_2
REMARK    2  A    between atoms: C_5  and  C_28
REMARK    3  A    between atoms: N_8  and  C_10
REMARK    4  A    between atoms: C_10  and  C_11
REMARK    5  A    between atoms: C_10  and  C_12
REMARK    6  A    between atoms: C_10  and  C_13
REMARK    7  A    between atoms: C_13  and  N_14
REMARK    8  A    between atoms: N_17  and  C_18
REMARK    9  A    between atoms: C_18  and  C_19
REMARK   10  A    between atoms: C_19  and  C_20
REMARK   11  A    between atoms: C_20  and  N_21
REMARK   12  A    between atoms: N_21  and  C_22
REMARK                            x       y       z     vdW  Elec       q    Type
REMARK                         _______ _______ _______ _____ _____    ______ ____
ROOT
ATOM      1  N   UNL     1       0.625  -0.480   3.560  0.00  0.00    -0.301 N 
ATOM      2  C   UNL     1      -0.331  -0.065   4.415  0.00  0.00    +0.300 C 
ATOM      3  O   UNL     1      -0.086   0.811   5.222  0.00  0.00    -0.253 OA
ATOM      4  N   UNL     1      -1.558  -0.621   4.375  0.00  0.00    -0.299 N 
ATOM      5  H   UNL     1       0.430  -1.178   2.916  0.00  0.00    +0.150 HD
ATOM      6  H   UNL     1      -1.753  -1.320   3.731  0.00  0.00    +0.150 HD
ENDROOT
BRANCH   1   7
ATOM      7  C   UNL     1       1.959   0.125   3.603  0.00  0.00    +0.093 C 
BRANCH   7   8
ATOM      8  C   UNL     1       2.882  -0.607   2.627  0.00  0.00    -0.055 C 
ATOM      9  C   UNL     1       4.296  -0.032   2.734  0.00  0.00    -0.008 C 
ATOM     10  C   UNL     1       2.363  -0.424   1.199  0.00  0.00    -0.008 C 
BRANCH   8  16
ATOM     11  C   UNL     1       1.893  -4.204   4.598  0.00  0.00    +0.005 C 
ATOM     12  C   UNL     1       3.330  -3.692   4.717  0.00  0.00    -0.031 C 
ATOM     13  C   UNL     1       4.235  -4.483   3.768  0.00  0.00    +0.003 C 
ATOM     14  C   UNL     1       3.784  -4.237   2.325  0.00  0.00    -0.031 C 
ATOM     15  C   UNL     1       3.814  -2.735   2.036  0.00  0.00    -0.075 C 
ATOM     16  N   UNL     1       2.909  -2.038   2.958  0.00  0.00    +0.384 N 
ATOM     17  C   UNL     1       3.377  -2.209   4.340  0.00  0.00    -0.075 C 
ATOM     18  C   UNL     1       4.729  -4.962   1.364  0.00  0.00    +0.005 C 
ATOM     19  H   UNL     1       1.980  -2.420   2.869  0.00  0.00    -0.081 HD
ENDBRANCH   8  16
ENDBRANCH   7   8
ENDBRANCH   1   7
BRANCH   4  20
ATOM     20  C   UNL     1      -2.597  -0.170   5.304  0.00  0.00    +0.104 C 
BRANCH  20  21
ATOM     21  C   UNL     1      -3.884  -0.957   5.051  0.00  0.00    -0.000 C 
BRANCH  21  22
ATOM     22  C   UNL     1      -4.970  -0.486   6.021  0.00  0.00    -0.081 C 
BRANCH  22  23
ATOM     23  N   UNL     1      -6.206  -1.241   5.777  0.00  0.00    +0.381 N 
ATOM     24  H   UNL     1      -6.513  -1.087   4.829  0.00  0.00    -0.086 HD
ATOM     25  H   UNL     1      -6.032  -2.225   5.919  0.00  0.00    -0.086 HD
BRANCH  23  26
ATOM     26  C   UNL     1      -7.247  -0.789   6.709  0.00  0.00    -0.072 C 
ATOM     27  C   UNL     1      -7.599   0.670   6.412  0.00  0.00    -0.016 C 
ATOM     28  C   UNL     1      -8.684   1.141   7.382  0.00  0.00    -0.002 C 
ATOM     29  C   UNL     1      -9.932   0.271   7.214  0.00  0.00    -0.000 C 
ATOM     30  C   UNL     1      -9.580  -1.188   7.511  0.00  0.00    -0.002 C 
ATOM     31  C   UNL     1      -8.495  -1.659   6.541  0.00  0.00    -0.016 C 
ENDBRANCH  23  26
ENDBRANCH  22  23
ENDBRANCH  21  22
ENDBRANCH  20  21
ENDBRANCH   4  20
TORSDOF 8
