REMARK  Name = ZINC59020827
REMARK  8 active torsions:
REMARK  status: ('A' for Active; 'I' for Inactive)
REMARK    1  A    between atoms: C_1  and  C_2
REMARK    2  A    between atoms: C_7  and  N_8
REMARK    3  A    between atoms: C_9  and  C_11
REMARK    4  A    between atoms: C_11  and  S_12
REMARK    5  A    between atoms: S_12  and  C_13
REMARK    6  A    between atoms: N_18  and  N_19
REMARK    7  A    between atoms: C_20  and  C_21
REMARK    8  A    between atoms: C_20  and  C_22
REMARK                            x       y       z     vdW  Elec       q    Type
REMARK                         _______ _______ _______ _____ _____    ______ ____
ROOT
ATOM      1  C   UNL     1      -2.834  -0.412   7.995  0.00  0.00    +0.211 A 
ATOM      2  N   UNL     1      -2.333  -0.782   9.178  0.00  0.00    -0.186 NA
ATOM      3  C   UNL     1      -2.114   0.284   9.919  0.00  0.00    +0.232 A 
ATOM      4  N   UNL     1      -2.480   1.370   9.206  0.00  0.00    -0.245 N 
ATOM      5  N   UNL     1      -2.936   0.896   7.965  0.00  0.00    -0.144 NA
ATOM      6  N   UNL     1      -1.600   0.290  11.203  0.00  0.00    -0.205 N 
ATOM      7  H   UNL     1      -1.474   1.130  11.671  0.00  0.00    +0.177 HD
ATOM      8  H   UNL     1      -2.433   2.296   9.492  0.00  0.00    +0.192 HD
ENDROOT
BRANCH   6   9
ATOM      9  N   UNL     1      -1.260  -0.917  11.827  0.00  0.00    -0.184 NA
ATOM     10  C   UNL     1      -0.873  -0.921  13.066  0.00  0.00    +0.063 C 
ATOM     11  C   UNL     1      -0.340  -2.187  13.686  0.00  0.00    +0.068 C 
BRANCH  10  12
ATOM     12  C   UNL     1      -0.956   0.314  13.868  0.00  0.00    -0.002 A 
ATOM     13  C   UNL     1      -2.009   1.210  13.670  0.00  0.00    +0.011 A 
ATOM     14  C   UNL     1      -2.080   2.363  14.424  0.00  0.00    +0.016 A 
ATOM     15  C   UNL     1      -1.110   2.633  15.375  0.00  0.00    +0.018 A 
ATOM     16  C   UNL     1      -0.064   1.749  15.576  0.00  0.00    +0.016 A 
ATOM     17  C   UNL     1       0.017   0.590  14.833  0.00  0.00    +0.011 A 
ATOM     18 BR   UNL     1      -1.216   4.216  16.403  0.00  0.00    -0.050 Br
ENDBRANCH  10  12
ENDBRANCH   6   9
BRANCH   1  19
ATOM     19  S   UNL     1      -3.278  -1.503   6.685  0.00  0.00    -0.075 S 
BRANCH  19  20
ATOM     20  C   UNL     1      -3.875  -0.398   5.376  0.00  0.00    +0.173 C 
BRANCH  20  22
ATOM     21  N   UNL     1      -4.772  -0.602   3.080  0.00  0.00    -0.285 N 
ATOM     22  C   UNL     1      -4.293  -1.214   4.181  0.00  0.00    +0.227 C 
ATOM     23  O   UNL     1      -4.197  -2.423   4.209  0.00  0.00    -0.275 OA
ATOM     24  H   UNL     1      -4.797   0.367   3.037  0.00  0.00    +0.155 HD
BRANCH  21  31
ATOM     25  C   UNL     1      -6.787   0.517   1.412  0.00  0.00    +0.046 C 
ATOM     26  C   UNL     1      -6.217  -0.855   1.161  0.00  0.00    -0.028 A 
ATOM     27  C   UNL     1      -6.668  -1.607   0.093  0.00  0.00    +0.025 A 
ATOM     28  C   UNL     1      -6.144  -2.866  -0.137  0.00  0.00    +0.041 A 
ATOM     29  C   UNL     1      -5.168  -3.377   0.701  0.00  0.00    +0.022 A 
ATOM     30  C   UNL     1      -4.715  -2.630   1.770  0.00  0.00    +0.025 A 
ATOM     31  C   UNL     1      -5.234  -1.363   2.000  0.00  0.00    +0.036 A 
ATOM     32 CL   UNL     1      -6.714  -3.808  -1.480  0.00  0.00    -0.084 Cl
ENDBRANCH  21  31
ENDBRANCH  20  22
ENDBRANCH  19  20
ENDBRANCH   1  19
TORSDOF 6
