REMARK  Name = ZINC19357645
REMARK  1 active torsions:
REMARK  status: ('A' for Active; 'I' for Inactive)
REMARK    1  A    between atoms: C_4  and  C_8
REMARK                            x       y       z     vdW  Elec       q    Type
REMARK                         _______ _______ _______ _____ _____    ______ ____
ROOT
ATOM      1  C   UNL     1       3.715  -0.707  -0.038  0.00  0.00    +0.214 C 
ATOM      2  N   UNL     1       3.676  -1.834   0.911  0.00  0.00    -0.294 N 
ATOM      3  C   UNL     1       3.100  -3.020   0.540  0.00  0.00    +0.160 C 
ATOM      4  N   UNL     1       3.099  -3.421  -0.720  0.00  0.00    -0.302 N 
ATOM      5  C   UNL     1       3.631  -2.600  -1.657  0.00  0.00    +0.213 A 
ATOM      6  N   UNL     1       3.950  -1.285  -1.367  0.00  0.00    -0.286 N 
ATOM      7  C   UNL     1       4.480  -0.718  -2.502  0.00  0.00    +0.076 A 
ATOM      8  C   UNL     1       4.984   0.538  -2.814  0.00  0.00    +0.077 A 
ATOM      9  C   UNL     1       5.456   0.793  -4.087  0.00  0.00    +0.164 A 
ATOM     10  C   UNL     1       5.430  -0.200  -5.062  0.00  0.00    +0.164 A 
ATOM     11  C   UNL     1       4.930  -1.452  -4.770  0.00  0.00    +0.079 A 
ATOM     12  C   UNL     1       4.449  -1.724  -3.486  0.00  0.00    +0.095 A 
ATOM     13  N   UNL     1       3.909  -2.842  -2.911  0.00  0.00    -0.212 NA
ATOM     14  O   UNL     1       5.904   0.071  -6.314  0.00  0.00    -0.488 OA
ATOM     15  C   UNL     1       5.136   0.995  -7.087  0.00  0.00    +0.232 C 
ATOM     16  C   UNL     1       5.520   2.428  -6.753  0.00  0.00    +0.082 C 
ATOM     17  C   UNL     1       5.180   2.799  -5.318  0.00  0.00    +0.232 C 
ATOM     18  O   UNL     1       5.954   2.027  -4.397  0.00  0.00    -0.488 OA
ATOM     19  N   UNL     1       2.513  -3.807   1.493  0.00  0.00    -0.332 N 
ATOM     20  H   UNL     1       4.058  -1.736   1.798  0.00  0.00    +0.151 HD
ATOM     21  H   UNL     1       2.508  -3.523   2.421  0.00  0.00    +0.145 HD
ATOM     22  H   UNL     1       2.102  -4.649   1.241  0.00  0.00    +0.145 HD
ATOM     23  H   UNL     1       2.727  -4.282  -0.967  0.00  0.00    +0.171 HD
ENDROOT
BRANCH   1  27
ATOM     24  C   UNL     1      -0.017   1.378   0.010  0.00  0.00    +0.006 A 
ATOM     25  C   UNL     1       1.170   2.086   0.002  0.00  0.00    +0.039 A 
ATOM     26  C   UNL     1       2.379   1.412  -0.013  0.00  0.00    +0.133 A 
ATOM     27  C   UNL     1       2.399   0.028  -0.021  0.00  0.00    +0.064 A 
ATOM     28  C   UNL     1       1.210  -0.681  -0.013  0.00  0.00    +0.133 A 
ATOM     29  C   UNL     1       0.002  -0.004   0.002  0.00  0.00    +0.039 A 
ATOM     30  F   UNL     1       1.228  -2.031  -0.020  0.00  0.00    -0.205 F 
ATOM     31  F   UNL     1       3.539   2.104  -0.022  0.00  0.00    -0.205 F 
ENDBRANCH   1  27
TORSDOF 1
