REMARK  Name = ZINC19535743
REMARK  11 active torsions:
REMARK  status: ('A' for Active; 'I' for Inactive)
REMARK    1  A    between atoms: C_1  and  C_2
REMARK    2  A    between atoms: C_3  and  C_26
REMARK    3  A    between atoms: C_4  and  C_16
REMARK    4  A    between atoms: C_10  and  C_14
REMARK    5  A    between atoms: C_10  and  C_15
REMARK    6  A    between atoms: C_20  and  O_24
REMARK    7  A    between atoms: C_21  and  O_22
REMARK    8  A    between atoms: O_22  and  C_23
REMARK    9  A    between atoms: O_24  and  C_25
REMARK   10  A    between atoms: C_26  and  O_28
REMARK   11  A    between atoms: O_28  and  C_29
REMARK                            x       y       z     vdW  Elec       q    Type
REMARK                         _______ _______ _______ _____ _____    ______ ____
ROOT
ATOM      1  C   UNL     1       1.948   4.049   6.447  0.00  0.00    +0.061 C 
ATOM      2  C   UNL     1       2.105   3.904   4.955  0.00  0.00    +0.016 C 
ATOM      3  C   UNL     1       1.372   2.993   4.293  0.00  0.00    +0.065 C 
ATOM      4  C   UNL     1       1.493   2.828   2.806  0.00  0.00    +0.096 C 
ATOM      5  C   UNL     1       2.767   3.452   2.294  0.00  0.00    +0.024 C 
ATOM      6  C   UNL     1       3.446   4.346   3.044  0.00  0.00    +0.016 C 
ATOM      7  N   UNL     1       2.990   4.701   4.285  0.00  0.00    -0.321 N 
ATOM      8  C   UNL     1       4.723   4.973   2.539  0.00  0.00    +0.058 C 
ATOM      9  C   UNL     1       4.675   5.081   1.014  0.00  0.00    -0.023 C 
ATOM     10  C   UNL     1       4.475   3.676   0.434  0.00  0.00    +0.086 C 
ATOM     11  C   UNL     1       3.224   3.079   1.018  0.00  0.00    +0.162 C 
ATOM     12  O   UNL     1       2.598   2.260   0.376  0.00  0.00    -0.292 OA
ATOM     13  C   UNL     1       3.508   5.979   0.598  0.00  0.00    +0.011 C 
ATOM     14  C   UNL     1       5.988   5.673   0.498  0.00  0.00    +0.011 C 
ATOM     15  H   UNL     1       3.343   5.637   4.742  0.00  0.00    +0.152 HD
ENDROOT
BRANCH   4  16
ATOM     16  C   UNL     1       0.315   3.488   2.137  0.00  0.00    +0.010 A 
ATOM     17  C   UNL     1      -0.406   2.804   1.175  0.00  0.00    +0.008 A 
ATOM     18  C   UNL     1      -1.482   3.409   0.554  0.00  0.00    +0.004 A 
ATOM     19  C   UNL     1      -1.848   4.698   0.898  0.00  0.00    +0.049 A 
ATOM     20  C   UNL     1      -1.134   5.386   1.866  0.00  0.00    +0.162 A 
ATOM     21  C   UNL     1      -0.049   4.777   2.490  0.00  0.00    +0.166 A 
BRANCH  21  22
ATOM     22  O   UNL     1       0.655   5.448   3.440  0.00  0.00    -0.491 OA
ATOM     23  C   UNL     1       0.037   5.598   4.720  0.00  0.00    +0.277 C 
ENDBRANCH  21  22
BRANCH  20  24
ATOM     24  O   UNL     1      -1.492   6.653   2.205  0.00  0.00    -0.491 OA
ATOM     25  C   UNL     1      -2.616   7.214   1.523  0.00  0.00    +0.277 C 
ENDBRANCH  20  24
ENDBRANCH   4  16
BRANCH   3  26
ATOM     26  C   UNL     1       0.469   2.174   5.010  0.00  0.00    +0.338 C 
ATOM     27  O   UNL     1       0.361   2.298   6.216  0.00  0.00    -0.245 OA
BRANCH  26  28
ATOM     28  O   UNL     1      -0.273   1.255   4.357  0.00  0.00    -0.458 OA
BRANCH  28  29
ATOM     29  C   UNL     1      -1.165   0.463   5.145  0.00  0.00    +0.177 C 
ATOM     30  C   UNL     1      -0.470  -0.847   5.572  0.00  0.00    +0.044 C 
ATOM     31  C   UNL     1      -1.594  -1.911   5.507  0.00  0.00    +0.004 C 
ATOM     32  C   UNL     1      -2.398  -1.484   4.254  0.00  0.00    +0.004 C 
ATOM     33  C   UNL     1      -2.390   0.058   4.307  0.00  0.00    +0.044 C 
ENDBRANCH  28  29
ENDBRANCH  26  28
ENDBRANCH   3  26
TORSDOF 6
