REMARK  Name = ZINC63193951
REMARK  5 active torsions:
REMARK  status: ('A' for Active; 'I' for Inactive)
REMARK    1  A    between atoms: C_1  and  C_2
REMARK    2  A    between atoms: C_2  and  C_4
REMARK    3  A    between atoms: C_2  and  N_24
REMARK    4  A    between atoms: N_10  and  S_11
REMARK    5  A    between atoms: S_11  and  C_14
REMARK                            x       y       z     vdW  Elec       q    Type
REMARK                         _______ _______ _______ _____ _____    ______ ____
ROOT
ATOM      1  S   UNL     1      -0.201  -2.788   0.468  0.00  0.00    +0.063 S 
ATOM      2  O   UNL     1      -0.060  -3.880  -0.431  0.00  0.00    -0.153 OA
ATOM      3  O   UNL     1       0.790  -1.779   0.601  0.00  0.00    -0.153 OA
ENDROOT
BRANCH   1   4
ATOM      4  C   UNL     1      -0.431  -3.482   2.071  0.00  0.00    +0.132 A 
ATOM      5  C   UNL     1      -0.457  -4.788   2.381  0.00  0.00    +0.113 A 
ATOM      6  N   UNL     1      -0.656  -4.944   3.727  0.00  0.00    -0.344 N 
ATOM      7  H   UNL     1      -0.712  -5.797   4.186  0.00  0.00    +0.167 HD
ATOM      8  C   UNL     1      -0.767  -3.715   4.332  0.00  0.00    +0.140 A 
ATOM      9  C   UNL     1      -0.624  -2.745   3.321  0.00  0.00    +0.045 A 
ATOM     10  C   UNL     1      -0.689  -1.390   3.655  0.00  0.00    +0.015 A 
ATOM     11  C   UNL     1      -0.890  -1.057   4.981  0.00  0.00    +0.020 A 
ATOM     12  C   UNL     1      -1.019  -2.064   5.924  0.00  0.00    +0.113 A 
ATOM     13  N   UNL     1      -0.962  -3.336   5.587  0.00  0.00    -0.237 NA
ENDBRANCH   1   4
BRANCH   1  19
ATOM     14  C   UNL     1      -1.626  -0.571  -0.191  0.00  0.00    +0.065 C 
ATOM     15  C   UNL     1      -2.257  -0.313  -1.563  0.00  0.00    +0.019 C 
ATOM     16  C   UNL     1      -3.635  -0.977  -1.619  0.00  0.00    +0.003 C 
ATOM     17  C   UNL     1      -3.483  -2.488  -1.433  0.00  0.00    +0.017 C 
ATOM     18  C   UNL     1      -2.866  -2.771  -0.060  0.00  0.00    +0.110 C 
ATOM     19  N   UNL     1      -1.609  -2.019   0.061  0.00  0.00    -0.175 NA
BRANCH  14  21
ATOM     20  C   UNL     1       0.621  -0.716  -1.274  0.00  0.00    -0.013 C 
ATOM     21  C   UNL     1      -0.194  -0.032  -0.175  0.00  0.00    -0.059 C 
BRANCH  21  22
ATOM     22  N   UNL     1      -0.215   1.418  -0.411  0.00  0.00    +0.381 N 
ATOM     23  H   UNL     1      -0.688   1.610  -1.282  0.00  0.00    -0.090 HD
ATOM     24  H   UNL     1      -0.702   1.875   0.345  0.00  0.00    -0.090 HD
ATOM     25  H   UNL     1       0.732   1.764  -0.459  0.00  0.00    -0.090 HD
ENDBRANCH  21  22
ENDBRANCH  14  21
ENDBRANCH   1  19
TORSDOF 4
