REMARK  Name = ZINC08766267
REMARK  7 active torsions:
REMARK  status: ('A' for Active; 'I' for Inactive)
REMARK    1  A    between atoms: C_1  and  C_2
REMARK    2  A    between atoms: C_2  and  C_3
REMARK    3  A    between atoms: C_9  and  C_10
REMARK    4  A    between atoms: C_9  and  N_61
REMARK    5  A    between atoms: C_11  and  O_35
REMARK    6  A    between atoms: C_17  and  C_31
REMARK    7  A    between atoms: C_18  and  C_21
REMARK                            x       y       z     vdW  Elec       q    Type
REMARK                         _______ _______ _______ _____ _____    ______ ____
ROOT
ATOM      1  C   UNL     1       1.361   2.706  -1.598  0.00  0.00    +0.020 A 
ATOM      2  C   UNL     1       2.598   2.383  -1.066  0.00  0.00    +0.122 A 
ATOM      3  C   UNL     1       3.752   2.488  -1.839  0.00  0.00    +0.046 A 
ATOM      4  C   UNL     1       3.678   2.913  -3.135  0.00  0.00    +0.019 A 
ATOM      5  C   UNL     1       2.439   3.243  -3.685  0.00  0.00    +0.065 A 
ATOM      6  C   UNL     1       1.267   3.135  -2.916  0.00  0.00    +0.144 A 
ATOM      7  O   UNL     1       0.071   3.460  -3.446  0.00  0.00    -0.450 OA
ATOM      8  C   UNL     1      -0.082   3.883  -4.703  0.00  0.00    +0.219 A 
ATOM      9  C   UNL     1       0.964   4.029  -5.559  0.00  0.00    +0.077 A 
ATOM     10  C   UNL     1       2.320   3.706  -5.080  0.00  0.00    +0.201 A 
ATOM     11  O   UNL     1       3.296   3.818  -5.801  0.00  0.00    -0.286 OA
ENDROOT
BRANCH   9  12
ATOM     12  C   UNL     1       0.746   4.501  -6.945  0.00  0.00    -0.003 A 
ATOM     13  C   UNL     1       0.508   3.594  -7.964  0.00  0.00    +0.009 A 
ATOM     14  C   UNL     1       0.299   4.030  -9.267  0.00  0.00    +0.001 A 
ATOM     15  C   UNL     1       0.330   5.355  -9.580  0.00  0.00    +0.008 A 
ATOM     16  C   UNL     1       0.572   6.310  -8.578  0.00  0.00    -0.017 A 
ATOM     17  C   UNL     1       0.784   5.884  -7.244  0.00  0.00    -0.010 A 
ATOM     18  C   UNL     1       1.027   6.838  -6.245  0.00  0.00    +0.009 A 
ATOM     19  C   UNL     1       1.057   8.160  -6.569  0.00  0.00    +0.001 A 
ATOM     20  C   UNL     1       0.849   8.582  -7.880  0.00  0.00    +0.001 A 
ATOM     21  C   UNL     1       0.610   7.684  -8.875  0.00  0.00    +0.008 A 
ENDBRANCH   9  12
BRANCH   8  22
ATOM     22  C   UNL     1      -1.469   4.212  -5.192  0.00  0.00    +0.451 C 
ATOM     23  F   UNL     1      -1.755   3.451  -6.331  0.00  0.00    -0.163 F 
ATOM     24  F   UNL     1      -2.399   3.918  -4.189  0.00  0.00    -0.163 F 
ATOM     25  F   UNL     1      -1.541   5.573  -5.510  0.00  0.00    -0.163 F 
ENDBRANCH   8  22
BRANCH   2  26
ATOM     26  O   UNL     1       2.687   1.959   0.220  0.00  0.00    -0.506 OA
ATOM     27  H   UNL     1       2.609   1.000   0.325  0.00  0.00    +0.292 HD
ENDBRANCH   2  26
BRANCH   1  28
ATOM     28  C   UNL     1       0.120   2.587  -0.752  0.00  0.00    -0.035 C 
BRANCH  28  34
ATOM     29  C   UNL     1      -1.147   3.651   1.015  0.00  0.00    -0.068 C 
ATOM     30  C   UNL     1      -1.174   4.852   1.963  0.00  0.00    -0.015 C 
ATOM     31  C   UNL     1      -1.316   6.139   1.146  0.00  0.00    -0.003 C 
ATOM     32  C   UNL     1      -0.156   6.232   0.150  0.00  0.00    -0.019 C 
ATOM     33  C   UNL     1      -0.159   4.992  -0.746  0.00  0.00    -0.078 C 
ATOM     34  N   UNL     1       0.005   3.789   0.099  0.00  0.00    +0.384 N 
ATOM     35  H   UNL     1       0.863   3.888   0.655  0.00  0.00    -0.081 HD
BRANCH  29  37
ATOM     36  C   UNL     1      -2.183   2.199   2.764  0.00  0.00    +0.002 C 
ATOM     37  C   UNL     1      -0.985   2.365   1.826  0.00  0.00    -0.019 C 
ENDBRANCH  29  37
ENDBRANCH  28  34
ENDBRANCH   1  28
TORSDOF 6
