REMARK  Name = ZINC20829864
REMARK  7 active torsions:
REMARK  status: ('A' for Active; 'I' for Inactive)
REMARK    1  A    between atoms: C_4  and  O_24
REMARK    2  A    between atoms: C_5  and  C_7
REMARK    3  A    between atoms: C_10  and  S_13
REMARK    4  A    between atoms: N_11  and  N_12
REMARK    5  A    between atoms: S_13  and  C_14
REMARK    6  A    between atoms: C_14  and  C_15
REMARK    7  A    between atoms: C_18  and  C_20
REMARK                            x       y       z     vdW  Elec       q    Type
REMARK                         _______ _______ _______ _____ _____    ______ ____
ROOT
ATOM      1  C   UNL     1       0.002  -0.004   0.002  0.00  0.00    +0.185 A 
ATOM      2  N   UNL     1      -0.016   1.309   0.009  0.00  0.00    -0.127 NA
ATOM      3  N   UNL     1       1.186   1.764   0.000  0.00  0.00    -0.121 NA
ATOM      4  C   UNL     1       2.045   0.770  -0.013  0.00  0.00    +0.209 A 
ATOM      5  N   UNL     1       1.323  -0.390  -0.013  0.00  0.00    -0.224 N 
ENDROOT
BRANCH   1  10
ATOM      6  C   UNL     1      -2.104  -3.113   0.005  0.00  0.00    +0.001 A 
ATOM      7  C   UNL     1      -3.381  -2.578   0.021  0.00  0.00    +0.004 A 
ATOM      8  C   UNL     1      -3.563  -1.208   0.031  0.00  0.00    +0.046 A 
ATOM      9  C   UNL     1      -2.467  -0.361   0.030  0.00  0.00    +0.128 A 
ATOM     10  C   UNL     1      -1.174  -0.898   0.008  0.00  0.00    +0.062 A 
ATOM     11  C   UNL     1      -1.002  -2.283  -0.001  0.00  0.00    +0.015 A 
BRANCH   9  12
ATOM     12  O   UNL     1      -2.645   0.986   0.045  0.00  0.00    -0.506 OA
ATOM     13  H   UNL     1      -1.773   1.656   0.044  0.00  0.00    +0.292 HD
ENDBRANCH   9  12
ENDBRANCH   1  10
BRANCH   5  14
ATOM     14  N   UNL     1       1.810  -1.666  -0.024  0.00  0.00    -0.295 N 
ATOM     15  H   UNL     1       2.896  -1.840  -0.035  0.00  0.00    +0.163 HD
ATOM     16  H   UNL     1       1.116  -2.519  -0.022  0.00  0.00    +0.163 HD
ENDBRANCH   5  14
BRANCH   4  17
ATOM     17  S   UNL     1       3.802   0.907  -0.029  0.00  0.00    -0.075 S 
BRANCH  17  18
ATOM     18  C   UNL     1       3.977   2.709  -0.021  0.00  0.00    +0.175 C 
BRANCH  18  19
ATOM     19  C   UNL     1       5.439   3.071  -0.033  0.00  0.00    +0.228 A 
ATOM     20  N   UNL     1       6.177   3.263  -1.090  0.00  0.00    -0.111 NA
ATOM     21  N   UNL     1       7.376   3.558  -0.725  0.00  0.00    -0.103 NA
ATOM     22  C   UNL     1       7.443   3.564   0.576  0.00  0.00    +0.322 A 
ATOM     23  O   UNL     1       6.220   3.262   1.043  0.00  0.00    -0.416 OA
BRANCH  22  24
ATOM     24  C   UNL     1       8.666   3.861   1.404  0.00  0.00    +0.471 C 
ATOM     25  F   UNL     1       9.716   4.248   0.564  0.00  0.00    -0.162 F 
ATOM     26  F   UNL     1       8.382   4.896   2.301  0.00  0.00    -0.162 F 
ATOM     27  F   UNL     1       9.037   2.716   2.116  0.00  0.00    -0.162 F 
ENDBRANCH  22  24
ENDBRANCH  18  19
ENDBRANCH  17  18
ENDBRANCH   4  17
TORSDOF 7
