REMARK  Name = ZINC40781501
REMARK  5 active torsions:
REMARK  status: ('A' for Active; 'I' for Inactive)
REMARK    1  A    between atoms: C_1  and  C_2
REMARK    2  A    between atoms: C_4  and  C_22
REMARK    3  A    between atoms: C_8  and  N_21
REMARK    4  A    between atoms: C_9  and  N_13
REMARK    5  A    between atoms: N_13  and  C_14
REMARK                            x       y       z     vdW  Elec       q    Type
REMARK                         _______ _______ _______ _____ _____    ______ ____
ROOT
ATOM      1  C   UNL     1       1.591   1.120  -0.381  0.00  0.00    +0.067 C 
ATOM      2  C   UNL     1       0.918  -0.209  -0.151  0.00  0.00    +0.061 A 
ATOM      3  C   UNL     1      -0.101  -0.757  -0.938  0.00  0.00    +0.048 A 
ATOM      4  C   UNL     1      -0.438  -1.956  -0.408  0.00  0.00    +0.044 A 
ATOM      5  N   UNL     1       0.346  -2.158   0.682  0.00  0.00    -0.217 N 
ATOM      6  N   UNL     1       1.190  -1.048   0.815  0.00  0.00    -0.170 NA
ATOM      7  C   UNL     1       0.320  -3.277   1.519  0.00  0.00    +0.180 A 
ATOM      8  C   UNL     1       0.288  -3.124   2.905  0.00  0.00    +0.110 A 
ATOM      9  C   UNL     1       0.262  -4.277   3.696  0.00  0.00    +0.149 A 
ATOM     10  N   UNL     1       0.269  -5.466   3.101  0.00  0.00    -0.219 NA
ATOM     11  C   UNL     1       0.300  -5.565   1.787  0.00  0.00    +0.225 A 
ATOM     12  N   UNL     1       0.319  -4.504   1.007  0.00  0.00    -0.215 NA
ATOM     13  C   UNL     1      -1.492  -2.896  -0.933  0.00  0.00    +0.066 C 
ENDROOT
BRANCH   8  14
ATOM     14  N   UNL     1       0.282  -1.849   3.488  0.00  0.00    -0.352 N 
ATOM     15  H   UNL     1       0.211  -1.060   2.929  0.00  0.00    +0.143 HD
ATOM     16  H   UNL     1       0.348  -1.757   4.452  0.00  0.00    +0.143 HD
ENDBRANCH   8  14
BRANCH   9  17
ATOM     17  N   UNL     1       0.230  -4.181   5.082  0.00  0.00    -0.297 N 
ATOM     18  H   UNL     1       0.139  -3.314   5.507  0.00  0.00    +0.154 HD
BRANCH  17  19
ATOM     19  C   UNL     1       0.329  -5.335   5.865  0.00  0.00    +0.047 A 
ATOM     20  C   UNL     1       0.860  -6.500   5.324  0.00  0.00    +0.024 A 
ATOM     21  C   UNL     1       0.956  -7.638   6.100  0.00  0.00    +0.002 A 
ATOM     22  C   UNL     1       0.525  -7.620   7.414  0.00  0.00    +0.001 A 
ATOM     23  C   UNL     1      -0.004  -6.463   7.956  0.00  0.00    +0.017 A 
ATOM     24  C   UNL     1      -0.098  -5.319   7.187  0.00  0.00    +0.039 A 
ATOM     25 BR   UNL     1      -0.813  -3.734   7.932  0.00  0.00    -0.048 Br
ENDBRANCH  17  19
ENDBRANCH   9  17
TORSDOF 3
