REMARK  Name = ZINC66817655
REMARK  6 active torsions:
REMARK  status: ('A' for Active; 'I' for Inactive)
REMARK    1  A    between atoms: C_1  and  O_2
REMARK    2  A    between atoms: O_2  and  C_3
REMARK    3  A    between atoms: C_8  and  C_9
REMARK    4  A    between atoms: C_9  and  C_10
REMARK    5  A    between atoms: N_15  and  C_17
REMARK    6  A    between atoms: C_22  and  N_23
REMARK                            x       y       z     vdW  Elec       q    Type
REMARK                         _______ _______ _______ _____ _____    ______ ____
ROOT
ATOM      1  C   UNL     1       0.517  -3.023   1.441  0.00  0.00    +0.011 C 
ATOM      2  C   UNL     1      -0.477  -3.854   2.255  0.00  0.00    +0.007 C 
ATOM      3  C   UNL     1       0.025  -3.987   3.695  0.00  0.00    +0.019 C 
ATOM      4  C   UNL     1       1.375  -4.711   3.695  0.00  0.00    +0.105 C 
ATOM      5  N   UNL     1       2.295  -3.997   2.799  0.00  0.00    -0.328 N 
ATOM      6  C   UNL     1       1.873  -3.735   1.416  0.00  0.00    +0.109 C 
ENDROOT
BRANCH   5   7
ATOM      7  C   UNL     1       3.542  -3.577   3.251  0.00  0.00    +0.062 A 
ATOM      8  C   UNL     1       3.698  -2.288   3.736  0.00  0.00    +0.054 A 
ATOM      9  C   UNL     1       4.948  -1.872   4.188  0.00  0.00    +0.080 A 
ATOM     10  C   UNL     1       6.037  -2.773   4.142  0.00  0.00    +0.067 A 
ATOM     11  C   UNL     1       5.857  -4.066   3.649  0.00  0.00    +0.050 A 
ATOM     12  C   UNL     1       4.624  -4.459   3.216  0.00  0.00    +0.148 A 
ATOM     13  C   UNL     1       7.341  -2.302   4.625  0.00  0.00    +0.259 A 
ATOM     14  O   UNL     1       8.319  -3.028   4.612  0.00  0.00    -0.267 OA
ATOM     15  N   UNL     1       7.415  -1.032   5.084  0.00  0.00    -0.313 N 
ATOM     16  H   UNL     1       8.261  -0.687   5.410  0.00  0.00    +0.170 HD
ATOM     17  C   UNL     1       6.316  -0.233   5.091  0.00  0.00    +0.199 A 
ATOM     18  N   UNL     1       5.150  -0.620   4.671  0.00  0.00    -0.237 NA
BRANCH  12  19
ATOM     19  N   UNL     1       4.433  -5.833   2.699  0.00  0.00    +0.058 N 
ATOM     20  O   UNL     1       5.337  -6.633   2.759  0.00  0.00    -0.126 OA
ATOM     21  O   UNL     1       3.372  -6.155   2.217  0.00  0.00    -0.126 OA
ENDBRANCH  12  19
ENDBRANCH   5   7
BRANCH   1  22
ATOM     22  C   UNL     1      -0.002  -2.863   0.010  0.00  0.00    +0.044 C 
BRANCH  22  28
ATOM     23  C   UNL     1      -1.219  -0.671   0.018  0.00  0.00    +0.123 A 
ATOM     24  C   UNL     1      -2.393   0.069   0.026  0.00  0.00    +0.046 A 
ATOM     25  C   UNL     1      -3.614  -0.576   0.047  0.00  0.00    +0.004 A 
ATOM     26  C   UNL     1      -3.667  -1.958   0.059  0.00  0.00    +0.000 A 
ATOM     27  C   UNL     1      -2.499  -2.697   0.052  0.00  0.00    +0.007 A 
ATOM     28  C   UNL     1      -1.275  -2.057   0.025  0.00  0.00    -0.005 A 
BRANCH  23  30
ATOM     29  C   UNL     1      -0.034   1.391  -0.010  0.00  0.00    +0.277 C 
ATOM     30  O   UNL     1      -0.016  -0.038  -0.004  0.00  0.00    -0.495 OA
ENDBRANCH  23  30
ENDBRANCH  22  28
ENDBRANCH   1  22
TORSDOF 5
