REMARK  Name = ZINC10535005
REMARK  8 active torsions:
REMARK  status: ('A' for Active; 'I' for Inactive)
REMARK    1  A    between atoms: C_1  and  N_2
REMARK    2  A    between atoms: N_2  and  C_3
REMARK    3  A    between atoms: C_6  and  C_11
REMARK    4  A    between atoms: C_11  and  S_12
REMARK    5  A    between atoms: S_12  and  C_13
REMARK    6  A    between atoms: C_16  and  C_25
REMARK    7  A    between atoms: N_17  and  C_18
REMARK    8  A    between atoms: C_18  and  C_19
REMARK                            x       y       z     vdW  Elec       q    Type
REMARK                         _______ _______ _______ _____ _____    ______ ____
ROOT
ATOM      1  C   UNL     1       2.141   2.486  -0.934  0.00  0.00    +0.170 A 
ATOM      2  N   UNL     1       3.312   2.830  -0.445  0.00  0.00    -0.230 NA
ATOM      3  C   UNL     1       3.307   2.671   0.884  0.00  0.00    +0.140 A 
ATOM      4  C   UNL     1       2.082   2.213   1.253  0.00  0.00    +0.070 A 
ATOM      5  N   UNL     1       1.339   2.090   0.092  0.00  0.00    -0.314 N 
ENDROOT
BRANCH   4   6
ATOM      6  C   UNL     1       1.632   1.904   2.627  0.00  0.00    +0.000 A 
ATOM      7  C   UNL     1       0.447   1.195   2.833  0.00  0.00    +0.011 A 
ATOM      8  C   UNL     1       0.035   0.904   4.117  0.00  0.00    +0.020 A 
ATOM      9  C   UNL     1       0.787   1.325   5.200  0.00  0.00    +0.041 A 
ATOM     10  C   UNL     1       1.961   2.033   5.002  0.00  0.00    +0.020 A 
ATOM     11  C   UNL     1       2.386   2.325   3.723  0.00  0.00    +0.011 A 
ATOM     12 CL   UNL     1       0.258   0.962   6.813  0.00  0.00    -0.084 Cl
ENDBRANCH   4   6
BRANCH   1  13
ATOM     13  S   UNL     1       1.686   2.531  -2.636  0.00  0.00    -0.080 S 
BRANCH  13  14
ATOM     14  C   UNL     1       3.228   3.146  -3.358  0.00  0.00    +0.153 C 
BRANCH  14  20
ATOM     15  C   UNL     1       1.698   6.822  -6.375  0.00  0.00    +0.132 C 
ATOM     16  N   UNL     1       2.031   5.691  -7.245  0.00  0.00    -0.306 N 
ATOM     17  C   UNL     1       1.877   5.813  -8.696  0.00  0.00    +0.132 C 
ATOM     18  C   UNL     1       2.490   4.510  -6.696  0.00  0.00    +0.222 A 
ATOM     19  N   UNL     1       2.631   4.398  -5.377  0.00  0.00    -0.198 NA
ATOM     20  C   UNL     1       3.070   3.268  -4.851  0.00  0.00    +0.146 A 
ATOM     21  N   UNL     1       3.375   2.247  -5.632  0.00  0.00    -0.199 NA
ATOM     22  C   UNL     1       3.233   2.349  -6.952  0.00  0.00    +0.217 A 
ATOM     23  N   UNL     1       2.792   3.484  -7.484  0.00  0.00    -0.181 NA
ATOM     24  N   UNL     1       3.547   1.280  -7.766  0.00  0.00    -0.327 N 
ATOM     25  H   UNL     1       3.446   1.357  -8.728  0.00  0.00    +0.145 HD
ATOM     26  H   UNL     1       3.869   0.453  -7.377  0.00  0.00    +0.145 HD
ENDBRANCH  14  20
ENDBRANCH  13  14
ENDBRANCH   1  13
BRANCH   5  27
ATOM     27  C   UNL     1      -0.047   1.627  -0.013  0.00  0.00    +0.159 C 
BRANCH  27  28
ATOM     28  C   UNL     1      -0.062   0.172  -0.404  0.00  0.00    -0.028 A 
ATOM     29  C   UNL     1      -0.273  -0.188  -1.722  0.00  0.00    +0.005 A 
ATOM     30  C   UNL     1      -0.282  -1.522  -2.082  0.00  0.00    +0.000 A 
ATOM     31  C   UNL     1      -0.092  -2.498  -1.122  0.00  0.00    +0.000 A 
ATOM     32  C   UNL     1       0.113  -2.139   0.197  0.00  0.00    +0.000 A 
ATOM     33  C   UNL     1       0.128  -0.804   0.556  0.00  0.00    +0.005 A 
ENDBRANCH  27  28
ENDBRANCH   5  27
TORSDOF 6
