REMARK  Name = ZINC39143092
REMARK  4 active torsions:
REMARK  status: ('A' for Active; 'I' for Inactive)
REMARK    1  A    between atoms: C_1  and  C_2
REMARK    2  A    between atoms: C_2  and  C_3
REMARK    3  A    between atoms: C_3  and  C_4
REMARK    4  A    between atoms: C_11  and  C_20
REMARK                            x       y       z     vdW  Elec       q    Type
REMARK                         _______ _______ _______ _____ _____    ______ ____
ROOT
ATOM      1  C   UNL     1      -1.413  -2.041   0.005  0.00  0.00    +0.124 C 
ATOM      2  N   UNL     1      -0.250  -2.646  -0.004  0.00  0.00    -0.161 NA
ATOM      3  C   UNL     1      -0.128  -3.978  -0.016  0.00  0.00    +0.271 C 
ATOM      4  O   UNL     1       0.971  -4.508  -0.019  0.00  0.00    -0.268 OA
ATOM      5  C   UNL     1      -1.381  -4.797  -0.025  0.00  0.00    +0.071 C 
ATOM      6  C   UNL     1      -1.498  -6.133  -0.112  0.00  0.00    -0.037 C 
ATOM      7  C   UNL     1      -0.345  -7.083  -0.426  0.00  0.00    +0.064 C 
ATOM      8  C   UNL     1      -0.809  -7.940  -1.615  0.00  0.00    +0.119 C 
ATOM      9  O   UNL     1      -2.098  -8.490  -1.355  0.00  0.00    -0.375 OA
ATOM     10  C   UNL     1      -3.166  -7.545  -1.219  0.00  0.00    +0.179 C 
ATOM     11  C   UNL     1      -2.905  -6.706   0.037  0.00  0.00    +0.105 C 
ATOM     12  S   UNL     1      -3.934  -5.191   0.011  0.00  0.00    -0.095 S 
ATOM     13  C   UNL     1      -2.622  -3.995  -0.002  0.00  0.00    +0.112 C 
ATOM     14  N   UNL     1      -2.570  -2.684   0.012  0.00  0.00    -0.228 NA
ATOM     15  C   UNL     1      -0.877  -7.068  -2.871  0.00  0.00    +0.038 C 
ENDROOT
BRANCH   1  16
ATOM     16  C   UNL     1      -1.433  -0.534   0.013  0.00  0.00    +0.073 C 
BRANCH  16  18
ATOM     17  C   UNL     1      -0.019   1.526   0.010  0.00  0.00    +0.004 C 
ATOM     18  C   UNL     1       0.002  -0.004   0.002  0.00  0.00    +0.004 C 
ENDBRANCH  16  18
ENDBRANCH   1  16
TORSDOF 2
