REMARK  Name = ZINC45678981
REMARK  10 active torsions:
REMARK  status: ('A' for Active; 'I' for Inactive)
REMARK    1  A    between atoms: C_1  and  C_2
REMARK    2  A    between atoms: C_6  and  O_9
REMARK    3  A    between atoms: C_7  and  C_8
REMARK    4  A    between atoms: O_9  and  C_10
REMARK    5  A    between atoms: C_10  and  C_12
REMARK    6  A    between atoms: C_10  and  C_13
REMARK    7  A    between atoms: N_15  and  N_16
REMARK    8  A    between atoms: N_19  and  C_20
REMARK    9  A    between atoms: C_20  and  C_21
REMARK   10  A    between atoms: C_24  and  C_26
REMARK                            x       y       z     vdW  Elec       q    Type
REMARK                         _______ _______ _______ _____ _____    ______ ____
ROOT
ATOM      1  C   UNL     1       0.582  -4.814   3.503  0.00  0.00    +0.270 C 
ATOM      2  O   UNL     1       0.977  -4.104   4.403  0.00  0.00    -0.270 OA
ATOM      3  N   UNL     1       0.701  -6.153   3.599  0.00  0.00    -0.230 N 
ATOM      4  H   UNL     1       0.385  -6.721   2.879  0.00  0.00    +0.173 HD
ENDROOT
BRANCH   3   5
ATOM      5  N   UNL     1       1.280  -6.725   4.739  0.00  0.00    -0.218 N 
ATOM      6  C   UNL     1       1.399  -8.064   4.835  0.00  0.00    +0.316 C 
ATOM      7  O   UNL     1       1.903  -8.561   5.824  0.00  0.00    -0.251 OA
ATOM      8  N   UNL     1       0.961  -8.853   3.834  0.00  0.00    -0.294 N 
ATOM      9  H   UNL     1       1.597  -6.157   5.459  0.00  0.00    +0.174 HD
ATOM     10  H   UNL     1       0.559  -8.457   3.045  0.00  0.00    +0.151 HD
BRANCH   8  11
ATOM     11  C   UNL     1       1.090 -10.309   3.938  0.00  0.00    +0.148 C 
BRANCH  11  12
ATOM     12  C   UNL     1       0.527 -10.953   2.697  0.00  0.00    +0.007 A 
ATOM     13  C   UNL     1       1.158 -11.272   1.540  0.00  0.00    +0.013 A 
ATOM     14  C   UNL     1       0.433 -11.865   0.524  0.00  0.00    +0.011 A 
ATOM     15  C   UNL     1      -0.886 -12.111   0.714  0.00  0.00    -0.013 A 
ATOM     16  S   UNL     1      -1.140 -11.502   2.373  0.00  0.00    -0.097 S 
ATOM     17  C   UNL     1      -1.880 -12.740  -0.229  0.00  0.00    +0.051 C 
ENDBRANCH  11  12
ENDBRANCH   8  11
ENDBRANCH   3   5
BRANCH   1  18
ATOM     18  C   UNL     1      -0.043  -4.199   2.277  0.00  0.00    +0.257 C 
ATOM     19  C   UNL     1      -1.514  -4.611   2.192  0.00  0.00    +0.062 C 
BRANCH  18  20
ATOM     20  O   UNL     1       0.050  -2.776   2.358  0.00  0.00    -0.480 OA
BRANCH  20  26
ATOM     21  C   UNL     1       0.438   1.473  -0.013  0.00  0.00    +0.044 C 
ATOM     22  C   UNL     1       0.221  -0.018  -0.009  0.00  0.00    -0.044 A 
ATOM     23  C   UNL     1       0.006  -0.688  -1.200  0.00  0.00    +0.004 A 
ATOM     24  C   UNL     1      -0.194  -2.056  -1.200  0.00  0.00    +0.004 A 
ATOM     25  C   UNL     1      -0.179  -2.757  -0.009  0.00  0.00    +0.046 A 
ATOM     26  C   UNL     1       0.036  -2.088   1.186  0.00  0.00    +0.125 A 
ATOM     27  C   UNL     1       0.242  -0.716   1.183  0.00  0.00    -0.006 A 
ATOM     28  C   UNL     1       0.482   0.014   2.479  0.00  0.00    +0.048 C 
ENDBRANCH  20  26
ENDBRANCH  18  20
ENDBRANCH   1  18
TORSDOF 6
