REMARK  Name = ZINC60099260
REMARK  8 active torsions:
REMARK  status: ('A' for Active; 'I' for Inactive)
REMARK    1  A    between atoms: C_1  and  C_2
REMARK    2  A    between atoms: C_2  and  C_19
REMARK    3  A    between atoms: C_3  and  C_4
REMARK    4  A    between atoms: N_6  and  C_7
REMARK    5  A    between atoms: C_7  and  C_8
REMARK    6  A    between atoms: C_8  and  C_9
REMARK    7  A    between atoms: C_12  and  S_15
REMARK    8  A    between atoms: S_15  and  N_18
REMARK                            x       y       z     vdW  Elec       q    Type
REMARK                         _______ _______ _______ _____ _____    ______ ____
ROOT
ATOM      1  C   UNL     1      -2.433   0.832  -1.845  0.00  0.00    +0.237 C 
ATOM      2  O   UNL     1      -3.141   0.477  -2.767  0.00  0.00    -0.271 OA
ATOM      3  N   UNL     1      -2.196   2.143  -1.643  0.00  0.00    -0.312 N 
ATOM      4  H   UNL     1      -1.631   2.426  -0.907  0.00  0.00    +0.149 HD
ENDROOT
BRANCH   1   7
ATOM      5  C   UNL     1      -1.410  -2.578  -0.691  0.00  0.00    +0.040 C 
ATOM      6  C   UNL     1      -2.330  -1.403  -0.906  0.00  0.00    -0.062 C 
ATOM      7  C   UNL     1      -1.835  -0.170  -0.949  0.00  0.00    +0.067 C 
BRANCH   6   8
ATOM      8  C   UNL     1      -3.811  -1.627  -1.071  0.00  0.00    -0.007 C 
ATOM      9  C   UNL     1      -4.558  -0.321  -0.792  0.00  0.00    +0.014 C 
ATOM     10  C   UNL     1      -6.062  -0.548  -0.961  0.00  0.00    -0.010 C 
ATOM     11  C   UNL     1      -6.352  -1.006  -2.392  0.00  0.00    +0.007 C 
ATOM     12  C   UNL     1      -5.604  -2.311  -2.671  0.00  0.00    -0.010 C 
ATOM     13  C   UNL     1      -4.101  -2.084  -2.503  0.00  0.00    +0.014 C 
ATOM     14  C   UNL     1      -6.071  -3.386  -1.688  0.00  0.00    +0.007 C 
ATOM     15  C   UNL     1      -5.782  -2.929  -0.257  0.00  0.00    -0.010 C 
ATOM     16  C   UNL     1      -6.529  -1.623   0.023  0.00  0.00    +0.007 C 
ATOM     17  C   UNL     1      -4.278  -2.702  -0.088  0.00  0.00    +0.014 C 
ENDBRANCH   6   8
ENDBRANCH   1   7
BRANCH   3  18
ATOM     18  C   UNL     1      -2.792   3.141  -2.536  0.00  0.00    +0.109 C 
BRANCH  18  19
ATOM     19  C   UNL     1      -2.367   4.542  -2.090  0.00  0.00    +0.054 C 
BRANCH  19  20
ATOM     20  C   UNL     1      -2.980   5.568  -3.008  0.00  0.00    -0.046 A 
ATOM     21  C   UNL     1      -2.304   5.970  -4.144  0.00  0.00    +0.005 A 
ATOM     22  C   UNL     1      -2.866   6.912  -4.986  0.00  0.00    +0.029 A 
ATOM     23  C   UNL     1      -4.104   7.450  -4.692  0.00  0.00    +0.105 A 
ATOM     24  C   UNL     1      -4.781   7.047  -3.556  0.00  0.00    +0.029 A 
ATOM     25  C   UNL     1      -4.221   6.103  -2.716  0.00  0.00    +0.005 A 
BRANCH  23  26
ATOM     26  S   UNL     1      -4.820   8.651  -5.764  0.00  0.00    +0.056 S 
ATOM     27  O   UNL     1      -5.739   9.400  -4.980  0.00  0.00    -0.153 OA
ATOM     28  O   UNL     1      -3.746   9.259  -6.468  0.00  0.00    -0.153 OA
BRANCH  26  29
ATOM     29  N   UNL     1      -5.717   7.830  -6.888  0.00  0.00    -0.204 NA
ATOM     30  H   UNL     1      -6.504   8.244  -7.278  0.00  0.00    +0.144 HD
ATOM     31  H   UNL     1      -5.457   6.936  -7.158  0.00  0.00    +0.144 HD
ENDBRANCH  26  29
ENDBRANCH  23  26
ENDBRANCH  19  20
ENDBRANCH  18  19
ENDBRANCH   3  18
TORSDOF 7
