REMARK  Name = ZINC01631607
REMARK  18 active torsions:
REMARK  status: ('A' for Active; 'I' for Inactive)
REMARK    1  A    between atoms: C_1  and  C_2
REMARK    2  A    between atoms: C_2  and  C_3
REMARK    3  A    between atoms: C_2  and  C_4
REMARK    4  A    between atoms: C_8  and  C_30
REMARK    5  A    between atoms: C_9  and  N_10
REMARK    6  A    between atoms: N_10  and  C_11
REMARK    7  A    between atoms: C_11  and  N_13
REMARK    8  A    between atoms: N_13  and  N_14
REMARK    9  A    between atoms: C_17  and  C_26
REMARK   10  A    between atoms: C_20  and  C_22
REMARK   11  A    between atoms: C_22  and  C_23
REMARK   12  A    between atoms: C_22  and  C_24
REMARK   13  A    between atoms: C_22  and  C_25
REMARK   14  A    between atoms: C_26  and  C_27
REMARK   15  A    between atoms: C_26  and  C_28
REMARK   16  A    between atoms: C_26  and  C_29
REMARK   17  A    between atoms: C_30  and  C_31
REMARK   18  A    between atoms: C_30  and  C_32
REMARK                            x       y       z     vdW  Elec       q    Type
REMARK                         _______ _______ _______ _____ _____    ______ ____
ROOT
ATOM      1  N   UNL     1      -3.167   1.218  -0.829  0.00  0.00    -0.218 N 
ATOM      2  H   UNL     1      -2.972   1.839  -1.549  0.00  0.00    +0.176 HD
ENDROOT
BRANCH   1   3
ATOM      3  N   UNL     1      -2.288   1.002   0.091  0.00  0.00    -0.181 NA
ATOM      4  C   UNL     1      -1.160   1.700   0.109  0.00  0.00    +0.083 C 
ATOM      5  C   UNL     1      -0.245   1.543   1.180  0.00  0.00    +0.037 C 
ATOM      6  C   UNL     1       0.908   2.253   1.193  0.00  0.00    +0.007 C 
ATOM      7  C   UNL     1       1.197   3.152   0.143  0.00  0.00    +0.186 C 
ATOM      8  O   UNL     1       2.239   3.792   0.157  0.00  0.00    -0.287 OA
ATOM      9  C   UNL     1       0.285   3.314  -0.922  0.00  0.00    +0.007 C 
ATOM     10  C   UNL     1      -0.870   2.608  -0.940  0.00  0.00    +0.037 C 
BRANCH   9  11
ATOM     11  C   UNL     1       0.597   4.276  -2.040  0.00  0.00    -0.009 C 
ATOM     12  C   UNL     1      -0.545   4.262  -3.058  0.00  0.00    +0.015 C 
ATOM     13  C   UNL     1       0.756   5.686  -1.471  0.00  0.00    +0.015 C 
ATOM     14  C   UNL     1       1.897   3.853  -2.727  0.00  0.00    +0.015 C 
ENDBRANCH   9  11
BRANCH   6  15
ATOM     15  C   UNL     1       1.884   2.082   2.328  0.00  0.00    -0.009 C 
ATOM     16  C   UNL     1       1.335   1.058   3.323  0.00  0.00    +0.015 C 
ATOM     17  C   UNL     1       3.225   1.592   1.778  0.00  0.00    +0.015 C 
ATOM     18  C   UNL     1       2.083   3.424   3.035  0.00  0.00    +0.015 C 
ENDBRANCH   6  15
ENDBRANCH   1   3
BRANCH   1  19
ATOM     19  C   UNL     1      -4.355   0.583  -0.790  0.00  0.00    +0.154 C 
ATOM     20  S   UNL     1      -5.520   0.871  -2.010  0.00  0.00    -0.017 S 
BRANCH  19  21
ATOM     21  N   UNL     1      -4.625  -0.278   0.210  0.00  0.00    -0.295 N 
ATOM     22  H   UNL     1      -3.994  -0.391   0.938  0.00  0.00    +0.154 HD
BRANCH  21  28
ATOM     23  C   UNL     1      -6.999  -0.423   0.629  0.00  0.00    -0.023 A 
ATOM     24  C   UNL     1      -8.175  -1.148   0.613  0.00  0.00    +0.006 A 
ATOM     25  C   UNL     1      -8.173  -2.461   0.178  0.00  0.00    +0.001 A 
ATOM     26  C   UNL     1      -6.996  -3.051  -0.246  0.00  0.00    +0.006 A 
ATOM     27  C   UNL     1      -5.818  -2.330  -0.237  0.00  0.00    -0.023 A 
ATOM     28  C   UNL     1      -5.816  -1.011   0.199  0.00  0.00    +0.040 A 
BRANCH  23  30
ATOM     29  C   UNL     1      -8.023   1.812   0.305  0.00  0.00    +0.012 C 
ATOM     30  C   UNL     1      -7.001   1.006   1.108  0.00  0.00    +0.015 C 
ATOM     31  C   UNL     1      -7.371   1.046   2.592  0.00  0.00    +0.012 C 
ENDBRANCH  23  30
BRANCH  27  32
ATOM     32  C   UNL     1      -4.536  -2.974  -0.698  0.00  0.00    +0.015 C 
ATOM     33  C   UNL     1      -4.232  -4.190   0.178  0.00  0.00    +0.012 C 
ATOM     34  C   UNL     1      -4.685  -3.419  -2.154  0.00  0.00    +0.012 C 
ENDBRANCH  27  32
ENDBRANCH  21  28
ENDBRANCH  19  21
ENDBRANCH   1  19
TORSDOF 8
