REMARK  Name = ZINC44776289
REMARK  6 active torsions:
REMARK  status: ('A' for Active; 'I' for Inactive)
REMARK    1  A    between atoms: C_1  and  C_2
REMARK    2  A    between atoms: C_3  and  N_9
REMARK    3  A    between atoms: C_4  and  C_8
REMARK    4  A    between atoms: C_10  and  C_12
REMARK    5  A    between atoms: C_12  and  C_18
REMARK    6  A    between atoms: C_18  and  N_20
REMARK                            x       y       z     vdW  Elec       q    Type
REMARK                         _______ _______ _______ _____ _____    ______ ____
ROOT
ATOM      1  N   UNL     1       0.106   0.134  -2.053  0.00  0.00    -0.282 N 
ATOM      2  C   UNL     1       0.613  -0.419  -3.172  0.00  0.00    +0.230 C 
ATOM      3  O   UNL     1       0.888  -1.601  -3.194  0.00  0.00    -0.274 OA
ATOM      4  H   UNL     1      -0.191   1.057  -2.060  0.00  0.00    +0.155 HD
ENDROOT
BRANCH   1   7
ATOM      5  C   UNL     1       0.990   1.098   0.733  0.00  0.00    +0.067 C 
ATOM      6  C   UNL     1       0.386  -0.234   0.368  0.00  0.00    +0.054 A 
ATOM      7  C   UNL     1       0.006  -0.629  -0.874  0.00  0.00    +0.077 A 
ATOM      8  C   UNL     1      -0.504  -1.931  -0.773  0.00  0.00    +0.081 A 
ATOM      9  N   UNL     1      -0.433  -2.305   0.479  0.00  0.00    -0.177 NA
ATOM     10  N   UNL     1       0.128  -1.259   1.221  0.00  0.00    -0.280 N 
ATOM     11  H   UNL     1       0.301  -1.264   2.176  0.00  0.00    +0.189 HD
ATOM     12  C   UNL     1      -1.040  -2.759  -1.912  0.00  0.00    +0.069 C 
ENDBRANCH   1   7
BRANCH   2  13
ATOM     13  C   UNL     1       0.840   0.430  -4.396  0.00  0.00    +0.091 C 
ATOM     14  C   UNL     1       1.643   1.674  -4.012  0.00  0.00    +0.023 C 
ATOM     15  C   UNL     1       2.993   1.250  -3.429  0.00  0.00    +0.001 C 
ATOM     16  C   UNL     1       3.769   0.444  -4.473  0.00  0.00    +0.000 C 
ATOM     17  C   UNL     1       2.965  -0.801  -4.856  0.00  0.00    +0.001 C 
ATOM     18  C   UNL     1       1.616  -0.376  -5.440  0.00  0.00    +0.023 C 
BRANCH  13  19
ATOM     19  C   UNL     1      -0.489   0.848  -4.971  0.00  0.00    +0.061 C 
ATOM     20  S   UNL     1      -0.947   0.306  -6.404  0.00  0.00    -0.040 S 
BRANCH  19  21
ATOM     21  N   UNL     1      -1.292   1.678  -4.277  0.00  0.00    -0.355 N 
ATOM     22  H   UNL     1      -0.985   2.065  -3.442  0.00  0.00    +0.143 HD
ATOM     23  H   UNL     1      -2.177   1.890  -4.612  0.00  0.00    +0.143 HD
ENDBRANCH  19  21
ENDBRANCH  13  19
ENDBRANCH   2  13
TORSDOF 4
