REMARK  Name = ZINC09111218
REMARK  4 active torsions:
REMARK  status: ('A' for Active; 'I' for Inactive)
REMARK    1  A    between atoms: C_4  and  S_7
REMARK    2  A    between atoms: S_7  and  C_8
REMARK    3  A    between atoms: C_13  and  N_14
REMARK    4  A    between atoms: C_21  and  O_23
REMARK                            x       y       z     vdW  Elec       q    Type
REMARK                         _______ _______ _______ _____ _____    ______ ____
ROOT
ATOM      1  N   UNL     1      -2.195   8.651  -1.641  0.00  0.00    -0.327 N 
ATOM      2  C   UNL     1      -1.266   7.785  -2.169  0.00  0.00    +0.180 C 
ATOM      3  N   UNL     1      -0.496   7.006  -1.331  0.00  0.00    -0.296 N 
ATOM      4  C   UNL     1       0.441   6.132  -1.864  0.00  0.00    +0.234 A 
ATOM      5  N   UNL     1       1.172   5.392  -1.047  0.00  0.00    -0.217 NA
ATOM      6  C   UNL     1       2.082   4.542  -1.515  0.00  0.00    +0.053 A 
ATOM      7  C   UNL     1       2.255   4.434  -2.874  0.00  0.00    +0.035 A 
ATOM      8  C   UNL     1       1.470   5.230  -3.713  0.00  0.00    +0.220 A 
ATOM      9  N   UNL     1       0.583   6.058  -3.178  0.00  0.00    -0.177 NA
ATOM     10  C   UNL     1       3.252   3.496  -3.497  0.00  0.00    +0.042 C 
ATOM     11  C   UNL     1       4.287   3.053  -2.462  0.00  0.00    +0.005 C 
ATOM     12  C   UNL     1       3.549   2.549  -1.216  0.00  0.00    +0.006 C 
ATOM     13  C   UNL     1       2.888   3.741  -0.528  0.00  0.00    +0.056 C 
ATOM     14  H   UNL     1      -2.247   8.781  -0.681  0.00  0.00    +0.169 HD
ATOM     15  H   UNL     1      -1.515   8.289  -4.126  0.00  0.00    +0.159 HD
ATOM     16  H   UNL     1      -0.609   7.069  -0.370  0.00  0.00    +0.172 HD
ATOM     17  N   UNL     1      -1.071   7.645  -3.471  0.00  0.00    -0.371 N 
ATOM     18  H   UNL     1      -0.473   6.888  -3.823  0.00  0.00    +0.159 HD
ENDROOT
BRANCH   1  24
ATOM     19  C   UNL     1      -3.490  10.633  -2.155  0.00  0.00    +0.036 A 
ATOM     20  C   UNL     1      -4.350  11.318  -3.003  0.00  0.00    +0.017 A 
ATOM     21  C   UNL     1      -4.791  10.721  -4.168  0.00  0.00    +0.001 A 
ATOM     22  C   UNL     1      -4.374   9.444  -4.497  0.00  0.00    +0.002 A 
ATOM     23  C   UNL     1      -3.514   8.756  -3.661  0.00  0.00    +0.027 A 
ATOM     24  C   UNL     1      -3.066   9.347  -2.490  0.00  0.00    +0.056 A 
BRANCH  19  25
ATOM     25  S   UNL     1      -2.931  11.389  -0.665  0.00  0.00    -0.087 S 
BRANCH  25  29
ATOM     26  C   UNL     1      -4.556  15.610  -0.899  0.00  0.00    +0.000 A 
ATOM     27  C   UNL     1      -5.271  14.631  -0.232  0.00  0.00    +0.001 A 
ATOM     28  C   UNL     1      -4.779  13.343  -0.159  0.00  0.00    +0.015 A 
ATOM     29  C   UNL     1      -3.563  13.031  -0.756  0.00  0.00    +0.013 A 
ATOM     30  C   UNL     1      -2.845  14.018  -1.420  0.00  0.00    +0.015 A 
ATOM     31  C   UNL     1      -3.346  15.302  -1.494  0.00  0.00    +0.001 A 
ENDBRANCH  25  29
ENDBRANCH  19  25
ENDBRANCH   1  24
BRANCH   8  32
ATOM     32  O   UNL     1       1.612   5.155  -5.059  0.00  0.00    -0.492 OA
ATOM     33  H   UNL     1       1.041   4.498  -5.479  0.00  0.00    +0.294 HD
ENDBRANCH   8  32
TORSDOF 4
