REMARK  Name = ZINC67157799
REMARK  10 active torsions:
REMARK  status: ('A' for Active; 'I' for Inactive)
REMARK    1  A    between atoms: C_1  and  C_2
REMARK    2  A    between atoms: C_2  and  C_3
REMARK    3  A    between atoms: C_2  and  C_4
REMARK    4  A    between atoms: C_2  and  C_5
REMARK    5  A    between atoms: C_8  and  C_11
REMARK    6  A    between atoms: C_11  and  C_12
REMARK    7  A    between atoms: C_12  and  C_13
REMARK    8  A    between atoms: C_13  and  C_14
REMARK    9  A    between atoms: C_19  and  N_22
REMARK   10  A    between atoms: C_26  and  C_28
REMARK                            x       y       z     vdW  Elec       q    Type
REMARK                         _______ _______ _______ _____ _____    ______ ____
ROOT
ATOM      1  C   UNL     1       3.036  -0.350  -8.252  0.00  0.00    +0.216 C 
ATOM      2  O   UNL     1       2.390   0.657  -8.058  0.00  0.00    -0.276 OA
ATOM      3  N   UNL     1       3.583  -0.577  -9.463  0.00  0.00    -0.302 N 
ATOM      4  C   UNL     1       4.363  -1.796  -9.716  0.00  0.00    +0.106 C 
ATOM      5  C   UNL     1       5.731  -1.398 -10.277  0.00  0.00    +0.004 C 
ATOM      6  C   UNL     1       5.535  -0.511 -11.509  0.00  0.00    -0.065 C 
ATOM      7  C   UNL     1       4.788   0.763 -11.108  0.00  0.00    +0.004 C 
ATOM      8  C   UNL     1       3.404   0.387 -10.557  0.00  0.00    +0.106 C 
ENDROOT
BRANCH   6   9
ATOM      9  N   UNL     1       6.845  -0.154 -12.069  0.00  0.00    +0.389 N 
ATOM     10  C   UNL     1       7.548  -1.373 -12.545  0.00  0.00    -0.077 C 
ATOM     11  C   UNL     1       8.571  -0.817 -13.567  0.00  0.00    -0.020 C 
ATOM     12  C   UNL     1       7.786   0.324 -14.256  0.00  0.00    -0.008 C 
ATOM     13  C   UNL     1       6.673   0.704 -13.261  0.00  0.00    +0.019 C 
ATOM     14  H   UNL     1       7.403   0.321 -11.376  0.00  0.00    -0.080 HD
BRANCH  13  15
ATOM     15  C   UNL     1       6.805   2.154 -12.873  0.00  0.00    +0.197 C 
ATOM     16  O   UNL     1       7.021   2.456 -11.719  0.00  0.00    -0.278 OA
ATOM     17  N   UNL     1       6.683   3.116 -13.810  0.00  0.00    -0.331 N 
ATOM     18  H   UNL     1       6.510   2.875 -14.733  0.00  0.00    +0.145 HD
ATOM     19  H   UNL     1       6.768   4.049 -13.560  0.00  0.00    +0.145 HD
ENDBRANCH  13  15
ENDBRANCH   6   9
BRANCH   1  20
ATOM     20  C   UNL     1       3.228  -1.349  -7.140  0.00  0.00    +0.096 C 
BRANCH  20  21
ATOM     21  C   UNL     1       2.512  -0.855  -5.881  0.00  0.00    +0.014 C 
BRANCH  21  22
ATOM     22  C   UNL     1       2.707  -1.868  -4.752  0.00  0.00    +0.035 C 
BRANCH  22  26
ATOM     23  C   UNL     1       0.707  -0.490  -1.238  0.00  0.00    -0.042 A 
ATOM     24  C   UNL     1       0.036  -1.284  -2.148  0.00  0.00    +0.004 A 
ATOM     25  C   UNL     1       0.683  -1.730  -3.286  0.00  0.00    +0.004 A 
ATOM     26  C   UNL     1       2.001  -1.381  -3.513  0.00  0.00    -0.047 A 
ATOM     27  C   UNL     1       2.672  -0.586  -2.603  0.00  0.00    +0.004 A 
ATOM     28  C   UNL     1       2.024  -0.137  -1.467  0.00  0.00    +0.004 A 
BRANCH  23  30
ATOM     29  C   UNL     1      -0.019   1.526   0.010  0.00  0.00    +0.015 C 
ATOM     30  C   UNL     1       0.002  -0.004   0.002  0.00  0.00    -0.013 C 
ATOM     31  C   UNL     1       0.742  -0.511   1.242  0.00  0.00    +0.015 C 
ATOM     32  C   UNL     1      -1.433  -0.534   0.013  0.00  0.00    +0.015 C 
ENDBRANCH  23  30
ENDBRANCH  22  26
ENDBRANCH  21  22
ENDBRANCH  20  21
ENDBRANCH   1  20
TORSDOF 7
