REMARK  Name = ZINC01424101
REMARK  6 active torsions:
REMARK  status: ('A' for Active; 'I' for Inactive)
REMARK    1  A    between atoms: C_3  and  C_6
REMARK    2  A    between atoms: C_6  and  O_8
REMARK    3  A    between atoms: O_8  and  C_9
REMARK    4  A    between atoms: C_10  and  C_17
REMARK    5  A    between atoms: N_18  and  N_19
REMARK    6  A    between atoms: C_20  and  C_22
REMARK                            x       y       z     vdW  Elec       q    Type
REMARK                         _______ _______ _______ _____ _____    ______ ____
ROOT
ATOM      1  C   UNL     1       5.563  -0.551  -0.055  0.00  0.00    +0.155 A 
ATOM      2  C   UNL     1       6.255  -0.531  -1.274  0.00  0.00    +0.039 A 
ATOM      3  C   UNL     1       7.651  -0.517  -1.276  0.00  0.00    +0.028 A 
ATOM      4  C   UNL     1       8.341  -0.521  -0.080  0.00  0.00    +0.020 A 
ATOM      5  C   UNL     1       7.654  -0.541   1.122  0.00  0.00    +0.034 A 
ATOM      6  C   UNL     1       6.271  -0.550   1.137  0.00  0.00    +0.062 A 
ATOM      7 BR   UNL     1       5.344  -0.568   2.785  0.00  0.00    -0.046 Br
ATOM      8 BR   UNL     1      10.232  -0.502  -0.084  0.00  0.00    -0.050 Br
ENDROOT
BRANCH   2   9
ATOM      9  C   UNL     1       5.512  -0.527  -2.547  0.00  0.00    +0.142 C 
ATOM     10  N   UNL     1       4.214  -0.541  -2.541  0.00  0.00    -0.187 NA
BRANCH  10  11
ATOM     11  N   UNL     1       3.508  -0.537  -3.751  0.00  0.00    -0.203 N 
ATOM     12  C   UNL     1       2.161  -0.552  -3.746  0.00  0.00    +0.265 C 
ATOM     13  O   UNL     1       1.557  -0.569  -2.690  0.00  0.00    -0.268 OA
ATOM     14  H   UNL     1       3.990  -0.523  -4.593  0.00  0.00    +0.178 HD
BRANCH  12  15
ATOM     15  C   UNL     1       1.416  -0.547  -5.022  0.00  0.00    +0.057 A 
ATOM     16  C   UNL     1       0.016  -0.556  -5.030  0.00  0.00    +0.031 A 
ATOM     17  C   UNL     1      -0.633  -0.552  -6.252  0.00  0.00    +0.037 A 
ATOM     18  C   UNL     1       0.115  -0.538  -7.417  0.00  0.00    +0.126 A 
ATOM     19  N   UNL     1       1.434  -0.529  -7.378  0.00  0.00    -0.261 NA
ATOM     20  C   UNL     1       2.097  -0.528  -6.240  0.00  0.00    +0.123 A 
ATOM     21 BR   UNL     1      -2.523  -0.565  -6.331  0.00  0.00    -0.049 Br
ENDBRANCH  12  15
ENDBRANCH  10  11
ENDBRANCH   2   9
BRANCH   1  22
ATOM     22  O   UNL     1       4.205  -0.566  -0.042  0.00  0.00    -0.418 OA
BRANCH  22  23
ATOM     23  C   UNL     1       3.559   0.619  -0.029  0.00  0.00    +0.380 C 
ATOM     24  O   UNL     1       4.192   1.657  -0.030  0.00  0.00    -0.241 OA
BRANCH  23  27
ATOM     25  C   UNL     1      -0.016   1.347   0.009  0.00  0.00    +0.042 A 
ATOM     26  C   UNL     1       1.319   1.779  -0.001  0.00  0.00    +0.056 A 
ATOM     27  C   UNL     1       2.095   0.654  -0.014  0.00  0.00    +0.212 A 
ATOM     28  O   UNL     1       1.276  -0.418  -0.012  0.00  0.00    -0.456 OA
ATOM     29  C   UNL     1       0.002  -0.004   0.002  0.00  0.00    +0.196 A 
ENDBRANCH  23  27
ENDBRANCH  22  23
ENDBRANCH   1  22
TORSDOF 6
