REMARK  Name = ZINC22467583
REMARK  7 active torsions:
REMARK  status: ('A' for Active; 'I' for Inactive)
REMARK    1  A    between atoms: C_4  and  C_7
REMARK    2  A    between atoms: C_8  and  C_9
REMARK    3  A    between atoms: C_9  and  N_10
REMARK    4  A    between atoms: N_13  and  C_16
REMARK    5  A    between atoms: N_21  and  C_24
REMARK    6  A    between atoms: C_24  and  C_25
REMARK    7  A    between atoms: C_28  and  N_31
REMARK                            x       y       z     vdW  Elec       q    Type
REMARK                         _______ _______ _______ _____ _____    ______ ____
ROOT
ATOM      1  C   UNL     1       5.460  -7.266   3.242  0.00  0.00    +0.152 C 
ATOM      2  C   UNL     1       6.852  -7.928   3.293  0.00  0.00    +0.124 C 
ATOM      3  C   UNL     1       6.557  -9.393   3.057  0.00  0.00    +0.224 C 
ATOM      4  O   UNL     1       7.384 -10.279   3.018  0.00  0.00    -0.275 OA
ATOM      5  N   UNL     1       5.238  -9.557   2.897  0.00  0.00    -0.236 N 
ATOM      6  C   UNL     1       4.521  -8.425   2.984  0.00  0.00    +0.240 C 
ATOM      7  O   UNL     1       3.317  -8.342   2.873  0.00  0.00    -0.273 OA
ENDROOT
BRANCH   1  11
ATOM      8  N   UNL     1       5.018  -3.681   1.047  0.00  0.00    +0.384 N 
ATOM      9  C   UNL     1       4.005  -4.729   0.868  0.00  0.00    -0.063 C 
ATOM     10  C   UNL     1       4.051  -5.692   2.057  0.00  0.00    +0.066 C 
ATOM     11  N   UNL     1       5.391  -6.291   2.145  0.00  0.00    -0.295 NA
ATOM     12  C   UNL     1       6.418  -5.252   2.300  0.00  0.00    +0.066 C 
ATOM     13  C   UNL     1       6.352  -4.293   1.109  0.00  0.00    -0.063 C 
ATOM     14  H   UNL     1       4.837  -3.182   1.905  0.00  0.00    -0.081 HD
BRANCH   8  15
ATOM     15  C   UNL     1       4.960  -2.747  -0.085  0.00  0.00    -0.051 C 
BRANCH  15  17
ATOM     16  C   UNL     1       3.600  -0.703  -0.073  0.00  0.00    +0.002 C 
ATOM     17  C   UNL     1       3.635  -2.028  -0.077  0.00  0.00    -0.045 C 
BRANCH  16  21
ATOM     18  C   UNL     1      -0.134   1.321  -0.051  0.00  0.00    +0.000 A 
ATOM     19  C   UNL     1       1.043   2.047  -0.054  0.00  0.00    +0.001 A 
ATOM     20  C   UNL     1       2.259   1.396  -0.061  0.00  0.00    +0.008 A 
ATOM     21  C   UNL     1       2.300   0.001  -0.065  0.00  0.00    -0.025 A 
ATOM     22  C   UNL     1       1.109  -0.726  -0.061  0.00  0.00    +0.008 A 
ATOM     23  C   UNL     1      -0.101  -0.062  -0.054  0.00  0.00    +0.001 A 
ENDBRANCH  16  21
ENDBRANCH  15  17
ENDBRANCH   8  15
ENDBRANCH   1  11
BRANCH   5  24
ATOM     24  C   UNL     1       4.625 -10.865   2.650  0.00  0.00    +0.151 C 
BRANCH  24  25
ATOM     25  C   UNL     1       4.269 -11.509   3.964  0.00  0.00    -0.030 A 
ATOM     26  C   UNL     1       5.191 -12.314   4.609  0.00  0.00    +0.007 A 
ATOM     27  C   UNL     1       4.868 -12.907   5.814  0.00  0.00    +0.024 A 
ATOM     28  C   UNL     1       3.617 -12.693   6.379  0.00  0.00    +0.036 A 
ATOM     29  C   UNL     1       2.694 -11.884   5.729  0.00  0.00    +0.024 A 
ATOM     30  C   UNL     1       3.025 -11.290   4.526  0.00  0.00    +0.007 A 
BRANCH  28  31
ATOM     31  N   UNL     1       3.287 -13.292   7.599  0.00  0.00    -0.271 N 
ATOM     32  C   UNL     1       2.041 -13.042   8.334  0.00  0.00    +0.114 C 
ATOM     33  C   UNL     1       1.918 -14.204   9.345  0.00  0.00    +0.029 C 
ATOM     34  C   UNL     1       3.396 -14.621   9.527  0.00  0.00    +0.098 C 
ATOM     35  C   UNL     1       4.066 -14.175   8.246  0.00  0.00    +0.220 C 
ATOM     36  O   UNL     1       5.151 -14.557   7.861  0.00  0.00    -0.275 OA
ENDBRANCH  28  31
ENDBRANCH  24  25
ENDBRANCH   5  24
TORSDOF 7
