REMARK  Name = ZINC15184393
REMARK  6 active torsions:
REMARK  status: ('A' for Active; 'I' for Inactive)
REMARK    1  A    between atoms: C_5  and  C_6
REMARK    2  A    between atoms: C_6  and  N_7
REMARK    3  A    between atoms: N_7  and  C_8
REMARK    4  A    between atoms: C_8  and  C_9
REMARK    5  A    between atoms: C_9  and  C_10
REMARK    6  A    between atoms: C_10  and  N_11
REMARK                            x       y       z     vdW  Elec       q    Type
REMARK                         _______ _______ _______ _____ _____    ______ ____
ROOT
ATOM      1  C   UNL     1      -4.255  -3.514  -2.802  0.00  0.00    +0.116 C 
ENDROOT
BRANCH   1   2
ATOM      2  N   UNL     1      -4.644  -3.819  -4.181  0.00  0.00    -0.224 N 
ATOM      3  C   UNL     1      -5.557  -3.116  -4.886  0.00  0.00    +0.246 C 
ATOM      4  O   UNL     1      -6.187  -2.149  -4.515  0.00  0.00    -0.273 OA
ATOM      5  C   UNL     1      -5.624  -3.789  -6.233  0.00  0.00    +0.113 C 
ATOM      6  C   UNL     1      -5.242  -2.816  -7.356  0.00  0.00    +0.035 C 
ATOM      7  C   UNL     1      -6.152  -3.234  -8.540  0.00  0.00    +0.003 C 
ATOM      8  C   UNL     1      -7.481  -3.611  -7.837  0.00  0.00    +0.003 C 
ATOM      9  C   UNL     1      -7.036  -4.301  -6.529  0.00  0.00    +0.035 C 
ATOM     10  N   UNL     1      -4.664  -4.891  -6.140  0.00  0.00    -0.285 N 
ATOM     11  C   UNL     1      -4.135  -4.826  -4.902  0.00  0.00    +0.309 C 
ATOM     12  O   UNL     1      -3.293  -5.597  -4.485  0.00  0.00    -0.252 OA
ATOM     13  H   UNL     1      -4.450  -5.537  -6.832  0.00  0.00    +0.151 HD
ENDBRANCH   1   2
BRANCH   1  14
ATOM     14  C   UNL     1      -3.080  -2.534  -2.809  0.00  0.00    +0.000 C 
BRANCH  14  15
ATOM     15  C   UNL     1      -2.674  -2.215  -1.368  0.00  0.00    -0.081 C 
BRANCH  15  16
ATOM     16  N   UNL     1      -1.546  -1.275  -1.375  0.00  0.00    +0.382 N 
ATOM     17  H   UNL     1      -1.819  -0.424  -1.843  0.00  0.00    -0.085 HD
ATOM     18  H   UNL     1      -0.764  -1.690  -1.860  0.00  0.00    -0.085 HD
BRANCH  16  19
ATOM     19  C   UNL     1      -1.156  -0.969   0.008  0.00  0.00    -0.039 C 
BRANCH  19  24
ATOM     20  C   UNL     1      -0.016   1.351   0.009  0.00  0.00    +0.024 A 
ATOM     21  C   UNL     1       1.184   2.038   0.002  0.00  0.00    +0.025 A 
ATOM     22  C   UNL     1       2.343   1.335  -0.013  0.00  0.00    +0.060 A 
ATOM     23  S   UNL     1       1.753  -0.350  -0.017  0.00  0.00    -0.102 S 
ATOM     24  C   UNL     1       0.002  -0.004   0.002  0.00  0.00    -0.026 A 
ATOM     25 BR   UNL     1       1.208   3.929   0.011  0.00  0.00    -0.050 Br
ENDBRANCH  19  24
ENDBRANCH  16  19
ENDBRANCH  15  16
ENDBRANCH  14  15
ENDBRANCH   1  14
TORSDOF 6
