REMARK  Name = ZINC15087669
REMARK  7 active torsions:
REMARK  status: ('A' for Active; 'I' for Inactive)
REMARK    1  A    between atoms: C_1  and  C_2
REMARK    2  A    between atoms: C_5  and  N_8
REMARK    3  A    between atoms: N_23  and  C_24
REMARK    4  A    between atoms: C_24  and  C_25
REMARK    5  A    between atoms: N_27  and  C_28
REMARK    6  A    between atoms: C_34  and  C_35
REMARK    7  A    between atoms: C_34  and  C_36
REMARK                            x       y       z     vdW  Elec       q    Type
REMARK                         _______ _______ _______ _____ _____    ______ ____
ROOT
ATOM      1  N   UNL     1       3.009   3.295   0.933  0.00  0.00    -0.209 N 
ATOM      2  C   UNL     1       3.270   1.995   1.230  0.00  0.00    +0.232 C 
ATOM      3  O   UNL     1       4.294   1.546   1.698  0.00  0.00    -0.274 OA
ATOM      4  C   UNL     1       2.038   1.230   0.862  0.00  0.00    +0.109 C 
ATOM      5  C   UNL     1       1.502   2.102  -0.313  0.00  0.00    +0.152 C 
ATOM      6  C   UNL     1       1.889   3.467   0.185  0.00  0.00    +0.240 C 
ATOM      7  O   UNL     1       1.316   4.512  -0.038  0.00  0.00    -0.274 OA
ATOM      8  S   UNL     1      -0.282   1.796  -0.381  0.00  0.00    -0.093 S 
ATOM      9  C   UNL     1      -0.299   0.007  -0.354  0.00  0.00    +0.091 A 
ATOM     10  C   UNL     1       0.810  -0.690  -0.021  0.00  0.00    +0.031 A 
ATOM     11  S   UNL     1       0.284  -2.381  -0.153  0.00  0.00    -0.030 S 
ATOM     12  C   UNL     1      -1.357  -2.085  -0.631  0.00  0.00    +0.292 A 
ATOM     13  O   UNL     1      -2.239  -2.890  -0.876  0.00  0.00    -0.259 OA
ATOM     14  N   UNL     1      -1.410  -0.738  -0.663  0.00  0.00    -0.288 N 
ATOM     15  C   UNL     1       2.171  -0.193   0.381  0.00  0.00    +0.012 C 
ATOM     16  C   UNL     1       2.724  -1.067   1.508  0.00  0.00    +0.017 C 
ATOM     17  C   UNL     1       3.113  -0.243  -0.823  0.00  0.00    +0.017 C 
ENDROOT
BRANCH   1  22
ATOM     18  C   UNL     1       6.285   7.596   2.660  0.00  0.00    +0.044 C 
ATOM     19  C   UNL     1       5.415   6.454   2.201  0.00  0.00    -0.050 A 
ATOM     20  C   UNL     1       4.289   6.707   1.440  0.00  0.00    +0.005 A 
ATOM     21  C   UNL     1       3.490   5.662   1.018  0.00  0.00    +0.024 A 
ATOM     22  C   UNL     1       3.818   4.357   1.359  0.00  0.00    +0.044 A 
ATOM     23  C   UNL     1       4.947   4.107   2.128  0.00  0.00    +0.024 A 
ATOM     24  C   UNL     1       5.745   5.155   2.543  0.00  0.00    +0.005 A 
ENDBRANCH   1  22
BRANCH  14  25
ATOM     25  C   UNL     1      -2.660  -0.066  -1.029  0.00  0.00    +0.222 C 
BRANCH  25  26
ATOM     26  C   UNL     1      -2.697   0.147  -2.520  0.00  0.00    +0.237 C 
ATOM     27  O   UNL     1      -1.771  -0.225  -3.210  0.00  0.00    -0.274 OA
ATOM     28  N   UNL     1      -3.759   0.752  -3.088  0.00  0.00    -0.284 N 
ATOM     29  H   UNL     1      -4.463   1.119  -2.531  0.00  0.00    +0.155 HD
BRANCH  28  30
ATOM     30  C   UNL     1      -3.847   0.850  -4.481  0.00  0.00    +0.033 A 
ATOM     31  C   UNL     1      -4.428   1.967  -5.065  0.00  0.00    +0.023 A 
ATOM     32  C   UNL     1      -4.509   2.063  -6.441  0.00  0.00    +0.002 A 
ATOM     33  C   UNL     1      -4.020   1.042  -7.236  0.00  0.00    +0.000 A 
ATOM     34  C   UNL     1      -3.446  -0.074  -6.657  0.00  0.00    +0.002 A 
ATOM     35  C   UNL     1      -3.357  -0.173  -5.283  0.00  0.00    +0.023 A 
ENDBRANCH  28  30
ENDBRANCH  25  26
ENDBRANCH  14  25
TORSDOF 4
