REMARK  Name = ZINC40427877
REMARK  6 active torsions:
REMARK  status: ('A' for Active; 'I' for Inactive)
REMARK    1  A    between atoms: C_6  and  C_7
REMARK    2  A    between atoms: N_9  and  C_10
REMARK    3  A    between atoms: C_10  and  C_11
REMARK    4  A    between atoms: C_11  and  N_12
REMARK    5  A    between atoms: C_13  and  C_15
REMARK    6  A    between atoms: C_21  and  C_23
REMARK                            x       y       z     vdW  Elec       q    Type
REMARK                         _______ _______ _______ _____ _____    ______ ____
ROOT
ATOM      1  N   UNL     1      -3.456  -5.114   0.009  0.00  0.00    -0.312 N 
ATOM      2  C   UNL     1      -3.434  -6.462   0.002  0.00  0.00    +0.234 C 
ATOM      3  O   UNL     1      -2.375  -7.052  -0.012  0.00  0.00    -0.274 OA
ATOM      4  H   UNL     1      -4.303  -4.643   0.020  0.00  0.00    +0.149 HD
ENDROOT
BRANCH   2   5
ATOM      5  C   UNL     1      -4.728  -7.236   0.010  0.00  0.00    +0.162 C 
ATOM      6  C   UNL     1      -5.544  -6.909  -1.258  0.00  0.00    +0.033 C 
ATOM      7  C   UNL     1      -5.194  -8.083  -2.209  0.00  0.00    +0.021 C 
ATOM      8  C   UNL     1      -5.069  -9.263  -1.214  0.00  0.00    +0.108 C 
ATOM      9  N   UNL     1      -4.447  -8.679  -0.008  0.00  0.00    -0.290 N 
ATOM     10  C   UNL     1      -3.739  -9.353   0.920  0.00  0.00    +0.219 C 
ATOM     11  O   UNL     1      -3.272  -8.765   1.872  0.00  0.00    -0.275 OA
BRANCH  10  12
ATOM     12  C   UNL     1      -3.528 -10.838   0.774  0.00  0.00    +0.075 C 
ATOM     13  C   UNL     1      -4.884 -11.572   0.827  0.00  0.00    +0.013 C 
ATOM     14  C   UNL     1      -4.579 -12.878   1.601  0.00  0.00    +0.001 C 
ATOM     15  C   UNL     1      -3.573 -12.409   2.681  0.00  0.00    +0.001 C 
ATOM     16  C   UNL     1      -2.695 -11.370   1.953  0.00  0.00    +0.013 C 
ENDBRANCH  10  12
ENDBRANCH   2   5
BRANCH   1  17
ATOM     17  C   UNL     1      -2.199  -4.362   0.001  0.00  0.00    +0.123 C 
BRANCH  17  18
ATOM     18  C   UNL     1      -2.502  -2.862   0.011  0.00  0.00    +0.123 C 
BRANCH  18  21
ATOM     19  C   UNL     1      -1.266  -0.763   0.011  0.00  0.00    +0.244 C 
ATOM     20  O   UNL     1      -2.328  -0.171   0.024  0.00  0.00    -0.270 OA
ATOM     21  N   UNL     1      -1.244  -2.110   0.003  0.00  0.00    -0.310 N 
ATOM     22  H   UNL     1      -0.397  -2.582  -0.008  0.00  0.00    +0.149 HD
BRANCH  19  28
ATOM     23  C   UNL     1      -0.017   1.392   0.010  0.00  0.00    +0.016 A 
ATOM     24  C   UNL     1       1.169   2.095   0.002  0.00  0.00    +0.039 A 
ATOM     25  C   UNL     1       2.379   1.418  -0.013  0.00  0.00    +0.123 A 
ATOM     26  C   UNL     1       2.403   0.032  -0.021  0.00  0.00    +0.039 A 
ATOM     27  C   UNL     1       1.224  -0.681  -0.014  0.00  0.00    +0.016 A 
ATOM     28  C   UNL     1       0.002  -0.004   0.002  0.00  0.00    +0.037 A 
ATOM     29  F   UNL     1       3.538   2.112  -0.020  0.00  0.00    -0.205 F 
ENDBRANCH  19  28
ENDBRANCH  18  21
ENDBRANCH  17  18
ENDBRANCH   1  17
TORSDOF 6
