REMARK  Name = ZINC20905985
REMARK  11 active torsions:
REMARK  status: ('A' for Active; 'I' for Inactive)
REMARK    1  A    between atoms: C_1  and  C_2
REMARK    2  A    between atoms: C_2  and  C_4
REMARK    3  A    between atoms: C_2  and  N_32
REMARK    4  A    between atoms: C_9  and  C_12
REMARK    5  A    between atoms: C_12  and  C_14
REMARK    6  A    between atoms: C_12  and  N_23
REMARK    7  A    between atoms: C_14  and  C_15
REMARK    8  A    between atoms: C_19  and  O_21
REMARK    9  A    between atoms: O_21  and  C_22
REMARK   10  A    between atoms: N_23  and  C_24
REMARK   11  A    between atoms: C_25  and  C_27
REMARK                            x       y       z     vdW  Elec       q    Type
REMARK                         _______ _______ _______ _____ _____    ______ ____
ROOT
ATOM      1  C   UNL     1      -5.030   0.773   5.605  0.00  0.00    +0.084 C 
ENDROOT
BRANCH   1   7
ATOM      2  C   UNL     1      -3.608  -1.771  10.212  0.00  0.00    +0.233 C 
ATOM      3  O   UNL     1      -3.165  -2.890  10.067  0.00  0.00    -0.274 OA
ATOM      4  N   UNL     1      -4.458  -1.260   9.299  0.00  0.00    -0.300 N 
ATOM      5  C   UNL     1      -4.945  -2.084   8.185  0.00  0.00    +0.108 C 
ATOM      6  C   UNL     1      -4.664  -1.351   6.870  0.00  0.00    +0.024 C 
ATOM      7  C   UNL     1      -5.279   0.050   6.930  0.00  0.00    +0.013 C 
ATOM      8  C   UNL     1      -4.636   0.841   8.071  0.00  0.00    +0.024 C 
ATOM      9  C   UNL     1      -4.917   0.133   9.400  0.00  0.00    +0.108 C 
BRANCH   2  11
ATOM     10  C   UNL     1      -1.972  -0.117  11.069  0.00  0.00    +0.034 C 
ATOM     11  C   UNL     1      -3.208  -0.951  11.411  0.00  0.00    +0.140 C 
BRANCH  11  12
ATOM     12  N   UNL     1      -2.900  -1.845  12.535  0.00  0.00    -0.287 NA
ATOM     13  C   UNL     1      -4.046  -2.711  12.849  0.00  0.00    +0.113 C 
ATOM     14  C   UNL     1      -3.663  -3.665  13.983  0.00  0.00    +0.175 C 
ATOM     15  O   UNL     1      -3.233  -2.904  15.115  0.00  0.00    -0.377 OA
ATOM     16  C   UNL     1      -2.118  -2.050  14.845  0.00  0.00    +0.175 C 
ATOM     17  C   UNL     1      -2.486  -1.080  13.720  0.00  0.00    +0.113 C 
ENDBRANCH  11  12
ENDBRANCH   2  11
ENDBRANCH   1   7
BRANCH   1  18
ATOM     18  N   UNL     1      -5.645   2.102   5.651  0.00  0.00    -0.294 N 
ATOM     19  C   UNL     1      -4.811   3.300   5.524  0.00  0.00    +0.132 C 
ATOM     20  C   UNL     1      -6.978   2.222   5.811  0.00  0.00    +0.282 C 
ATOM     21  O   UNL     1      -7.659   1.233   6.010  0.00  0.00    -0.267 OA
BRANCH  20  22
ATOM     22  C   UNL     1      -7.608   3.545   5.745  0.00  0.00    +0.189 A 
ATOM     23  C   UNL     1      -8.920   3.822   6.000  0.00  0.00    +0.054 A 
ATOM     24  C   UNL     1      -9.083   5.205   5.819  0.00  0.00    +0.042 A 
ATOM     25  C   UNL     1      -7.878   5.704   5.466  0.00  0.00    +0.196 A 
ATOM     26  O   UNL     1      -6.991   4.702   5.428  0.00  0.00    -0.458 OA
ENDBRANCH  20  22
ENDBRANCH   1  18
BRANCH   1  27
ATOM     27  C   UNL     1      -5.645  -0.034   4.460  0.00  0.00    +0.058 C 
BRANCH  27  28
ATOM     28  C   UNL     1      -5.296   0.613   3.145  0.00  0.00    -0.042 A 
ATOM     29  C   UNL     1      -4.142   0.243   2.478  0.00  0.00    +0.004 A 
ATOM     30  C   UNL     1      -3.818   0.835   1.271  0.00  0.00    +0.004 A 
ATOM     31  C   UNL     1      -4.648   1.798   0.728  0.00  0.00    +0.045 A 
ATOM     32  C   UNL     1      -5.806   2.170   1.395  0.00  0.00    +0.120 A 
ATOM     33  C   UNL     1      -6.125   1.579   2.609  0.00  0.00    +0.049 A 
BRANCH  32  34
ATOM     34  O   UNL     1      -6.623   3.117   0.863  0.00  0.00    -0.495 OA
ATOM     35  C   UNL     1      -6.228   3.687  -0.386  0.00  0.00    +0.277 C 
ENDBRANCH  32  34
ENDBRANCH  27  28
ENDBRANCH   1  27
TORSDOF 8
