REMARK  Name = ZINC36597921
REMARK  13 active torsions:
REMARK  status: ('A' for Active; 'I' for Inactive)
REMARK    1  A    between atoms: C_1  and  C_2
REMARK    2  A    between atoms: C_2  and  C_3
REMARK    3  A    between atoms: C_3  and  C_4
REMARK    4  A    between atoms: C_3  and  C_6
REMARK    5  A    between atoms: C_4  and  C_5
REMARK    6  A    between atoms: C_6  and  C_8
REMARK    7  A    between atoms: C_6  and  N_17
REMARK    8  A    between atoms: N_10  and  C_11
REMARK    9  A    between atoms: N_17  and  C_18
REMARK   10  A    between atoms: C_18  and  C_19
REMARK   11  A    between atoms: C_22  and  C_24
REMARK   12  A    between atoms: C_25  and  C_27
REMARK   13  A    between atoms: C_27  and  C_28
REMARK                            x       y       z     vdW  Elec       q    Type
REMARK                         _______ _______ _______ _____ _____    ______ ____
ROOT
ATOM      1  N   UNL     1       1.349   2.028   2.025  0.00  0.00    -0.282 N 
ATOM      2  C   UNL     1       1.445   3.152   1.288  0.00  0.00    +0.221 C 
ATOM      3  O   UNL     1       2.032   3.134   0.227  0.00  0.00    -0.275 OA
ENDROOT
BRANCH   1   4
ATOM      4  C   UNL     1       1.954   0.783   1.545  0.00  0.00    +0.165 C 
BRANCH   4   5
ATOM      5  C   UNL     1       2.931   0.270   2.572  0.00  0.00    +0.234 C 
ATOM      6  O   UNL     1       2.572   0.099   3.717  0.00  0.00    -0.274 OA
ATOM      7  N   UNL     1       4.203   0.002   2.217  0.00  0.00    -0.311 N 
ATOM      8  H   UNL     1       4.506   0.194   1.315  0.00  0.00    +0.149 HD
BRANCH   7   9
ATOM      9  C   UNL     1       5.129  -0.578   3.193  0.00  0.00    +0.073 C 
ATOM     10  C   UNL     1       5.753   0.540   4.031  0.00  0.00    +0.022 C 
ATOM     11  C   UNL     1       6.720  -0.066   5.050  0.00  0.00    +0.002 C 
ATOM     12  C   UNL     1       7.824  -0.829   4.315  0.00  0.00    +0.000 C 
ATOM     13  C   UNL     1       7.200  -1.947   3.477  0.00  0.00    +0.002 C 
ATOM     14  C   UNL     1       6.233  -1.341   2.457  0.00  0.00    +0.022 C 
ENDBRANCH   7   9
ENDBRANCH   4   5
BRANCH   4  15
ATOM     15  C   UNL     1       0.860  -0.261   1.316  0.00  0.00    +0.018 C 
BRANCH  15  17
ATOM     16  C   UNL     1      -1.012   1.348   0.926  0.00  0.00    +0.004 C 
ATOM     17  C   UNL     1      -0.140   0.267   0.285  0.00  0.00    +0.002 C 
ENDBRANCH  15  17
BRANCH  15  18
ATOM     18  C   UNL     1       1.490  -1.556   0.799  0.00  0.00    +0.002 C 
ATOM     19  C   UNL     1       2.261  -2.235   1.932  0.00  0.00    +0.004 C 
ENDBRANCH  15  18
ENDBRANCH   4  15
ENDBRANCH   1   4
BRANCH   1  20
ATOM     20  C   UNL     1       0.640   2.050   3.307  0.00  0.00    +0.182 C 
BRANCH  20  21
ATOM     21  C   UNL     1       1.557   2.581   4.379  0.00  0.00    +0.122 A 
ATOM     22  C   UNL     1       1.629   3.859   4.791  0.00  0.00    +0.046 A 
ATOM     23  C   UNL     1       2.613   3.908   5.805  0.00  0.00    +0.045 A 
ATOM     24  C   UNL     1       3.085   2.657   5.951  0.00  0.00    +0.102 A 
ATOM     25  O   UNL     1       2.437   1.856   5.089  0.00  0.00    -0.463 OA
ATOM     26  C   UNL     1       4.154   2.226   6.921  0.00  0.00    +0.086 C 
ENDBRANCH  20  21
ENDBRANCH   1  20
BRANCH   2  27
ATOM     27  C   UNL     1       0.822   4.433   1.783  0.00  0.00    +0.132 C 
BRANCH  27  28
ATOM     28  C   UNL     1       1.070   5.531   0.781  0.00  0.00    -0.019 A 
ATOM     29  C   UNL     1       2.152   6.377   0.937  0.00  0.00    +0.005 A 
ATOM     30  C   UNL     1       2.380   7.385   0.019  0.00  0.00    +0.002 A 
ATOM     31  C   UNL     1       1.526   7.548  -1.056  0.00  0.00    +0.021 A 
ATOM     32  C   UNL     1       0.443   6.702  -1.213  0.00  0.00    +0.060 A 
ATOM     33  C   UNL     1       0.218   5.689  -0.297  0.00  0.00    +0.063 A 
ATOM     34 CL   UNL     1      -1.136   4.621  -0.497  0.00  0.00    -0.082 Cl
ATOM     35 CL   UNL     1      -0.630   6.907  -2.563  0.00  0.00    -0.082 Cl
ENDBRANCH  27  28
ENDBRANCH   2  27
TORSDOF 10
