REMARK  Name = ZINC26752756
REMARK  9 active torsions:
REMARK  status: ('A' for Active; 'I' for Inactive)
REMARK    1  A    between atoms: C_1  and  C_2
REMARK    2  A    between atoms: C_3  and  C_31
REMARK    3  A    between atoms: C_9  and  C_12
REMARK    4  A    between atoms: N_14  and  C_15
REMARK    5  A    between atoms: C_15  and  C_17
REMARK    6  A    between atoms: C_15  and  C_21
REMARK    7  A    between atoms: C_17  and  C_18
REMARK    8  A    between atoms: C_18  and  S_19
REMARK    9  A    between atoms: S_19  and  C_20
REMARK                            x       y       z     vdW  Elec       q    Type
REMARK                         _______ _______ _______ _____ _____    ______ ____
ROOT
ATOM      1  C   UNL     1       0.529  -2.662   1.350  0.00  0.00    +0.245 C 
ATOM      2  O   UNL     1       1.237  -2.358   0.410  0.00  0.00    -0.270 OA
ATOM      3  N   UNL     1      -0.810  -2.550   1.248  0.00  0.00    -0.302 N 
ATOM      4  H   UNL     1      -1.451  -2.825   2.099  0.00  0.00    +0.150 HD
ENDROOT
BRANCH   1  13
ATOM      5  C   UNL     1       5.711  -3.751   3.549  0.00  0.00    +0.046 C 
ATOM      6  C   UNL     1       4.452  -3.972   4.347  0.00  0.00    -0.022 A 
ATOM      7  C   UNL     1       4.374  -4.427   5.607  0.00  0.00    +0.017 A 
ATOM      8  N   UNL     1       3.065  -4.497   5.999  0.00  0.00    -0.358 N 
ATOM      9  H   UNL     1       2.811  -4.851   7.009  0.00  0.00    +0.166 HD
ATOM     10  C   UNL     1       2.246  -4.079   4.977  0.00  0.00    +0.047 A 
ATOM     11  C   UNL     1       3.079  -3.731   3.895  0.00  0.00    +0.004 A 
ATOM     12  C   UNL     1       2.519  -3.267   2.708  0.00  0.00    +0.023 A 
ATOM     13  C   UNL     1       1.136  -3.153   2.603  0.00  0.00    +0.037 A 
ATOM     14  C   UNL     1       0.319  -3.497   3.689  0.00  0.00    +0.015 A 
ATOM     15  C   UNL     1       0.864  -3.957   4.851  0.00  0.00    +0.027 A 
ATOM     16  C   UNL     1       5.555  -4.804   6.465  0.00  0.00    +0.063 C 
ENDBRANCH   1  13
BRANCH   3  17
ATOM     17  C   UNL     1      -1.413  -2.063   0.004  0.00  0.00    +0.140 C 
BRANCH  17  18
ATOM     18  C   UNL     1      -2.822  -2.584  -0.109  0.00  0.00    +0.129 A 
ATOM     19  N   UNL     1      -3.261  -3.444  -1.068  0.00  0.00    -0.340 N 
ATOM     20  H   UNL     1      -2.566  -3.809  -1.839  0.00  0.00    +0.167 HD
ATOM     21  C   UNL     1      -4.600  -3.679  -0.827  0.00  0.00    +0.066 A 
ATOM     22  C   UNL     1      -5.572  -4.451  -1.448  0.00  0.00    +0.028 A 
ATOM     23  C   UNL     1      -6.856  -4.464  -0.946  0.00  0.00    +0.002 A 
ATOM     24  C   UNL     1      -7.182  -3.711   0.173  0.00  0.00    +0.002 A 
ATOM     25  C   UNL     1      -6.238  -2.945   0.796  0.00  0.00    +0.030 A 
ATOM     26  C   UNL     1      -4.930  -2.917   0.306  0.00  0.00    +0.089 A 
ATOM     27  N   UNL     1      -3.798  -2.273   0.693  0.00  0.00    -0.231 NA
ENDBRANCH  17  18
BRANCH  17  28
ATOM     28  C   UNL     1      -1.433  -0.534   0.013  0.00  0.00    +0.041 C 
BRANCH  28  29
ATOM     29  C   UNL     1       0.002  -0.004   0.002  0.00  0.00    +0.071 C 
BRANCH  29  30
ATOM     30  S   UNL     1      -0.022   1.810   0.012  0.00  0.00    -0.164 S 
ATOM     31  C   UNL     1       1.731   2.272  -0.002  0.00  0.00    +0.084 C 
ENDBRANCH  29  30
ENDBRANCH  28  29
ENDBRANCH  17  28
ENDBRANCH   3  17
TORSDOF 6
