REMARK  Name = ZINC22425763
REMARK  11 active torsions:
REMARK  status: ('A' for Active; 'I' for Inactive)
REMARK    1  A    between atoms: C_1  and  C_2
REMARK    2  A    between atoms: C_5  and  O_8
REMARK    3  A    between atoms: O_8  and  C_9
REMARK    4  A    between atoms: C_9  and  C_10
REMARK    5  A    between atoms: C_10  and  C_12
REMARK    6  A    between atoms: C_10  and  N_13
REMARK    7  A    between atoms: C_14  and  C_16
REMARK    8  A    between atoms: C_16  and  N_17
REMARK    9  A    between atoms: N_17  and  C_18
REMARK   10  A    between atoms: N_17  and  S_25
REMARK   11  A    between atoms: S_25  and  C_28
REMARK                            x       y       z     vdW  Elec       q    Type
REMARK                         _______ _______ _______ _____ _____    ______ ____
ROOT
ATOM      1  N   UNL     1       4.270  -1.193  -1.633  0.00  0.00    -0.194 N 
ENDROOT
BRANCH   1   2
ATOM      2  C   UNL     1       5.092  -0.342  -2.376  0.00  0.00    +0.055 A 
ATOM      3  C   UNL     1       5.715  -0.806  -3.528  0.00  0.00    +0.025 A 
ATOM      4  C   UNL     1       6.526   0.037  -4.261  0.00  0.00    +0.005 A 
ATOM      5  C   UNL     1       6.720   1.343  -3.851  0.00  0.00    +0.038 A 
ATOM      6  C   UNL     1       6.101   1.810  -2.704  0.00  0.00    +0.125 A 
ATOM      7  C   UNL     1       5.283   0.972  -1.968  0.00  0.00    +0.063 A 
ATOM      8  F   UNL     1       6.292   3.087  -2.306  0.00  0.00    -0.205 F 
ENDBRANCH   1   2
BRANCH   1   9
ATOM      9  S   UNL     1       4.647  -1.540  -0.059  0.00  0.00    +0.075 S 
ATOM     10  O   UNL     1       6.053  -1.377   0.068  0.00  0.00    -0.150 OA
ATOM     11  O   UNL     1       3.990  -2.761   0.256  0.00  0.00    -0.150 OA
BRANCH   9  12
ATOM     12  C   UNL     1       3.903  -0.296   0.942  0.00  0.00    +0.112 A 
ATOM     13  C   UNL     1       2.584  -0.424   1.335  0.00  0.00    +0.032 A 
ATOM     14  C   UNL     1       1.996   0.551   2.119  0.00  0.00    +0.051 A 
ATOM     15  C   UNL     1       2.729   1.661   2.513  0.00  0.00    +0.162 A 
ATOM     16  C   UNL     1       4.055   1.789   2.119  0.00  0.00    +0.164 A 
ATOM     17  C   UNL     1       4.639   0.807   1.332  0.00  0.00    +0.078 A 
ATOM     18  O   UNL     1       4.795   2.866   2.501  0.00  0.00    -0.485 OA
ATOM     19  C   UNL     1       4.072   4.007   2.975  0.00  0.00    +0.270 C 
ATOM     20  C   UNL     1       3.004   3.523   3.965  0.00  0.00    +0.270 C 
ATOM     21  O   UNL     1       2.134   2.617   3.278  0.00  0.00    -0.485 OA
ENDBRANCH   9  12
ENDBRANCH   1   9
BRANCH   1  22
ATOM     22  C   UNL     1       3.076  -1.778  -2.247  0.00  0.00    +0.227 C 
BRANCH  22  24
ATOM     23  N   UNL     1       0.719  -1.134  -2.635  0.00  0.00    -0.308 N 
ATOM     24  C   UNL     1       1.927  -0.808  -2.135  0.00  0.00    +0.232 C 
ATOM     25  O   UNL     1       2.091   0.266  -1.596  0.00  0.00    -0.274 OA
ATOM     26  H   UNL     1       0.571  -2.108  -3.124  0.00  0.00    +0.149 HD
BRANCH  23  27
ATOM     27  C   UNL     1      -0.397  -0.191  -2.526  0.00  0.00    +0.107 C 
ATOM     28  C   UNL     1      -0.345   0.797  -3.692  0.00  0.00    +0.031 C 
BRANCH  27  29
ATOM     29  C   UNL     1      -1.720  -0.960  -2.567  0.00  0.00    +0.251 C 
BRANCH  29  30
ATOM     30  O   UNL     1      -1.871  -1.579  -3.846  0.00  0.00    -0.490 OA
BRANCH  30  35
ATOM     31  C   UNL     1      -6.555  -4.591  -4.691  0.00  0.00    +0.044 C 
ATOM     32  C   UNL     1      -5.301  -3.785  -4.465  0.00  0.00    -0.050 A 
ATOM     33  C   UNL     1      -4.362  -3.672  -5.473  0.00  0.00    +0.007 A 
ATOM     34  C   UNL     1      -3.213  -2.934  -5.269  0.00  0.00    +0.046 A 
ATOM     35  C   UNL     1      -3.001  -2.306  -4.050  0.00  0.00    +0.121 A 
ATOM     36  C   UNL     1      -3.942  -2.425  -3.038  0.00  0.00    +0.046 A 
ATOM     37  C   UNL     1      -5.093  -3.159  -3.250  0.00  0.00    +0.007 A 
ENDBRANCH  30  35
ENDBRANCH  29  30
ENDBRANCH  27  29
ENDBRANCH  23  27
ENDBRANCH  22  24
ENDBRANCH   1  22
TORSDOF 9
