REMARK  Name = ZINC17247380
REMARK  8 active torsions:
REMARK  status: ('A' for Active; 'I' for Inactive)
REMARK    1  A    between atoms: C_1  and  C_2
REMARK    2  A    between atoms: C_2  and  C_3
REMARK    3  A    between atoms: C_2  and  C_4
REMARK    4  A    between atoms: C_7  and  C_10
REMARK    5  A    between atoms: N_11  and  N_12
REMARK    6  A    between atoms: C_15  and  C_18
REMARK    7  A    between atoms: C_22  and  S_24
REMARK    8  A    between atoms: S_24  and  N_27
REMARK                            x       y       z     vdW  Elec       q    Type
REMARK                         _______ _______ _______ _____ _____    ______ ____
ROOT
ATOM      1  N   UNL     1      -7.129  -3.233  -0.917  0.00  0.00    -0.215 N 
ATOM      2  C   UNL     1      -7.579  -4.034  -1.953  0.00  0.00    +0.178 A 
ATOM      3  N   UNL     1      -8.769  -4.581  -2.130  0.00  0.00    -0.224 NA
ATOM      4  C   UNL     1      -9.030  -5.329  -3.192  0.00  0.00    +0.080 A 
ATOM      5  C   UNL     1      -8.050  -5.538  -4.122  0.00  0.00    +0.077 A 
ATOM      6  S   UNL     1      -6.708  -4.596  -3.409  0.00  0.00    -0.059 S 
ATOM      7  H   UNL     1      -7.724  -3.008  -0.184  0.00  0.00    +0.176 HD
ENDROOT
BRANCH   4   8
ATOM      8  C   UNL     1     -10.372  -5.933  -3.370  0.00  0.00    +0.003 A 
ATOM      9  C   UNL     1     -10.641  -6.724  -4.486  0.00  0.00    +0.010 A 
ATOM     10  C   UNL     1     -11.892  -7.284  -4.647  0.00  0.00    +0.003 A 
ATOM     11  C   UNL     1     -12.879  -7.062  -3.703  0.00  0.00    +0.028 A 
ATOM     12  C   UNL     1     -12.618  -6.277  -2.594  0.00  0.00    +0.106 A 
ATOM     13  C   UNL     1     -11.368  -5.717  -2.420  0.00  0.00    +0.038 A 
BRANCH  12  14
ATOM     14  S   UNL     1     -13.881  -5.998  -1.398  0.00  0.00    +0.061 S 
ATOM     15  O   UNL     1     -13.551  -4.786  -0.734  0.00  0.00    -0.153 OA
ATOM     16  O   UNL     1     -15.121  -6.189  -2.064  0.00  0.00    -0.153 OA
BRANCH  14  17
ATOM     17  N   UNL     1     -13.761  -7.203  -0.268  0.00  0.00    -0.172 NA
ATOM     18  C   UNL     1     -14.496  -8.468  -0.429  0.00  0.00    +0.137 C 
ATOM     19  C   UNL     1     -13.510  -9.627  -0.244  0.00  0.00    +0.177 C 
ATOM     20  O   UNL     1     -12.806  -9.454   0.987  0.00  0.00    -0.377 OA
ATOM     21  C   UNL     1     -12.006  -8.271   1.043  0.00  0.00    +0.177 C 
ATOM     22  C   UNL     1     -12.910  -7.044   0.922  0.00  0.00    +0.137 C 
ENDBRANCH  14  17
ENDBRANCH  12  14
ENDBRANCH   4   8
BRANCH   1  24
ATOM     23  C   UNL     1      -5.393  -1.996   0.044  0.00  0.00    +0.138 C 
ATOM     24  N   UNL     1      -5.815  -2.747  -0.928  0.00  0.00    -0.188 NA
BRANCH  23  28
ATOM     25  C   UNL     1      -1.412  -0.526   0.013  0.00  0.00    -0.045 A 
ATOM     26  C   UNL     1      -2.257  -0.202   1.059  0.00  0.00    +0.004 A 
ATOM     27  C   UNL     1      -3.552  -0.676   1.076  0.00  0.00    +0.010 A 
ATOM     28  C   UNL     1      -4.010  -1.485   0.033  0.00  0.00    -0.005 A 
ATOM     29  C   UNL     1      -3.151  -1.807  -1.021  0.00  0.00    +0.010 A 
ATOM     30  C   UNL     1      -1.860  -1.321  -1.027  0.00  0.00    +0.004 A 
BRANCH  25  32
ATOM     31  C   UNL     1      -0.019   1.526   0.010  0.00  0.00    +0.012 C 
ATOM     32  C   UNL     1       0.002  -0.004   0.002  0.00  0.00    +0.013 C 
ATOM     33  C   UNL     1       0.742  -0.511   1.242  0.00  0.00    +0.012 C 
ENDBRANCH  25  32
ENDBRANCH  23  28
ENDBRANCH   1  24
TORSDOF 6
