REMARK  Name = ZINC63818854
REMARK  11 active torsions:
REMARK  status: ('A' for Active; 'I' for Inactive)
REMARK    1  A    between atoms: C_1  and  C_2
REMARK    2  A    between atoms: C_4  and  N_23
REMARK    3  A    between atoms: C_7  and  C_9
REMARK    4  A    between atoms: N_11  and  C_12
REMARK    5  A    between atoms: C_12  and  C_13
REMARK    6  A    between atoms: C_13  and  C_14
REMARK    7  A    between atoms: N_23  and  C_24
REMARK    8  A    between atoms: C_24  and  C_25
REMARK    9  A    between atoms: C_25  and  C_26
REMARK   10  A    between atoms: C_25  and  C_27
REMARK   11  A    between atoms: C_28  and  C_30
REMARK                            x       y       z     vdW  Elec       q    Type
REMARK                         _______ _______ _______ _____ _____    ______ ____
ROOT
ATOM      1  C   UNL     1      -1.009   1.561   0.733  0.00  0.00    +0.252 C 
ATOM      2  O   UNL     1      -0.250   0.808   1.317  0.00  0.00    -0.270 OA
ATOM      3  N   UNL     1      -1.978   2.202   1.415  0.00  0.00    -0.311 N 
ATOM      4  H   UNL     1      -2.583   2.801   0.951  0.00  0.00    +0.149 HD
ENDROOT
BRANCH   1  10
ATOM      5  C   UNL     1       1.053   0.258  -0.992  0.00  0.00    +0.062 C 
ATOM      6  C   UNL     1       0.033   1.218  -1.548  0.00  0.00    +0.021 C 
ATOM      7  N   UNL     1       0.050   1.493  -2.869  0.00  0.00    -0.320 N 
ATOM      8  C   UNL     1      -0.976   2.441  -3.352  0.00  0.00    +0.226 C 
ATOM      9  S   UNL     1      -1.848   2.813  -1.775  0.00  0.00    -0.077 S 
ATOM     10  C   UNL     1      -0.869   1.768  -0.707  0.00  0.00    +0.089 C 
ATOM     11  H   UNL     1       0.698   1.091  -3.467  0.00  0.00    +0.148 HD
BRANCH   8  12
ATOM     12  N   UNL     1      -0.362   3.645  -3.917  0.00  0.00    -0.274 N 
ATOM     13  C   UNL     1       0.514   4.362  -3.185  0.00  0.00    +0.214 C 
ATOM     14  O   UNL     1       0.860   3.964  -2.093  0.00  0.00    -0.276 OA
ATOM     15  C   UNL     1       1.064   5.657  -3.724  0.00  0.00    +0.109 C 
BRANCH  12  16
ATOM     16  C   UNL     1      -0.700   4.070  -5.278  0.00  0.00    +0.113 C 
BRANCH  16  17
ATOM     17  C   UNL     1      -1.995   4.884  -5.251  0.00  0.00    +0.000 C 
ATOM     18  C   UNL     1      -1.768   6.178  -4.467  0.00  0.00    +0.009 C 
ATOM     19  C   UNL     1      -2.415   5.222  -6.683  0.00  0.00    +0.009 C 
ENDBRANCH  16  17
ENDBRANCH  12  16
ENDBRANCH   8  12
ENDBRANCH   1  10
BRANCH   3  20
ATOM     20  C   UNL     1      -2.119   1.994   2.859  0.00  0.00    +0.109 C 
BRANCH  20  21
ATOM     21  C   UNL     1      -3.286   2.832   3.384  0.00  0.00    +0.052 C 
BRANCH  21  22
ATOM     22  C   UNL     1      -3.430   2.618   4.869  0.00  0.00    -0.040 C 
ATOM     23  C   UNL     1      -2.913   3.386   5.855  0.00  0.00    -0.001 A 
ATOM     24  C   UNL     1      -2.093   4.603   5.841  0.00  0.00    +0.010 A 
ATOM     25  C   UNL     1      -1.720   5.156   7.018  0.00  0.00    +0.001 A 
ATOM     26  C   UNL     1      -2.096   4.597   8.247  0.00  0.00    +0.002 A 
ATOM     27  C   UNL     1      -2.849   3.481   8.340  0.00  0.00    +0.026 A 
ATOM     28  C   UNL     1      -3.298   2.816   7.166  0.00  0.00    +0.043 A 
ATOM     29  N   UNL     1      -4.024   1.738   6.997  0.00  0.00    -0.380 N 
ATOM     30  C   UNL     1      -4.188   1.505   5.557  0.00  0.00    +0.144 C 
ATOM     31  H   UNL     1      -4.395   1.188   7.705  0.00  0.00    +0.160 HD
ENDBRANCH  21  22
ENDBRANCH  20  21
ENDBRANCH   3  20
TORSDOF 7
