REMARK  Name = ZINC67393225
REMARK  9 active torsions:
REMARK  status: ('A' for Active; 'I' for Inactive)
REMARK    1  A    between atoms: C_1  and  C_2
REMARK    2  A    between atoms: C_2  and  C_3
REMARK    3  A    between atoms: C_3  and  N_4
REMARK    4  A    between atoms: C_7  and  C_10
REMARK    5  A    between atoms: C_10  and  N_11
REMARK    6  A    between atoms: C_12  and  C_14
REMARK    7  A    between atoms: N_16  and  C_17
REMARK    8  A    between atoms: C_22  and  S_23
REMARK    9  A    between atoms: S_23  and  C_24
REMARK                            x       y       z     vdW  Elec       q    Type
REMARK                         _______ _______ _______ _____ _____    ______ ____
ROOT
ATOM      1  C   UNL     1      -5.088  -7.382  -3.086  0.00  0.00    +0.303 C 
ATOM      2  O   UNL     1      -4.678  -7.000  -4.163  0.00  0.00    -0.265 OA
ATOM      3  N   UNL     1      -5.789  -8.530  -3.000  0.00  0.00    -0.277 N 
ATOM      4  H   UNL     1      -6.061  -8.869  -2.132  0.00  0.00    +0.155 HD
ENDROOT
BRANCH   3   5
ATOM      5  C   UNL     1      -6.125  -9.233  -4.161  0.00  0.00    +0.048 A 
ATOM      6  C   UNL     1      -5.253  -9.252  -5.240  0.00  0.00    +0.024 A 
ATOM      7  C   UNL     1      -5.588  -9.946  -6.387  0.00  0.00    +0.002 A 
ATOM      8  C   UNL     1      -6.790 -10.625  -6.464  0.00  0.00    +0.001 A 
ATOM      9  C   UNL     1      -7.665 -10.613  -5.395  0.00  0.00    +0.017 A 
ATOM     10  C   UNL     1      -7.336  -9.923  -4.237  0.00  0.00    +0.037 A 
BRANCH  10  11
ATOM     11  S   UNL     1      -8.447  -9.911  -2.869  0.00  0.00    -0.014 S 
BRANCH  11  12
ATOM     12  C   UNL     1      -9.846 -10.921  -3.430  0.00  0.00    +0.448 C 
ATOM     13  F   UNL     1      -9.397 -12.210  -3.735  0.00  0.00    -0.160 F 
ATOM     14  F   UNL     1     -10.808 -10.988  -2.417  0.00  0.00    -0.160 F 
ATOM     15  F   UNL     1     -10.410 -10.342  -4.572  0.00  0.00    -0.160 F 
ENDBRANCH  11  12
ENDBRANCH  10  11
ENDBRANCH   3   5
BRANCH   1  17
ATOM     16  N   UNL     1      -4.115  -5.432  -1.942  0.00  0.00    -0.307 N 
ATOM     17  C   UNL     1      -4.816  -6.580  -1.856  0.00  0.00    +0.299 C 
ATOM     18  O   UNL     1      -5.226  -6.961  -0.779  0.00  0.00    -0.265 OA
ATOM     19  H   UNL     1      -3.787  -5.127  -2.803  0.00  0.00    +0.149 HD
BRANCH  16  20
ATOM     20  C   UNL     1      -3.848  -4.644  -0.736  0.00  0.00    +0.106 C 
BRANCH  20  24
ATOM     21  N   UNL     1      -1.367  -2.034   0.005  0.00  0.00    +0.380 N 
ATOM     22  C   UNL     1      -0.812  -2.515  -1.278  0.00  0.00    -0.079 C 
ATOM     23  C   UNL     1      -1.625  -3.792  -1.607  0.00  0.00    -0.016 C 
ATOM     24  C   UNL     1      -3.040  -3.399  -1.108  0.00  0.00    -0.012 C 
ATOM     25  C   UNL     1      -2.744  -2.543   0.141  0.00  0.00    -0.074 C 
ATOM     26  H   UNL     1      -0.801  -2.376   0.767  0.00  0.00    -0.082 HD
BRANCH  21  27
ATOM     27  C   UNL     1      -1.379  -0.565   0.018  0.00  0.00    -0.079 C 
BRANCH  27  29
ATOM     28  C   UNL     1       0.045   1.487   0.015  0.00  0.00    +0.002 C 
ATOM     29  C   UNL     1       0.059  -0.043   0.002  0.00  0.00    -0.022 C 
ENDBRANCH  27  29
ENDBRANCH  21  27
ENDBRANCH  20  24
ENDBRANCH  16  20
ENDBRANCH   1  17
TORSDOF 8
