REMARK  Name = ZINC49421132
REMARK  5 active torsions:
REMARK  status: ('A' for Active; 'I' for Inactive)
REMARK    1  A    between atoms: C_4  and  C_7
REMARK    2  A    between atoms: C_22  and  C_25
REMARK    3  A    between atoms: N_27  and  C_28
REMARK    4  A    between atoms: C_28  and  C_29
REMARK    5  A    between atoms: C_29  and  C_30
REMARK                            x       y       z     vdW  Elec       q    Type
REMARK                         _______ _______ _______ _____ _____    ______ ____
ROOT
ATOM      1  C   UNL     1       3.893  -0.422   0.255  0.00  0.00    +0.015 A 
ATOM      2  C   UNL     1       4.842  -0.123  -0.667  0.00  0.00    +0.056 A 
ATOM      3  S   UNL     1       5.977  -1.353  -0.546  0.00  0.00    -0.089 S 
ATOM      4  C   UNL     1       5.242  -2.323   0.739  0.00  0.00    +0.103 A 
ATOM      5  C   UNL     1       4.071  -1.620   1.059  0.00  0.00    +0.094 A 
ATOM      6  N   UNL     1       3.288  -2.143   2.042  0.00  0.00    -0.215 NA
ATOM      7  C   UNL     1       3.613  -3.246   2.663  0.00  0.00    +0.199 A 
ATOM      8  N   UNL     1       4.748  -3.948   2.376  0.00  0.00    -0.294 N 
ATOM      9  H   UNL     1       4.954  -4.763   2.860  0.00  0.00    +0.172 HD
ATOM     10  C   UNL     1       5.579  -3.502   1.403  0.00  0.00    +0.267 A 
ATOM     11  O   UNL     1       6.600  -4.108   1.125  0.00  0.00    -0.267 OA
ATOM     12  N   UNL     1       2.778  -3.719   3.645  0.00  0.00    -0.300 N 
ATOM     13  C   UNL     1       3.162  -4.880   4.460  0.00  0.00    +0.108 C 
ATOM     14  C   UNL     1       3.057  -4.501   5.940  0.00  0.00    +0.020 C 
ATOM     15  C   UNL     1       1.651  -3.968   6.228  0.00  0.00    +0.016 C 
ATOM     16  C   UNL     1       1.397  -2.714   5.388  0.00  0.00    +0.092 C 
ATOM     17  C   UNL     1       1.486  -3.070   3.906  0.00  0.00    +0.120 C 
ENDROOT
BRANCH   1  21
ATOM     18  C   UNL     1       0.502   2.086   0.791  0.00  0.00    +0.000 A 
ATOM     19  C   UNL     1       1.771   2.636   0.776  0.00  0.00    +0.001 A 
ATOM     20  C   UNL     1       2.876   1.827   0.603  0.00  0.00    +0.008 A 
ATOM     21  C   UNL     1       2.711   0.452   0.443  0.00  0.00    -0.015 A 
ATOM     22  C   UNL     1       1.429  -0.097   0.459  0.00  0.00    +0.008 A 
ATOM     23  C   UNL     1       0.333   0.722   0.632  0.00  0.00    +0.001 A 
ENDBRANCH   1  21
BRANCH  16  24
ATOM     24  C   UNL     1       0.026  -2.171   5.697  0.00  0.00    +0.218 C 
ATOM     25  O   UNL     1      -0.802  -2.078   4.816  0.00  0.00    -0.275 OA
ATOM     26  N   UNL     1      -0.281  -1.790   6.953  0.00  0.00    -0.315 N 
ATOM     27  H   UNL     1       0.381  -1.865   7.658  0.00  0.00    +0.149 HD
BRANCH  26  28
ATOM     28  C   UNL     1      -1.615  -1.263   7.253  0.00  0.00    +0.108 C 
BRANCH  28  29
ATOM     29  C   UNL     1      -1.700  -0.907   8.739  0.00  0.00    +0.049 C 
BRANCH  29  30
ATOM     30  C   UNL     1      -3.072  -0.365   9.048  0.00  0.00    -0.072 C 
ATOM     31  C   UNL     1      -3.961  -1.187   9.503  0.00  0.00    -0.028 C 
ATOM     32  C   UNL     1      -5.370  -0.798   9.845  0.00  0.00    +0.027 C 
ATOM     33  C   UNL     1      -5.476   0.722   9.990  0.00  0.00    +0.004 C 
ATOM     34  C   UNL     1      -4.825   1.373   8.763  0.00  0.00    +0.005 C 
ATOM     35  C   UNL     1      -3.320   1.097   8.813  0.00  0.00    +0.030 C 
ENDBRANCH  29  30
ENDBRANCH  28  29
ENDBRANCH  26  28
ENDBRANCH  16  24
TORSDOF 5
