REMARK  Name = ZINC31809956
REMARK  6 active torsions:
REMARK  status: ('A' for Active; 'I' for Inactive)
REMARK    1  A    between atoms: C_1  and  O_2
REMARK    2  A    between atoms: O_2  and  C_3
REMARK    3  A    between atoms: C_3  and  C_5
REMARK    4  A    between atoms: C_5  and  C_6
REMARK    5  A    between atoms: C_6  and  N_7
REMARK    6  A    between atoms: C_19  and  C_21
REMARK                            x       y       z     vdW  Elec       q    Type
REMARK                         _______ _______ _______ _____ _____    ______ ____
ROOT
ATOM      1  N   UNL     1       2.628  -3.839  -4.461  0.00  0.00    -0.299 N 
ATOM      2  C   UNL     1       2.034  -4.590  -3.512  0.00  0.00    +0.303 C 
ATOM      3  O   UNL     1       1.526  -4.056  -2.545  0.00  0.00    -0.253 OA
ATOM      4  N   UNL     1       2.003  -5.931  -3.635  0.00  0.00    -0.273 N 
ATOM      5  C   UNL     1       1.317  -6.765  -2.637  0.00  0.00    +0.116 C 
ATOM      6  C   UNL     1       2.347  -7.656  -1.931  0.00  0.00    +0.076 C 
ATOM      7  C   UNL     1       3.260  -8.261  -2.967  0.00  0.00    +0.066 A 
ATOM      8  C   UNL     1       3.401  -7.793  -4.226  0.00  0.00    +0.064 A 
ATOM      9  N   UNL     1       4.306  -8.590  -4.854  0.00  0.00    -0.346 N 
ATOM     10  H   UNL     1       4.616  -8.502  -5.769  0.00  0.00    +0.167 HD
ATOM     11  C   UNL     1       4.692  -9.530  -3.960  0.00  0.00    +0.197 A 
ATOM     12  N   UNL     1       4.060  -9.324  -2.834  0.00  0.00    -0.240 NA
ATOM     13  C   UNL     1       2.652  -6.601  -4.778  0.00  0.00    +0.158 C 
ATOM     14  H   UNL     1       3.102  -4.267  -5.191  0.00  0.00    +0.150 HD
ENDROOT
BRANCH  13  15
ATOM     15  C   UNL     1       1.608  -7.058  -5.764  0.00  0.00    -0.001 A 
ATOM     16  C   UNL     1       1.194  -8.377  -5.771  0.00  0.00    +0.007 A 
ATOM     17  C   UNL     1       0.237  -8.797  -6.676  0.00  0.00    +0.002 A 
ATOM     18  C   UNL     1      -0.308  -7.899  -7.574  0.00  0.00    +0.021 A 
ATOM     19  C   UNL     1       0.105  -6.579  -7.568  0.00  0.00    +0.060 A 
ATOM     20  C   UNL     1       1.059  -6.156  -6.658  0.00  0.00    +0.065 A 
ATOM     21 CL   UNL     1       1.573  -4.498  -6.644  0.00  0.00    -0.082 Cl
ATOM     22 CL   UNL     1      -0.579  -5.450  -8.697  0.00  0.00    -0.082 Cl
ENDBRANCH  13  15
BRANCH   1  23
ATOM     23  C   UNL     1       2.558  -2.378  -4.389  0.00  0.00    +0.117 C 
BRANCH  23  24
ATOM     24  C   UNL     1       3.308  -1.772  -5.577  0.00  0.00    +0.139 C 
BRANCH  24  25
ATOM     25  C   UNL     1       3.236  -0.269  -5.503  0.00  0.00    +0.308 C 
ATOM     26  O   UNL     1       2.646   0.264  -4.594  0.00  0.00    -0.251 OA
BRANCH  25  28
ATOM     27  C   UNL     1       3.720   1.897  -6.316  0.00  0.00    +0.280 C 
ATOM     28  O   UNL     1       3.828   0.479  -6.449  0.00  0.00    -0.468 OA
ENDBRANCH  25  28
ENDBRANCH  24  25
ENDBRANCH  23  24
ENDBRANCH   1  23
TORSDOF 5
