REMARK  Name = ZINC36541685
REMARK  13 active torsions:
REMARK  status: ('A' for Active; 'I' for Inactive)
REMARK    1  A    between atoms: C_1  and  C_2
REMARK    2  A    between atoms: C_7  and  C_8
REMARK    3  A    between atoms: C_8  and  C_10
REMARK    4  A    between atoms: C_8  and  N_17
REMARK    5  A    between atoms: N_12  and  C_13
REMARK    6  A    between atoms: C_13  and  C_14
REMARK    7  A    between atoms: C_13  and  C_15
REMARK    8  A    between atoms: C_13  and  C_16
REMARK    9  A    between atoms: N_17  and  C_18
REMARK   10  A    between atoms: C_25  and  C_27
REMARK   11  A    between atoms: C_35  and  C_37
REMARK   12  A    between atoms: C_38  and  C_39
REMARK   13  A    between atoms: C_38  and  C_40
REMARK                            x       y       z     vdW  Elec       q    Type
REMARK                         _______ _______ _______ _____ _____    ______ ____
ROOT
ATOM      1  N   UNL     1      -0.198   0.024   4.072  0.00  0.00    -0.254 N 
ATOM      2  C   UNL     1      -1.465  -0.266   4.427  0.00  0.00    +0.224 C 
ATOM      3  O   UNL     1      -2.364  -0.142   3.623  0.00  0.00    -0.275 OA
ENDROOT
BRANCH   2   4
ATOM      4  C   UNL     1      -1.768  -0.748   5.834  0.00  0.00    +0.079 C 
ATOM      5  C   UNL     1      -1.764  -2.273   5.842  0.00  0.00    +0.017 C 
ATOM      6  C   UNL     1      -2.828  -2.860   6.768  0.00  0.00    -0.004 C 
ATOM      7  C   UNL     1      -4.244  -2.396   6.364  0.00  0.00    +0.008 C 
ATOM      8  C   UNL     1      -3.886  -1.123   7.172  0.00  0.00    -0.001 C 
ATOM      9  C   UNL     1      -3.103  -0.163   6.278  0.00  0.00    +0.001 C 
ATOM     10  C   UNL     1      -2.897   1.185   6.976  0.00  0.00    +0.008 C 
ATOM     11  C   UNL     1      -3.050  -2.051   8.053  0.00  0.00    -0.029 C 
ATOM     12  C   UNL     1      -3.889  -2.809   9.102  0.00  0.00    +0.011 C 
ATOM     13  C   UNL     1      -1.793  -1.465   8.687  0.00  0.00    +0.011 C 
ENDBRANCH   2   4
BRANCH   1  14
ATOM     14  C   UNL     1       0.853  -0.226   4.962  0.00  0.00    +0.056 A 
ATOM     15  C   UNL     1       1.234   0.744   5.880  0.00  0.00    +0.025 A 
ATOM     16  C   UNL     1       2.272   0.494   6.756  0.00  0.00    +0.002 A 
ATOM     17  C   UNL     1       2.931  -0.721   6.722  0.00  0.00    +0.002 A 
ATOM     18  C   UNL     1       2.555  -1.690   5.810  0.00  0.00    +0.022 A 
ATOM     19  C   UNL     1       1.514  -1.448   4.934  0.00  0.00    +0.062 A 
ATOM     20 CL   UNL     1       1.037  -2.668   3.794  0.00  0.00    -0.082 Cl
ENDBRANCH   1  14
BRANCH   1  21
ATOM     21  C   UNL     1       0.080   0.601   2.755  0.00  0.00    +0.197 C 
BRANCH  21  28
ATOM     22  C   UNL     1      -0.726  -1.763   1.302  0.00  0.00    +0.044 C 
ATOM     23  C   UNL     1       0.727  -1.368   1.352  0.00  0.00    -0.045 A 
ATOM     24  C   UNL     1       1.674  -2.134   0.697  0.00  0.00    +0.004 A 
ATOM     25  C   UNL     1       3.007  -1.772   0.743  0.00  0.00    +0.000 A 
ATOM     26  C   UNL     1       3.394  -0.644   1.442  0.00  0.00    +0.000 A 
ATOM     27  C   UNL     1       2.447   0.122   2.096  0.00  0.00    +0.006 A 
ATOM     28  C   UNL     1       1.113  -0.237   2.047  0.00  0.00    -0.015 A 
ENDBRANCH  21  28
BRANCH  21  29
ATOM     29  C   UNL     1       0.601   2.005   2.921  0.00  0.00    +0.239 C 
ATOM     30  O   UNL     1       0.936   2.402   4.017  0.00  0.00    -0.273 OA
ATOM     31  N   UNL     1       0.694   2.820   1.852  0.00  0.00    -0.309 N 
ATOM     32  H   UNL     1       0.354   2.531   0.990  0.00  0.00    +0.149 HD
BRANCH  31  33
ATOM     33  C   UNL     1       1.307   4.144   1.990  0.00  0.00    +0.026 C 
ATOM     34  C   UNL     1       2.754   3.988   2.463  0.00  0.00    +0.031 C 
ATOM     35  C   UNL     1       1.287   4.859   0.638  0.00  0.00    +0.031 C 
ATOM     36  C   UNL     1       0.522   4.965   3.014  0.00  0.00    +0.031 C 
ENDBRANCH  31  33
ENDBRANCH  21  29
ENDBRANCH   1  21
TORSDOF 6
