REMARK  Name = ZINC16961876
REMARK  12 active torsions:
REMARK  status: ('A' for Active; 'I' for Inactive)
REMARK    1  A    between atoms: C_1  and  C_2
REMARK    2  A    between atoms: C_2  and  C_3
REMARK    3  A    between atoms: C_3  and  C_4
REMARK    4  A    between atoms: C_4  and  N_5
REMARK    5  A    between atoms: N_5  and  C_6
REMARK    6  A    between atoms: C_7  and  N_22
REMARK    7  A    between atoms: N_8  and  C_15
REMARK    8  A    between atoms: C_15  and  C_16
REMARK    9  A    between atoms: C_23  and  C_25
REMARK   10  A    between atoms: C_34  and  O_35
REMARK   11  A    between atoms: O_35  and  C_36
REMARK   12  A    between atoms: C_36  and  C_37
REMARK                            x       y       z     vdW  Elec       q    Type
REMARK                         _______ _______ _______ _____ _____    ______ ____
ROOT
ATOM      1  N   UNL     1      -0.775   7.144   1.399  0.00  0.00    -0.260 N 
ATOM      2  C   UNL     1      -1.000   5.832   1.191  0.00  0.00    +0.255 C 
ATOM      3  O   UNL     1      -1.596   5.177   2.025  0.00  0.00    -0.270 OA
ENDROOT
BRANCH   2   4
ATOM      4  C   UNL     1      -0.522   5.188  -0.048  0.00  0.00    +0.079 A 
ATOM      5  C   UNL     1      -0.411   5.933  -1.212  0.00  0.00    +0.025 A 
ATOM      6  C   UNL     1       0.042   5.316  -2.386  0.00  0.00    -0.017 A 
ATOM      7  C   UNL     1       0.167   6.041  -3.585  0.00  0.00    +0.008 A 
ATOM      8  C   UNL     1       0.610   5.415  -4.708  0.00  0.00    +0.001 A 
ATOM      9  C   UNL     1       0.944   4.061  -4.691  0.00  0.00    +0.001 A 
ATOM     10  C   UNL     1       0.836   3.327  -3.550  0.00  0.00    +0.008 A 
ATOM     11  C   UNL     1       0.382   3.938  -2.368  0.00  0.00    -0.014 A 
ATOM     12  C   UNL     1       0.265   3.207  -1.175  0.00  0.00    +0.055 A 
ATOM     13  C   UNL     1      -0.182   3.819  -0.041  0.00  0.00    +0.133 A 
BRANCH  13  14
ATOM     14  O   UNL     1      -0.296   3.105   1.108  0.00  0.00    -0.491 OA
BRANCH  14  15
ATOM     15  C   UNL     1       0.063   1.723   1.051  0.00  0.00    +0.226 C 
ATOM     16  C   UNL     1      -0.129   1.089   2.430  0.00  0.00    +0.048 C 
ENDBRANCH  14  15
ENDBRANCH  13  14
ENDBRANCH   2   4
BRANCH   1  17
ATOM     17  C   UNL     1      -0.192   7.929   0.383  0.00  0.00    +0.140 A 
ATOM     18  C   UNL     1       1.066   7.630  -0.101  0.00  0.00    +0.128 A 
ATOM     19  N   UNL     1       1.606   8.411  -1.096  0.00  0.00    -0.276 N 
ATOM     20  C   UNL     1       0.920   9.461  -1.585  0.00  0.00    +0.331 A 
ATOM     21  O   UNL     1       1.417  10.143  -2.461  0.00  0.00    -0.246 OA
ATOM     22  N   UNL     1      -0.304   9.771  -1.122  0.00  0.00    -0.273 N 
ATOM     23  H   UNL     1      -0.792  10.556  -1.503  0.00  0.00    +0.173 HD
ATOM     24  C   UNL     1      -0.880   9.035  -0.152  0.00  0.00    +0.277 A 
ATOM     25  O   UNL     1      -1.990   9.324   0.260  0.00  0.00    -0.266 OA
BRANCH  18  26
ATOM     26  N   UNL     1       1.768   6.562   0.402  0.00  0.00    -0.343 N 
ATOM     27  H   UNL     1       1.358   5.978   1.059  0.00  0.00    +0.144 HD
ATOM     28  H   UNL     1       2.675   6.392   0.101  0.00  0.00    +0.144 HD
ENDBRANCH  18  26
BRANCH  19  29
ATOM     29  C   UNL     1       2.937   8.102  -1.623  0.00  0.00    +0.163 C 
BRANCH  29  30
ATOM     30  C   UNL     1       3.978   8.837  -0.818  0.00  0.00    -0.028 A 
ATOM     31  C   UNL     1       4.381  10.103  -1.199  0.00  0.00    +0.005 A 
ATOM     32  C   UNL     1       5.332  10.779  -0.458  0.00  0.00    +0.000 A 
ATOM     33  C   UNL     1       5.889  10.184   0.658  0.00  0.00    +0.000 A 
ATOM     34  C   UNL     1       5.490   8.915   1.037  0.00  0.00    +0.000 A 
ATOM     35  C   UNL     1       4.535   8.242   0.299  0.00  0.00    +0.005 A 
ENDBRANCH  29  30
ENDBRANCH  19  29
ENDBRANCH   1  17
BRANCH   1  36
ATOM     36  C   UNL     1      -1.136   7.755   2.680  0.00  0.00    +0.114 C 
BRANCH  36  37
ATOM     37  C   UNL     1       0.004   7.552   3.681  0.00  0.00    +0.019 C 
BRANCH  37  39
ATOM     38  C   UNL     1       0.766   7.987   6.021  0.00  0.00    +0.004 C 
ATOM     39  C   UNL     1      -0.373   8.191   5.020  0.00  0.00    -0.002 C 
ENDBRANCH  37  39
ENDBRANCH  36  37
ENDBRANCH   1  36
TORSDOF 10
