REMARK  Name = ZINC23479201
REMARK  7 active torsions:
REMARK  status: ('A' for Active; 'I' for Inactive)
REMARK    1  A    between atoms: N_9  and  C_10
REMARK    2  A    between atoms: C_10  and  C_11
REMARK    3  A    between atoms: C_11  and  C_12
REMARK    4  A    between atoms: C_12  and  N_13
REMARK    5  A    between atoms: C_14  and  C_16
REMARK    6  A    between atoms: C_16  and  N_17
REMARK    7  A    between atoms: C_21  and  N_24
REMARK                            x       y       z     vdW  Elec       q    Type
REMARK                         _______ _______ _______ _____ _____    ______ ____
ROOT
ATOM      1  N   UNL     1      -6.190   3.380  -2.747  0.00  0.00    -0.314 N 
ATOM      2  C   UNL     1      -7.497   3.148  -2.982  0.00  0.00    +0.235 C 
ATOM      3  O   UNL     1      -8.264   3.006  -2.053  0.00  0.00    -0.274 OA
ATOM      4  H   UNL     1      -5.494   3.509  -3.588  0.00  0.00    +0.149 HD
ENDROOT
BRANCH   1   5
ATOM      5  C   UNL     1      -5.697   3.459  -1.369  0.00  0.00    +0.106 C 
BRANCH   5   6
ATOM      6  C   UNL     1      -4.191   3.727  -1.382  0.00  0.00    +0.042 C 
BRANCH   6   7
ATOM      7  C   UNL     1      -3.675   3.810   0.056  0.00  0.00    +0.147 C 
BRANCH   7  16
ATOM      8  C   UNL     1       1.184   1.781   0.000  0.00  0.00    +0.002 A 
ATOM      9  C   UNL     1      -0.013   1.076   0.008  0.00  0.00    +0.002 A 
ATOM     10  C   UNL     1      -1.209   1.737   0.017  0.00  0.00    +0.029 A 
ATOM     11  C   UNL     1      -1.230   3.127   0.030  0.00  0.00    +0.089 A 
ATOM     12  C   UNL     1      -0.022   3.847   0.022  0.00  0.00    +0.113 A 
ATOM     13  C   UNL     1       1.191   3.145   0.007  0.00  0.00    +0.032 A 
ATOM     14  N   UNL     1      -0.328   5.160   0.032  0.00  0.00    -0.129 NA
ATOM     15  N   UNL     1      -1.604   5.321   0.044  0.00  0.00    -0.065 NA
ATOM     16  N   UNL     1      -2.233   4.067   0.044  0.00  0.00    -0.244 N 
ENDBRANCH   7  16
ENDBRANCH   6   7
ENDBRANCH   5   6
ENDBRANCH   1   5
BRANCH   2  17
ATOM     17  C   UNL     1      -8.005   3.067  -4.398  0.00  0.00    +0.243 C 
BRANCH  17  18
ATOM     18  N   UNL     1      -9.447   2.809  -4.386  0.00  0.00    -0.220 N 
ATOM     19  C   UNL     1     -10.310   3.844  -4.368  0.00  0.00    +0.269 A 
ATOM     20  O   UNL     1      -9.893   4.992  -4.362  0.00  0.00    -0.266 OA
ATOM     21  C   UNL     1     -11.689   3.595  -4.361  0.00  0.00    +0.096 A 
ATOM     22  C   UNL     1     -12.135   2.287  -4.363  0.00  0.00    +0.055 A 
ATOM     23  C   UNL     1     -11.194   1.234  -4.377  0.00  0.00    +0.156 A 
ATOM     24  N   UNL     1      -9.916   1.492  -4.388  0.00  0.00    -0.174 NA
BRANCH  22  25
ATOM     25  N   UNL     1     -13.491   2.011  -4.351  0.00  0.00    -0.329 N 
ATOM     26  C   UNL     1     -14.289   3.263  -4.401  0.00  0.00    +0.105 C 
ATOM     27  C   UNL     1     -15.673   2.781  -4.904  0.00  0.00    +0.020 C 
ATOM     28  C   UNL     1     -15.305   1.687  -5.932  0.00  0.00    +0.020 C 
ATOM     29  C   UNL     1     -13.884   1.235  -5.547  0.00  0.00    +0.105 C 
ENDBRANCH  22  25
ENDBRANCH  17  18
ENDBRANCH   2  17
TORSDOF 7
