REMARK  Name = ZINC36160957
REMARK  4 active torsions:
REMARK  status: ('A' for Active; 'I' for Inactive)
REMARK    1  A    between atoms: C_2  and  C_11
REMARK    2  A    between atoms: C_11  and  C_13
REMARK    3  A    between atoms: C_11  and  N_15
REMARK    4  A    between atoms: C_13  and  N_14
REMARK                            x       y       z     vdW  Elec       q    Type
REMARK                         _______ _______ _______ _____ _____    ______ ____
ROOT
ATOM      1  C   UNL     1       1.067   3.547   0.150  0.00  0.00    +0.070 C 
ENDROOT
BRANCH   1   3
ATOM      2  C   UNL     1       0.141   1.222   0.101  0.00  0.00    +0.054 A 
ATOM      3  C   UNL     1       1.247   2.052   0.080  0.00  0.00    -0.027 A 
ATOM      4  C   UNL     1       2.517   1.514  -0.008  0.00  0.00    +0.029 A 
ATOM      5  C   UNL     1       2.687   0.142  -0.074  0.00  0.00    +0.087 A 
ATOM      6  C   UNL     1       1.582  -0.695  -0.052  0.00  0.00    +0.184 A 
ATOM      7  C   UNL     1       0.303  -0.152   0.036  0.00  0.00    +0.168 A 
ATOM      8  O   UNL     1      -0.605  -1.171   0.039  0.00  0.00    -0.453 OA
ATOM      9  C   UNL     1       0.106  -2.320  -0.458  0.00  0.00    +0.466 C 
ATOM     10  O   UNL     1       1.476  -2.055  -0.104  0.00  0.00    -0.451 OA
ATOM     11 CL   UNL     1       4.283  -0.530  -0.184  0.00  0.00    -0.080 Cl
ENDBRANCH   1   3
BRANCH   1  12
ATOM     12  N   UNL     1       2.106   4.124   1.014  0.00  0.00    -0.294 NA
ATOM     13  C   UNL     1       2.119   3.474   2.326  0.00  0.00    +0.107 C 
ATOM     14  C   UNL     1       3.446   3.762   3.037  0.00  0.00    +0.181 C 
ATOM     15  S   UNL     1       3.584   5.557   3.298  0.00  0.00    -0.029 S 
ATOM     16  O   UNL     1       4.927   5.861   3.649  0.00  0.00    -0.174 OA
ATOM     17  O   UNL     1       2.531   5.972   4.157  0.00  0.00    -0.174 OA
ATOM     18  C   UNL     1       3.262   6.199   1.627  0.00  0.00    +0.181 C 
ATOM     19  C   UNL     1       1.960   5.579   1.109  0.00  0.00    +0.107 C 
ENDBRANCH   1  12
BRANCH   1  20
ATOM     20  C   UNL     1       1.183   4.141  -1.254  0.00  0.00    -0.063 C 
BRANCH  20  21
ATOM     21  N   UNL     1       0.099   3.619  -2.098  0.00  0.00    +0.379 N 
ATOM     22  H   UNL     1       0.132   2.611  -2.102  0.00  0.00    -0.090 HD
ATOM     23  H   UNL     1      -0.790   3.926  -1.731  0.00  0.00    -0.090 HD
ATOM     24  H   UNL     1       0.210   3.963  -3.040  0.00  0.00    -0.090 HD
ENDBRANCH  20  21
ENDBRANCH   1  20
TORSDOF 4
