REMARK  Name = ZINC09348174
REMARK  8 active torsions:
REMARK  status: ('A' for Active; 'I' for Inactive)
REMARK    1  A    between atoms: C_1  and  C_2
REMARK    2  A    between atoms: C_5  and  N_9
REMARK    3  A    between atoms: C_6  and  C_8
REMARK    4  A    between atoms: C_24  and  C_30
REMARK    5  A    between atoms: C_30  and  C_32
REMARK    6  A    between atoms: C_35  and  O_38
REMARK    7  A    between atoms: O_38  and  C_39
REMARK    8  A    between atoms: C_39  and  C_41
REMARK                            x       y       z     vdW  Elec       q    Type
REMARK                         _______ _______ _______ _____ _____    ______ ____
ROOT
ATOM      1  N   UNL     1      -2.422   4.041  -0.033  0.00  0.00    -0.210 N 
ATOM      2  C   UNL     1      -3.070   4.371   1.129  0.00  0.00    +0.232 C 
ATOM      3  O   UNL     1      -2.597   4.448   2.243  0.00  0.00    -0.274 OA
ATOM      4  C   UNL     1      -4.460   4.612   0.734  0.00  0.00    +0.113 C 
ATOM      5  C   UNL     1      -5.493   5.546   1.262  0.00  0.00    +0.100 C 
ATOM      6  C   UNL     1      -6.371   4.936   2.322  0.00  0.00    -0.021 A 
ATOM      7  C   UNL     1      -5.862   4.101   3.273  0.00  0.00    +0.006 A 
ATOM      8  C   UNL     1      -6.685   3.556   4.242  0.00  0.00    +0.000 A 
ATOM      9  C   UNL     1      -8.039   3.842   4.248  0.00  0.00    +0.001 A 
ATOM     10  C   UNL     1      -8.579   4.662   3.280  0.00  0.00    +0.008 A 
ATOM     11  C   UNL     1      -7.759   5.200   2.285  0.00  0.00    -0.019 A 
ATOM     12  C   UNL     1      -8.341   6.066   1.241  0.00  0.00    +0.022 C 
ATOM     13  C   UNL     1      -7.613   6.370   0.150  0.00  0.00    +0.054 C 
ATOM     14  C   UNL     1      -5.625   5.378  -1.150  0.00  0.00    +0.141 C 
ATOM     15  C   UNL     1      -4.197   5.286  -0.676  0.00  0.00    +0.116 C 
ATOM     16  C   UNL     1      -3.152   4.357  -1.150  0.00  0.00    +0.232 C 
ATOM     17  O   UNL     1      -2.977   3.959  -2.281  0.00  0.00    -0.274 OA
ATOM     18  N   UNL     1      -6.114   6.110   0.080  0.00  0.00    -0.384 NA
ATOM     19  H   UNL     1      -5.709   7.051   0.006  0.00  0.00    +0.127 HD
ENDROOT
BRANCH   1  24
ATOM     20  C   UNL     1       2.708   1.618  -0.204  0.00  0.00    +0.044 C 
ATOM     21  C   UNL     1       1.346   2.261  -0.159  0.00  0.00    -0.050 A 
ATOM     22  C   UNL     1       1.233   3.640  -0.165  0.00  0.00    +0.005 A 
ATOM     23  C   UNL     1      -0.013   4.232  -0.123  0.00  0.00    +0.024 A 
ATOM     24  C   UNL     1      -1.155   3.443  -0.075  0.00  0.00    +0.047 A 
ATOM     25  C   UNL     1      -1.039   2.059  -0.074  0.00  0.00    -0.028 A 
ATOM     26  C   UNL     1       0.211   1.472  -0.111  0.00  0.00    +0.008 A 
ATOM     27  C   UNL     1      -2.275   1.199  -0.028  0.00  0.00    +0.046 C 
ENDBRANCH   1  24
BRANCH  14  28
ATOM     28  C   UNL     1      -6.126   4.030  -1.600  0.00  0.00    +0.183 C 
ATOM     29  O   UNL     1      -6.893   3.403  -0.900  0.00  0.00    -0.290 OA
BRANCH  28  30
ATOM     30  C   UNL     1      -5.684   3.474  -2.886  0.00  0.00    +0.019 A 
ATOM     31  C   UNL     1      -4.803   4.198  -3.699  0.00  0.00    +0.015 A 
ATOM     32  C   UNL     1      -4.389   3.671  -4.901  0.00  0.00    +0.047 A 
ATOM     33  C   UNL     1      -4.852   2.426  -5.313  0.00  0.00    +0.132 A 
ATOM     34  C   UNL     1      -5.732   1.706  -4.513  0.00  0.00    +0.047 A 
ATOM     35  C   UNL     1      -6.148   2.222  -3.307  0.00  0.00    +0.015 A 
BRANCH  33  36
ATOM     36  O   UNL     1      -4.444   1.913  -6.502  0.00  0.00    -0.426 OA
BRANCH  36  37
ATOM     37  C   UNL     1      -5.364   1.824  -7.476  0.00  0.00    +0.309 C 
ATOM     38  O   UNL     1      -6.468   2.287  -7.309  0.00  0.00    -0.251 OA
ATOM     39  C   UNL     1      -5.021   1.146  -8.777  0.00  0.00    +0.136 C 
ENDBRANCH  36  37
ENDBRANCH  33  36
ENDBRANCH  28  30
ENDBRANCH  14  28
TORSDOF 5
