REMARK  Name = ZINC38705057
REMARK  14 active torsions:
REMARK  status: ('A' for Active; 'I' for Inactive)
REMARK    1  A    between atoms: C_1  and  C_2
REMARK    2  A    between atoms: C_2  and  O_3
REMARK    3  A    between atoms: O_3  and  C_4
REMARK    4  A    between atoms: C_6  and  C_11
REMARK    5  A    between atoms: C_9  and  O_10
REMARK    6  A    between atoms: C_14  and  C_32
REMARK    7  A    between atoms: N_21  and  C_22
REMARK    8  A    between atoms: C_22  and  C_23
REMARK    9  A    between atoms: C_23  and  C_24
REMARK   10  A    between atoms: C_27  and  O_30
REMARK   11  A    between atoms: O_30  and  C_31
REMARK   12  A    between atoms: C_33  and  C_40
REMARK   13  A    between atoms: C_35  and  C_39
REMARK   14  A    between atoms: C_37  and  O_38
REMARK                            x       y       z     vdW  Elec       q    Type
REMARK                         _______ _______ _______ _____ _____    ______ ____
ROOT
ATOM      1  C   UNL     1      -0.131  -4.906   0.104  0.00  0.00    +0.141 C 
ATOM      2  C   UNL     1      -1.542  -5.380  -0.116  0.00  0.00    +0.035 A 
ATOM      3  C   UNL     1      -2.889  -5.039  -0.280  0.00  0.00    +0.102 A 
ATOM      4  N   UNL     1      -3.563  -6.161  -0.438  0.00  0.00    -0.173 NA
ATOM      5  N   UNL     1      -2.775  -7.176  -0.389  0.00  0.00    -0.272 N 
ATOM      6  H   UNL     1      -3.053  -8.101  -0.482  0.00  0.00    +0.189 HD
ATOM      7  C   UNL     1      -1.490  -6.759  -0.190  0.00  0.00    +0.126 A 
ATOM      8  C   UNL     1      -0.096  -7.183  -0.024  0.00  0.00    +0.265 C 
ATOM      9  O   UNL     1       0.285  -8.338  -0.040  0.00  0.00    -0.268 OA
ATOM     10  N   UNL     1       0.703  -6.113   0.148  0.00  0.00    -0.285 N 
ENDROOT
BRANCH   3  11
ATOM     11  C   UNL     1      -3.454  -3.667  -0.277  0.00  0.00    +0.047 A 
ATOM     12  C   UNL     1      -4.339  -3.273  -1.278  0.00  0.00    -0.037 A 
ATOM     13  C   UNL     1      -4.862  -1.996  -1.270  0.00  0.00    +0.007 A 
ATOM     14  C   UNL     1      -4.512  -1.105  -0.272  0.00  0.00    -0.047 A 
ATOM     15  C   UNL     1      -3.635  -1.486   0.726  0.00  0.00    +0.049 A 
ATOM     16  C   UNL     1      -3.107  -2.767   0.734  0.00  0.00    +0.127 A 
ATOM     17  C   UNL     1      -5.088   0.287  -0.272  0.00  0.00    +0.044 C 
ATOM     18  C   UNL     1      -4.723  -4.240  -2.368  0.00  0.00    +0.044 C 
BRANCH  16  19
ATOM     19  O   UNL     1      -2.249  -3.145   1.718  0.00  0.00    -0.506 OA
ATOM     20  H   UNL     1      -1.326  -2.914   1.545  0.00  0.00    +0.292 HD
ENDBRANCH  16  19
ENDBRANCH   3  11
BRANCH   1  23
ATOM     21  C   UNL     1       0.854  -1.842  -1.875  0.00  0.00    +0.162 A 
ATOM     22  C   UNL     1       0.456  -2.659  -0.829  0.00  0.00    +0.055 A 
ATOM     23  C   UNL     1       0.301  -4.018  -1.034  0.00  0.00    -0.019 A 
ATOM     24  C   UNL     1       0.542  -4.564  -2.282  0.00  0.00    +0.009 A 
ATOM     25  C   UNL     1       0.939  -3.753  -3.329  0.00  0.00    +0.049 A 
ATOM     26  C   UNL     1       1.091  -2.390  -3.132  0.00  0.00    +0.158 A 
BRANCH  26  27
ATOM     27  O   UNL     1       1.475  -1.591  -4.162  0.00  0.00    -0.503 OA
ATOM     28  H   UNL     1       2.433  -1.489  -4.245  0.00  0.00    +0.292 HD
ENDBRANCH  26  27
BRANCH  21  29
ATOM     29  O   UNL     1       1.006  -0.505  -1.675  0.00  0.00    -0.489 OA
BRANCH  29  31
ATOM     30  C   UNL     1       0.969   1.501  -0.328  0.00  0.00    +0.048 C 
ATOM     31  C   UNL     1       0.746  -0.012  -0.359  0.00  0.00    +0.226 C 
ENDBRANCH  29  31
ENDBRANCH  21  29
ENDBRANCH   1  23
BRANCH  10  32
ATOM     32  C   UNL     1       2.155  -6.147   0.345  0.00  0.00    +0.114 C 
BRANCH  32  33
ATOM     33  C   UNL     1       2.465  -6.241   1.840  0.00  0.00    +0.054 C 
BRANCH  33  34
ATOM     34  C   UNL     1       3.958  -6.275   2.042  0.00  0.00    -0.046 A 
ATOM     35  C   UNL     1       4.624  -7.487   2.058  0.00  0.00    +0.007 A 
ATOM     36  C   UNL     1       5.993  -7.521   2.244  0.00  0.00    +0.046 A 
ATOM     37  C   UNL     1       6.698  -6.338   2.414  0.00  0.00    +0.120 A 
ATOM     38  C   UNL     1       6.027  -5.124   2.398  0.00  0.00    +0.046 A 
ATOM     39  C   UNL     1       4.659  -5.095   2.207  0.00  0.00    +0.007 A 
BRANCH  37  40
ATOM     40  O   UNL     1       8.045  -6.370   2.598  0.00  0.00    -0.495 OA
ATOM     41  C   UNL     1       8.705  -5.114   2.767  0.00  0.00    +0.277 C 
ENDBRANCH  37  40
ENDBRANCH  33  34
ENDBRANCH  32  33
ENDBRANCH  10  32
TORSDOF 10
