REMARK  Name = ZINC38000947
REMARK  5 active torsions:
REMARK  status: ('A' for Active; 'I' for Inactive)
REMARK    1  A    between atoms: C_2  and  C_11
REMARK    2  A    between atoms: C_11  and  C_13
REMARK    3  A    between atoms: C_11  and  N_16
REMARK    4  A    between atoms: N_16  and  C_17
REMARK    5  A    between atoms: C_17  and  C_18
REMARK                            x       y       z     vdW  Elec       q    Type
REMARK                         _______ _______ _______ _____ _____    ______ ____
ROOT
ATOM      1  C   UNL     1       1.147   3.596   0.010  0.00  0.00    +0.047 C 
ENDROOT
BRANCH   1   3
ATOM      2  C   UNL     1      -0.017   1.381   0.010  0.00  0.00    +0.052 A 
ATOM      3  C   UNL     1       1.171   2.090   0.002  0.00  0.00    -0.048 A 
ATOM      4  C   UNL     1       2.379   1.419  -0.013  0.00  0.00    +0.021 A 
ATOM      5  C   UNL     1       2.406   0.036  -0.021  0.00  0.00    +0.063 A 
ATOM      6  C   UNL     1       1.220  -0.680  -0.014  0.00  0.00    +0.180 A 
ATOM      7  C   UNL     1       0.002  -0.004   0.002  0.00  0.00    +0.168 A 
ATOM      8  O   UNL     1      -1.007  -0.923   0.006  0.00  0.00    -0.453 OA
ATOM      9  C   UNL     1      -0.404  -2.159  -0.419  0.00  0.00    +0.466 C 
ATOM     10  O   UNL     1       0.973  -2.023  -0.020  0.00  0.00    -0.451 OA
ATOM     11 BR   UNL     1       4.061  -0.877  -0.043  0.00  0.00    -0.046 Br
ENDBRANCH   1   3
BRANCH   1  12
ATOM     12  C   UNL     1       1.372   4.110  -1.388  0.00  0.00    +0.201 C 
ATOM     13  O   UNL     1       2.324   4.824  -1.626  0.00  0.00    -0.277 OA
ATOM     14  N   UNL     1       0.517   3.776  -2.375  0.00  0.00    -0.330 N 
ATOM     15  H   UNL     1      -0.244   3.206  -2.184  0.00  0.00    +0.145 HD
ATOM     16  H   UNL     1       0.662   4.107  -3.275  0.00  0.00    +0.145 HD
ENDBRANCH   1  12
BRANCH   1  17
ATOM     17  N   UNL     1       2.209   4.098   0.893  0.00  0.00    +0.390 N 
ATOM     18  H   UNL     1       2.105   3.689   1.810  0.00  0.00    -0.084 HD
ATOM     19  H   UNL     1       3.109   3.847   0.513  0.00  0.00    -0.084 HD
BRANCH  17  20
ATOM     20  C   UNL     1       2.110   5.560   0.996  0.00  0.00    -0.078 C 
BRANCH  20  21
ATOM     21  C   UNL     1       3.216   6.082   1.915  0.00  0.00    -0.028 C 
ATOM     22  C   UNL     1       2.789   6.771   3.213  0.00  0.00    +0.002 C 
ATOM     23  C   UNL     1       3.357   7.599   2.059  0.00  0.00    +0.002 C 
ENDBRANCH  20  21
ENDBRANCH  17  20
ENDBRANCH   1  17
TORSDOF 5
