REMARK  Name = ZINC46672764
REMARK  11 active torsions:
REMARK  status: ('A' for Active; 'I' for Inactive)
REMARK    1  A    between atoms: C_1  and  N_2
REMARK    2  A    between atoms: N_2  and  C_3
REMARK    3  A    between atoms: N_2  and  C_4
REMARK    4  A    between atoms: C_4  and  C_6
REMARK    5  A    between atoms: C_4  and  C_25
REMARK    6  A    between atoms: C_6  and  N_7
REMARK    7  A    between atoms: C_8  and  C_10
REMARK    8  A    between atoms: C_10  and  C_11
REMARK    9  A    between atoms: C_11  and  C_12
REMARK   10  A    between atoms: C_12  and  C_13
REMARK   11  A    between atoms: C_15  and  C_18
REMARK                            x       y       z     vdW  Elec       q    Type
REMARK                         _______ _______ _______ _____ _____    ______ ____
ROOT
ATOM      1  N   UNL     1      -0.964  -2.611   0.830  0.00  0.00    -0.317 N 
ATOM      2  C   UNL     1      -1.054  -3.951   0.934  0.00  0.00    +0.213 C 
ATOM      3  O   UNL     1      -1.720  -4.578   0.139  0.00  0.00    -0.276 OA
ATOM      4  H   UNL     1      -0.430  -2.109   1.467  0.00  0.00    +0.149 HD
ENDROOT
BRANCH   1   5
ATOM      5  C   UNL     1      -1.671  -1.911  -0.244  0.00  0.00    +0.093 C 
BRANCH   5   6
ATOM      6  C   UNL     1      -1.510  -0.400  -0.062  0.00  0.00    -0.020 C 
BRANCH   6   7
ATOM      7  C   UNL     1      -0.062  -0.024  -0.246  0.00  0.00    -0.041 A 
ATOM      8  C   UNL     1       0.770   0.082   0.852  0.00  0.00    +0.003 A 
ATOM      9  C   UNL     1       2.098   0.427   0.683  0.00  0.00    +0.000 A 
ATOM     10  C   UNL     1       2.595   0.666  -0.584  0.00  0.00    +0.001 A 
ATOM     11  C   UNL     1       1.764   0.560  -1.684  0.00  0.00    +0.020 A 
ATOM     12  C   UNL     1       0.436   0.210  -1.516  0.00  0.00    +0.043 A 
ATOM     13 CL   UNL     1      -0.607   0.071  -2.897  0.00  0.00    -0.083 Cl
ENDBRANCH   6   7
BRANCH   6  15
ATOM     14  C   UNL     1      -1.832   1.435   1.448  0.00  0.00    -0.096 C 
ATOM     15  N   UNL     1      -1.946  -0.020   1.288  0.00  0.00    +0.382 N 
ATOM     16  C   UNL     1      -3.344  -0.426   1.483  0.00  0.00    -0.096 C 
ATOM     17  H   UNL     1      -1.364  -0.481   1.972  0.00  0.00    -0.082 HD
ENDBRANCH   6  15
ENDBRANCH   5   6
ENDBRANCH   1   5
BRANCH   2  18
ATOM     18  C   UNL     1      -0.325  -4.672   2.040  0.00  0.00    +0.096 C 
BRANCH  18  19
ATOM     19  C   UNL     1      -0.592  -6.174   1.932  0.00  0.00    +0.019 C 
BRANCH  19  20
ATOM     20  C   UNL     1       0.147  -6.906   3.054  0.00  0.00    +0.099 C 
BRANCH  20  21
ATOM     21  C   UNL     1      -0.116  -8.386   2.948  0.00  0.00    +0.228 A 
ATOM     22  N   UNL     1       0.600  -9.239   2.273  0.00  0.00    -0.191 NA
ATOM     23  C   UNL     1       0.082 -10.474   2.396  0.00  0.00    +0.202 A 
ATOM     24  N   UNL     1      -0.980 -10.408   3.161  0.00  0.00    -0.056 NA
ATOM     25  O   UNL     1      -1.121  -9.046   3.536  0.00  0.00    -0.338 OA
BRANCH  23  26
ATOM     26  C   UNL     1       0.622 -11.707   1.770  0.00  0.00    +0.023 A 
ATOM     27  C   UNL     1       1.767 -11.644   0.979  0.00  0.00    +0.013 A 
ATOM     28  C   UNL     1       2.266 -12.792   0.398  0.00  0.00    +0.021 A 
ATOM     29  C   UNL     1       1.631 -14.005   0.602  0.00  0.00    +0.041 A 
ATOM     30  C   UNL     1       0.492 -14.073   1.387  0.00  0.00    +0.021 A 
ATOM     31  C   UNL     1      -0.010 -12.931   1.977  0.00  0.00    +0.013 A 
ATOM     32 CL   UNL     1       2.263 -15.447  -0.131  0.00  0.00    -0.084 Cl
ENDBRANCH  23  26
ENDBRANCH  20  21
ENDBRANCH  19  20
ENDBRANCH  18  19
ENDBRANCH   2  18
TORSDOF 9
