REMARK  Name = ZINC09275776
REMARK  11 active torsions:
REMARK  status: ('A' for Active; 'I' for Inactive)
REMARK    1  A    between atoms: C_1  and  C_2
REMARK    2  A    between atoms: C_2  and  N_59
REMARK    3  A    between atoms: C_3  and  C_4
REMARK    4  A    between atoms: C_3  and  N_59
REMARK    5  A    between atoms: C_5  and  C_6
REMARK    6  A    between atoms: C_5  and  N_59
REMARK    7  A    between atoms: C_6  and  N_7
REMARK    8  A    between atoms: C_8  and  C_26
REMARK    9  A    between atoms: C_11  and  C_12
REMARK   10  A    between atoms: C_11  and  O_21
REMARK   11  A    between atoms: C_29  and  N_32
REMARK                            x       y       z     vdW  Elec       q    Type
REMARK                         _______ _______ _______ _____ _____    ______ ____
ROOT
ATOM      1  N   UNL     1      -5.032   0.725   4.153  0.00  0.00    -0.285 N 
ATOM      2  C   UNL     1      -5.839   1.835   4.669  0.00  0.00    +0.144 C 
ATOM      3  C   UNL     1      -6.367   1.396   6.015  0.00  0.00    +0.074 C 
ATOM      4  C   UNL     1      -7.178   2.126   6.869  0.00  0.00    +0.168 C 
ATOM      5  C   UNL     1      -5.871   0.103   6.226  0.00  0.00    +0.249 C 
ATOM      6  O   UNL     1      -6.079  -0.590   7.206  0.00  0.00    -0.282 OA
ATOM      7  C   UNL     1      -5.052  -0.279   5.046  0.00  0.00    +0.288 C 
ATOM      8  O   UNL     1      -4.481  -1.342   4.910  0.00  0.00    -0.266 OA
ENDROOT
BRANCH   4   9
ATOM      9  C   UNL     1      -7.487   1.611   8.202  0.00  0.00    +0.171 A 
ATOM     10  C   UNL     1      -8.733   1.542   8.750  0.00  0.00    +0.061 A 
ATOM     11  C   UNL     1      -8.582   0.981  10.043  0.00  0.00    +0.021 A 
ATOM     12  C   UNL     1      -9.478   0.663  11.071  0.00  0.00    +0.011 A 
ATOM     13  C   UNL     1      -9.010   0.123  12.234  0.00  0.00    +0.001 A 
ATOM     14  C   UNL     1      -7.653  -0.115  12.405  0.00  0.00    +0.004 A 
ATOM     15  C   UNL     1      -6.754   0.191  11.406  0.00  0.00    +0.047 A 
ATOM     16  C   UNL     1      -7.206   0.742  10.213  0.00  0.00    +0.136 A 
ATOM     17  O   UNL     1      -6.582   1.134   9.084  0.00  0.00    -0.452 OA
ENDBRANCH   4   9
BRANCH   2  18
ATOM     18  C   UNL     1      -4.983   3.066   4.826  0.00  0.00    -0.022 A 
ATOM     19  C   UNL     1      -3.695   2.954   5.315  0.00  0.00    +0.008 A 
ATOM     20  C   UNL     1      -2.908   4.082   5.455  0.00  0.00    +0.033 A 
ATOM     21  C   UNL     1      -3.413   5.323   5.115  0.00  0.00    +0.126 A 
ATOM     22  C   UNL     1      -4.703   5.435   4.631  0.00  0.00    +0.033 A 
ATOM     23  C   UNL     1      -5.488   4.307   4.487  0.00  0.00    +0.008 A 
BRANCH  21  24
ATOM     24  N   UNL     1      -2.572   6.531   5.269  0.00  0.00    +0.056 N 
ATOM     25  O   UNL     1      -3.017   7.625   4.970  0.00  0.00    -0.126 OA
ATOM     26  O   UNL     1      -1.436   6.432   5.696  0.00  0.00    -0.126 OA
ENDBRANCH  21  24
ENDBRANCH   2  18
BRANCH   4  27
ATOM     27  O   UNL     1      -7.684   3.314   6.469  0.00  0.00    -0.503 OA
ATOM     28  H   UNL     1      -8.242   3.702   7.202  0.00  0.00    +0.292 HD
ENDBRANCH   4  27
BRANCH   1  29
ATOM     29  C   UNL     1      -4.325   0.710   2.870  0.00  0.00    +0.090 C 
BRANCH  29  30
ATOM     30  C   UNL     1      -2.910   1.258   3.062  0.00  0.00    -0.060 C 
BRANCH  30  31
ATOM     31  N   UNL     1      -2.203   1.217   1.764  0.00  0.00    +0.380 N 
ATOM     32  H   UNL     1      -2.284   0.272   1.370  0.00  0.00    -0.082 HD
BRANCH  31  34
ATOM     33  C   UNL     1      -0.069   0.305   2.530  0.00  0.00    -0.017 C 
ATOM     34  C   UNL     1      -0.773   1.536   1.957  0.00  0.00    -0.082 C 
ENDBRANCH  31  34
BRANCH  31  35
ATOM     35  C   UNL     1      -2.813   2.182   0.826  0.00  0.00    -0.082 C 
ATOM     36  C   UNL     1      -2.394   1.813  -0.599  0.00  0.00    -0.017 C 
ENDBRANCH  31  35
ENDBRANCH  30  31
ENDBRANCH  29  30
ENDBRANCH   1  29
TORSDOF 9
