REMARK  Name = ZINC09926781
REMARK  7 active torsions:
REMARK  status: ('A' for Active; 'I' for Inactive)
REMARK    1  A    between atoms: C_1  and  C_2
REMARK    2  A    between atoms: C_2  and  O_3
REMARK    3  A    between atoms: O_3  and  C_4
REMARK    4  A    between atoms: C_4  and  C_6
REMARK    5  A    between atoms: C_7  and  N_33
REMARK    6  A    between atoms: N_18  and  C_21
REMARK    7  A    between atoms: C_25  and  C_28
REMARK                            x       y       z     vdW  Elec       q    Type
REMARK                         _______ _______ _______ _____ _____    ______ ____
ROOT
ATOM      1  C   UNL     1       0.011   1.546  -0.024  0.00  0.00    +0.117 C 
ATOM      2  C   UNL     1       1.206   2.195   0.009  0.00  0.00    +0.195 C 
ATOM      3  O   UNL     1       2.364   1.520   0.020  0.00  0.00    -0.446 OA
ATOM      4  C   UNL     1       2.395   0.235   0.423  0.00  0.00    +0.116 C 
ATOM      5  C   UNL     1       1.286  -0.528   0.412  0.00  0.00    +0.057 C 
ATOM      6  C   UNL     1      -0.031   0.046  -0.039  0.00  0.00    +0.141 C 
ATOM      7  C   UNL     1      -0.397  -0.469  -1.396  0.00  0.00    -0.002 A 
ATOM      8  C   UNL     1       0.225  -0.340  -2.620  0.00  0.00    +0.007 A 
ATOM      9  C   UNL     1      -0.389  -0.954  -3.707  0.00  0.00    +0.000 A 
ATOM     10  C   UNL     1      -1.567  -1.658  -3.563  0.00  0.00    +0.002 A 
ATOM     11  C   UNL     1      -2.198  -1.791  -2.337  0.00  0.00    +0.024 A 
ATOM     12  C   UNL     1      -1.593  -1.180  -1.237  0.00  0.00    +0.041 A 
ATOM     13  N   UNL     1      -1.997  -1.151   0.085  0.00  0.00    -0.273 N 
ATOM     14  C   UNL     1      -1.142  -0.453   0.861  0.00  0.00    +0.240 C 
ATOM     15  O   UNL     1      -1.244  -0.261   2.054  0.00  0.00    -0.274 OA
ATOM     16  C   UNL     1      -3.210  -1.803   0.585  0.00  0.00    +0.138 C 
ATOM     17  C   UNL     1       1.322  -1.877   0.818  0.00  0.00    +0.165 C 
ATOM     18  O   UNL     1       0.298  -2.529   0.811  0.00  0.00    -0.292 OA
ATOM     19  C   UNL     1       2.607  -2.523   1.260  0.00  0.00    +0.091 C 
ATOM     20  C   UNL     1       3.779  -1.825   0.562  0.00  0.00    +0.070 C 
ATOM     21  C   UNL     1       3.716  -0.331   0.888  0.00  0.00    +0.086 C 
ENDROOT
BRANCH  20  22
ATOM     22  C   UNL     1       5.080  -2.397   1.061  0.00  0.00    +0.109 A 
ATOM     23  C   UNL     1       6.012  -3.007   0.307  0.00  0.00    +0.045 A 
ATOM     24  C   UNL     1       7.060  -3.385   1.177  0.00  0.00    +0.041 A 
ATOM     25  C   UNL     1       6.707  -2.983   2.411  0.00  0.00    +0.195 A 
ATOM     26  O   UNL     1       5.509  -2.381   2.334  0.00  0.00    -0.468 OA
ENDBRANCH  20  22
BRANCH   2  27
ATOM     27  N   UNL     1       1.226   3.563   0.030  0.00  0.00    -0.329 N 
ATOM     28  H   UNL     1       0.549   4.051   0.525  0.00  0.00    +0.145 HD
ATOM     29  H   UNL     1       1.918   4.046  -0.450  0.00  0.00    +0.145 HD
ENDBRANCH   2  27
BRANCH   1  30
ATOM     30  C   UNL     1      -1.185   2.281  -0.048  0.00  0.00    +0.342 C 
ATOM     31  O   UNL     1      -1.155   3.495   0.049  0.00  0.00    -0.245 OA
BRANCH  30  32
ATOM     32  O   UNL     1      -2.367   1.643  -0.179  0.00  0.00    -0.462 OA
BRANCH  32  34
ATOM     33  C   UNL     1      -4.777   1.560  -0.351  0.00  0.00    +0.048 C 
ATOM     34  C   UNL     1      -3.544   2.453  -0.197  0.00  0.00    +0.229 C 
ENDBRANCH  32  34
ENDBRANCH  30  32
ENDBRANCH   1  30
TORSDOF 5
