REMARK  Name = ZINC40744471
REMARK  10 active torsions:
REMARK  status: ('A' for Active; 'I' for Inactive)
REMARK    1  A    between atoms: C_1  and  C_2
REMARK    2  A    between atoms: C_2  and  C_3
REMARK    3  A    between atoms: C_2  and  O_4
REMARK    4  A    between atoms: O_4  and  C_5
REMARK    5  A    between atoms: C_8  and  C_12
REMARK    6  A    between atoms: C_12  and  N_13
REMARK    7  A    between atoms: N_13  and  C_14
REMARK    8  A    between atoms: C_14  and  C_15
REMARK    9  A    between atoms: C_15  and  N_16
REMARK   10  A    between atoms: C_17  and  C_19
REMARK                            x       y       z     vdW  Elec       q    Type
REMARK                         _______ _______ _______ _____ _____    ______ ____
ROOT
ATOM      1  N   UNL     1      -0.993  -5.965  -3.058  0.00  0.00    +0.383 N 
ATOM      2  H   UNL     1      -0.622  -5.308  -3.728  0.00  0.00    -0.085 HD
ATOM      3  H   UNL     1      -0.331  -6.088  -2.306  0.00  0.00    -0.085 HD
ENDROOT
BRANCH   1   4
ATOM      4  C   UNL     1      -2.257  -5.449  -2.516  0.00  0.00    -0.047 C 
BRANCH   4   8
ATOM      5  C   UNL     1      -1.560  -1.693  -0.598  0.00  0.00    +0.149 A 
ATOM      6  C   UNL     1      -1.886  -1.735  -1.946  0.00  0.00    +0.061 A 
ATOM      7  C   UNL     1      -2.110  -2.951  -2.564  0.00  0.00    +0.020 A 
ATOM      8  C   UNL     1      -2.011  -4.125  -1.840  0.00  0.00    -0.062 A 
ATOM      9  C   UNL     1      -1.688  -4.086  -0.496  0.00  0.00    +0.020 A 
ATOM     10  C   UNL     1      -1.456  -2.873   0.125  0.00  0.00    +0.061 A 
ATOM     11 BR   UNL     1      -1.006  -2.821   1.961  0.00  0.00    -0.046 Br
ATOM     12 BR   UNL     1      -2.023  -0.131  -2.937  0.00  0.00    -0.046 Br
BRANCH   5  13
ATOM     13  O   UNL     1      -1.339  -0.499   0.012  0.00  0.00    -0.487 OA
BRANCH  13  15
ATOM     14  C   UNL     1      -0.019   1.526   0.010  0.00  0.00    +0.051 C 
ATOM     15  C   UNL     1       0.002  -0.004   0.002  0.00  0.00    +0.167 C 
ATOM     16  C   UNL     1       0.742  -0.511   1.242  0.00  0.00    +0.051 C 
ENDBRANCH  13  15
ENDBRANCH   5  13
ENDBRANCH   4   8
ENDBRANCH   1   4
BRANCH   1  17
ATOM     17  C   UNL     1      -1.232  -7.255  -3.717  0.00  0.00    -0.063 C 
BRANCH  17  18
ATOM     18  C   UNL     1       0.085  -7.792  -4.281  0.00  0.00    +0.085 C 
BRANCH  18  19
ATOM     19  N   UNL     1      -0.154  -9.079  -4.938  0.00  0.00    -0.312 N 
ATOM     20  C   UNL     1       0.869  -9.743  -5.512  0.00  0.00    +0.269 C 
ATOM     21  O   UNL     1       1.990  -9.274  -5.484  0.00  0.00    -0.268 OA
ATOM     22  H   UNL     1      -1.049  -9.454  -4.960  0.00  0.00    +0.149 HD
BRANCH  20  23
ATOM     23  C   UNL     1       0.627 -11.045  -6.176  0.00  0.00    +0.209 A 
ATOM     24  C   UNL     1       1.642 -11.876  -6.833  0.00  0.00    +0.192 A 
ATOM     25  N   UNL     1       1.057 -12.944  -7.302  0.00  0.00    -0.033 NA
ATOM     26  O   UNL     1      -0.321 -12.862  -6.983  0.00  0.00    -0.240 OA
ATOM     27  N   UNL     1      -0.526 -11.653  -6.274  0.00  0.00    -0.042 NA
ATOM     28  N   UNL     1       2.994 -11.578  -6.939  0.00  0.00    -0.339 N 
ATOM     29  H   UNL     1       3.340 -10.756  -6.557  0.00  0.00    +0.144 HD
ATOM     30  H   UNL     1       3.592 -12.191  -7.394  0.00  0.00    +0.144 HD
ENDBRANCH  20  23
ENDBRANCH  18  19
ENDBRANCH  17  18
ENDBRANCH   1  17
TORSDOF 8
