REMARK  Name = ZINC36075022
REMARK  10 active torsions:
REMARK  status: ('A' for Active; 'I' for Inactive)
REMARK    1  A    between atoms: C_1  and  C_2
REMARK    2  A    between atoms: C_2  and  C_3
REMARK    3  A    between atoms: C_2  and  C_4
REMARK    4  A    between atoms: C_4  and  C_5
REMARK    5  A    between atoms: C_5  and  C_7
REMARK    6  A    between atoms: C_5  and  N_25
REMARK    7  A    between atoms: N_9  and  C_10
REMARK    8  A    between atoms: C_10  and  C_11
REMARK    9  A    between atoms: C_11  and  C_13
REMARK   10  A    between atoms: C_11  and  N_20
REMARK                            x       y       z     vdW  Elec       q    Type
REMARK                         _______ _______ _______ _____ _____    ______ ____
ROOT
ATOM      1  C   UNL     1      -4.156  -0.256  -1.850  0.00  0.00    +0.234 C 
ATOM      2  O   UNL     1      -4.782  -0.933  -2.638  0.00  0.00    -0.274 OA
ATOM      3  N   UNL     1      -4.687   0.044  -0.649  0.00  0.00    -0.315 N 
ATOM      4  H   UNL     1      -4.187   0.585  -0.019  0.00  0.00    +0.149 HD
ENDROOT
BRANCH   1   5
ATOM      5  C   UNL     1      -2.784   0.249  -2.215  0.00  0.00    +0.170 C 
BRANCH   5   6
ATOM      6  N   UNL     1      -2.437  -0.209  -3.562  0.00  0.00    -0.230 N 
ATOM      7  C   UNL     1      -2.367  -1.511  -3.900  0.00  0.00    +0.227 C 
ATOM      8  O   UNL     1      -2.763  -2.448  -3.240  0.00  0.00    -0.275 OA
ATOM      9  C   UNL     1      -1.693  -1.588  -5.280  0.00  0.00    +0.091 C 
ATOM     10  C   UNL     1      -0.194  -1.660  -4.980  0.00  0.00    +0.040 C 
ATOM     11  C   UNL     1       0.645  -0.956  -5.989  0.00  0.00    -0.030 C 
ATOM     12  C   UNL     1       0.207  -0.079  -6.830  0.00  0.00    -0.030 C 
ATOM     13  C   UNL     1      -1.232   0.314  -6.934  0.00  0.00    +0.040 C 
ATOM     14  C   UNL     1      -2.096  -0.207  -5.822  0.00  0.00    +0.091 C 
ATOM     15  C   UNL     1      -2.163   0.636  -4.582  0.00  0.00    +0.227 C 
ATOM     16  O   UNL     1      -2.000   1.835  -4.508  0.00  0.00    -0.275 OA
ENDBRANCH   5   6
BRANCH   5  17
ATOM     17  C   UNL     1      -1.760  -0.287  -1.214  0.00  0.00    +0.035 C 
BRANCH  17  19
ATOM     18  C   UNL     1      -0.441   1.834  -1.265  0.00  0.00    +0.007 C 
ATOM     19  C   UNL     1      -0.389   0.324  -1.509  0.00  0.00    -0.015 C 
ATOM     20  C   UNL     1       0.659  -0.305  -0.589  0.00  0.00    +0.007 C 
ENDBRANCH  17  19
ENDBRANCH   5  17
ENDBRANCH   1   5
BRANCH   3  21
ATOM     21  C   UNL     1      -6.021  -0.448  -0.294  0.00  0.00    +0.093 C 
BRANCH  21  22
ATOM     22  C   UNL     1      -6.437   0.136   1.058  0.00  0.00    -0.019 C 
BRANCH  22  23
ATOM     23  C   UNL     1      -5.520  -0.385   2.134  0.00  0.00    -0.041 A 
ATOM     24  C   UNL     1      -4.484   0.403   2.601  0.00  0.00    +0.003 A 
ATOM     25  C   UNL     1      -3.643  -0.075   3.588  0.00  0.00    +0.000 A 
ATOM     26  C   UNL     1      -3.836  -1.341   4.108  0.00  0.00    +0.001 A 
ATOM     27  C   UNL     1      -4.870  -2.130   3.642  0.00  0.00    +0.020 A 
ATOM     28  C   UNL     1      -5.717  -1.650   2.658  0.00  0.00    +0.043 A 
ATOM     29 CL   UNL     1      -7.021  -2.637   2.077  0.00  0.00    -0.083 Cl
ENDBRANCH  22  23
BRANCH  22  30
ATOM     30  N   UNL     1      -6.349   1.601   1.006  0.00  0.00    +0.385 N 
ATOM     31  C   UNL     1      -7.223   2.130  -0.072  0.00  0.00    -0.078 C 
ATOM     32  C   UNL     1      -7.462   3.600   0.353  0.00  0.00    -0.020 C 
ATOM     33  C   UNL     1      -7.576   3.500   1.892  0.00  0.00    -0.020 C 
ATOM     34  C   UNL     1      -6.861   2.188   2.264  0.00  0.00    -0.078 C 
ATOM     35  H   UNL     1      -5.394   1.888   0.853  0.00  0.00    -0.081 HD
ENDBRANCH  22  30
ENDBRANCH  21  22
ENDBRANCH   3  21
TORSDOF 8
