REMARK  Name = ZINC04131451
REMARK  10 active torsions:
REMARK  status: ('A' for Active; 'I' for Inactive)
REMARK    1  A    between atoms: C_1  and  C_2
REMARK    2  A    between atoms: C_4  and  C_31
REMARK    3  A    between atoms: C_9  and  C_14
REMARK    4  A    between atoms: C_16  and  C_29
REMARK    5  A    between atoms: C_17  and  N_28
REMARK    6  A    between atoms: C_19  and  C_27
REMARK    7  A    between atoms: C_20  and  C_21
REMARK    8  A    between atoms: C_21  and  O_23
REMARK    9  A    between atoms: O_23  and  C_24
REMARK   10  A    between atoms: C_24  and  C_25
REMARK                            x       y       z     vdW  Elec       q    Type
REMARK                         _______ _______ _______ _____ _____    ______ ____
ROOT
ATOM      1  C   UNL     1      -0.667   2.195   3.645  0.00  0.00    +0.110 C 
ATOM      2  C   UNL     1      -1.983   2.848   3.317  0.00  0.00    +0.098 C 
ATOM      3  C   UNL     1      -2.579   2.640   2.118  0.00  0.00    +0.198 C 
ATOM      4  O   UNL     1      -2.027   1.855   1.179  0.00  0.00    -0.445 OA
ATOM      5  C   UNL     1      -0.722   1.555   1.252  0.00  0.00    +0.115 C 
ATOM      6  C   UNL     1      -0.019   1.694   2.383  0.00  0.00    +0.087 C 
ATOM      7  C   UNL     1      -0.021   1.051   0.017  0.00  0.00    +0.087 C 
ENDROOT
BRANCH   1  16
ATOM      8  C   UNL     1       0.353  -1.311  10.148  0.00  0.00    +0.044 C 
ATOM      9  C   UNL     1      -0.258  -1.245   8.772  0.00  0.00    -0.050 A 
ATOM     10  C   UNL     1      -1.072  -2.280   8.331  0.00  0.00    +0.008 A 
ATOM     11  C   UNL     1      -1.642  -2.241   7.077  0.00  0.00    -0.026 A 
ATOM     12  C   UNL     1      -1.400  -1.154   6.242  0.00  0.00    +0.052 A 
ATOM     13  C   UNL     1      -0.574  -0.107   6.693  0.00  0.00    -0.001 A 
ATOM     14  C   UNL     1      -0.006  -0.169   7.970  0.00  0.00    +0.013 A 
ATOM     15  C   UNL     1      -0.326   1.032   5.808  0.00  0.00    +0.020 A 
ATOM     16  C   UNL     1      -0.902   1.037   4.581  0.00  0.00    +0.030 A 
ATOM     17  C   UNL     1      -1.727  -0.036   4.179  0.00  0.00    +0.253 A 
ATOM     18  O   UNL     1      -2.240  -0.009   3.074  0.00  0.00    -0.268 OA
ATOM     19  N   UNL     1      -1.956  -1.089   4.983  0.00  0.00    -0.322 N 
ATOM     20  H   UNL     1      -2.539  -1.836   4.662  0.00  0.00    +0.169 HD
ATOM     21  C   UNL     1      -2.523  -3.371   6.610  0.00  0.00    +0.046 C 
ENDBRANCH   1  16
BRANCH   3  22
ATOM     22  N   UNL     1      -3.777   3.255   1.853  0.00  0.00    -0.328 N 
ATOM     23  H   UNL     1      -4.186   3.828   2.520  0.00  0.00    +0.145 HD
ATOM     24  H   UNL     1      -4.216   3.115   0.999  0.00  0.00    +0.145 HD
ENDBRANCH   3  22
BRANCH   6  25
ATOM     25  C   UNL     1       1.359   1.364   2.392  0.00  0.00    +0.340 C 
ATOM     26  O   UNL     1       1.918   1.060   1.355  0.00  0.00    -0.245 OA
BRANCH  25  27
ATOM     27  O   UNL     1       2.050   1.386   3.550  0.00  0.00    -0.457 OA
BRANCH  27  28
ATOM     28  C   UNL     1       3.436   1.042   3.485  0.00  0.00    +0.259 C 
BRANCH  28  29
ATOM     29  C   UNL     1       4.038   1.121   4.864  0.00  0.00    +0.006 C 
ATOM     30  C   UNL     1       4.827   0.165   5.290  0.00  0.00    +0.007 C 
ENDBRANCH  28  29
ENDBRANCH  27  28
ENDBRANCH  25  27
ENDBRANCH   6  25
BRANCH   2  31
ATOM     31  C   UNL     1      -2.612   3.698   4.283  0.00  0.00    +0.101 C 
ATOM     32  N   UNL     1      -3.111   4.372   5.049  0.00  0.00    -0.191 NA
ENDBRANCH   2  31
TORSDOF 7
