REMARK  Name = ZINC12145470
REMARK  4 active torsions:
REMARK  status: ('A' for Active; 'I' for Inactive)
REMARK    1  A    between atoms: C_1  and  C_2
REMARK    2  A    between atoms: N_13  and  C_16
REMARK    3  A    between atoms: C_21  and  C_22
REMARK    4  A    between atoms: C_21  and  N_49
REMARK                            x       y       z     vdW  Elec       q    Type
REMARK                         _______ _______ _______ _____ _____    ______ ____
ROOT
ATOM      1  C   UNL     1       7.895  -1.736  -0.161  0.00  0.00    +0.008 C 
ATOM      2  C   UNL     1       6.445  -1.335  -0.438  0.00  0.00    -0.009 C 
ATOM      3  C   UNL     1       5.503  -2.200   0.405  0.00  0.00    +0.008 C 
ATOM      4  C   UNL     1       4.058  -1.983  -0.043  0.00  0.00    +0.037 C 
ATOM      5  C   UNL     1       3.760  -0.486  -0.035  0.00  0.00    -0.023 A 
ATOM      6  C   UNL     1       4.764   0.417  -0.041  0.00  0.00    -0.004 A 
ATOM      7  S   UNL     1       3.960   1.997  -0.025  0.00  0.00    -0.073 S 
ATOM      8  C   UNL     1       2.276   1.439  -0.012  0.00  0.00    +0.116 A 
ATOM      9  C   UNL     1       2.396   0.040  -0.020  0.00  0.00    +0.076 A 
ATOM     10  C   UNL     1       1.161  -0.689  -0.012  0.00  0.00    +0.263 A 
ATOM     11  O   UNL     1       1.161  -1.907  -0.018  0.00  0.00    -0.267 OA
ATOM     12  N   UNL     1       0.002  -0.004   0.002  0.00  0.00    -0.296 N 
ATOM     13  C   UNL     1      -0.016   1.354   0.009  0.00  0.00    +0.203 A 
ATOM     14  N   UNL     1       1.092   2.045   0.003  0.00  0.00    -0.230 NA
ATOM     15  C   UNL     1       6.235   0.137  -0.056  0.00  0.00    +0.046 C 
ENDROOT
BRANCH  12  16
ATOM     16  C   UNL     1      -1.265  -0.739   0.010  0.00  0.00    +0.088 C 
ATOM     17  C   UNL     1      -2.085  -0.359  -1.226  0.00  0.00    +0.006 C 
ATOM     18  C   UNL     1      -3.433  -1.083  -1.180  0.00  0.00    -0.076 C 
ATOM     19  C   UNL     1      -3.406  -1.101   1.243  0.00  0.00    -0.076 C 
ATOM     20  C   UNL     1      -2.058  -0.378   1.270  0.00  0.00    +0.006 C 
ATOM     21  N   UNL     1      -4.156  -0.674   0.043  0.00  0.00    +0.386 N 
ATOM     22  H   UNL     1      -4.244   0.349   0.052  0.00  0.00    -0.081 HD
BRANCH  21  23
ATOM     23  C   UNL     1      -5.508  -1.271   0.053  0.00  0.00    +0.018 C 
BRANCH  23  24
ATOM     24  C   UNL     1      -6.320  -0.651  -1.054  0.00  0.00    +0.194 C 
ATOM     25  O   UNL     1      -5.820   0.181  -1.781  0.00  0.00    -0.278 OA
ATOM     26  N   UNL     1      -7.603  -1.022  -1.238  0.00  0.00    -0.331 N 
ATOM     27  H   UNL     1      -8.003  -1.688  -0.656  0.00  0.00    +0.145 HD
ATOM     28  H   UNL     1      -8.126  -0.623  -1.950  0.00  0.00    +0.145 HD
ENDBRANCH  23  24
ENDBRANCH  21  23
ENDBRANCH  12  16
TORSDOF 3
