REMARK  Name = ZINC67214965
REMARK  11 active torsions:
REMARK  status: ('A' for Active; 'I' for Inactive)
REMARK    1  A    between atoms: C_1  and  C_2
REMARK    2  A    between atoms: N_7  and  C_9
REMARK    3  A    between atoms: C_9  and  C_10
REMARK    4  A    between atoms: C_16  and  C_18
REMARK    5  A    between atoms: C_18  and  C_20
REMARK    6  A    between atoms: C_18  and  N_21
REMARK    7  A    between atoms: C_22  and  O_24
REMARK    8  A    between atoms: O_24  and  C_25
REMARK    9  A    between atoms: C_25  and  C_26
REMARK   10  A    between atoms: C_25  and  C_27
REMARK   11  A    between atoms: C_25  and  C_28
REMARK                            x       y       z     vdW  Elec       q    Type
REMARK                         _______ _______ _______ _____ _____    ______ ____
ROOT
ATOM      1  C   UNL     1       1.321  -3.966   2.518  0.00  0.00    +0.034 A 
ATOM      2  C   UNL     1       2.332  -4.755   2.078  0.00  0.00    +0.070 A 
ATOM      3  S   UNL     1       1.653  -6.375   2.398  0.00  0.00    -0.060 S 
ATOM      4  C   UNL     1       0.179  -5.886   3.047  0.00  0.00    +0.165 A 
ATOM      5  N   UNL     1       0.255  -4.573   3.005  0.00  0.00    -0.231 NA
ATOM      6  N   UNL     1      -0.862  -6.677   3.518  0.00  0.00    -0.263 N 
ATOM      7  C   UNL     1      -0.756  -8.020   3.486  0.00  0.00    +0.239 C 
ATOM      8  O   UNL     1       0.248  -8.539   3.046  0.00  0.00    -0.273 OA
ATOM      9  H   UNL     1      -1.665  -6.262   3.870  0.00  0.00    +0.157 HD
ENDROOT
BRANCH   7  10
ATOM     10  C   UNL     1      -1.885  -8.877   3.997  0.00  0.00    +0.159 C 
ATOM     11  C   UNL     1      -2.138  -8.562   5.472  0.00  0.00    +0.038 C 
BRANCH  10  12
ATOM     12  N   UNL     1      -1.528 -10.291   3.854  0.00  0.00    -0.270 N 
ATOM     13  C   UNL     1      -2.495 -11.224   3.755  0.00  0.00    +0.401 C 
ATOM     14  O   UNL     1      -3.664 -10.893   3.783  0.00  0.00    -0.226 OA
ATOM     15  H   UNL     1      -0.595 -10.556   3.832  0.00  0.00    +0.153 HD
BRANCH  13  16
ATOM     16  O   UNL     1      -2.167 -12.523   3.624  0.00  0.00    -0.445 OA
BRANCH  16  17
ATOM     17  C   UNL     1      -3.244 -13.457   3.523  0.00  0.00    +0.107 C 
ATOM     18  C   UNL     1      -4.096 -13.123   2.297  0.00  0.00    +0.055 C 
ATOM     19  C   UNL     1      -2.679 -14.872   3.382  0.00  0.00    +0.055 C 
ATOM     20  C   UNL     1      -4.108 -13.377   4.783  0.00  0.00    +0.055 C 
ENDBRANCH  16  17
ENDBRANCH  13  16
ENDBRANCH  10  12
ENDBRANCH   7  10
BRANCH   1  21
ATOM     21  C   UNL     1       1.413  -2.463   2.461  0.00  0.00    -0.022 C 
BRANCH  21  27
ATOM     22  C   UNL     1      -0.019   1.526   0.010  0.00  0.00    +0.005 C 
ATOM     23  C   UNL     1       0.002  -0.004   0.002  0.00  0.00    -0.031 C 
ATOM     24  C   UNL     1       0.721  -0.499  -1.257  0.00  0.00    -0.001 C 
ATOM     25  C   UNL     1       0.805  -2.027  -1.217  0.00  0.00    -0.018 C 
ATOM     26  C   UNL     1       1.518  -2.460   0.066  0.00  0.00    -0.078 C 
ATOM     27  N   UNL     1       0.768  -1.979   1.233  0.00  0.00    +0.384 N 
ATOM     28  C   UNL     1       0.744  -0.512   1.240  0.00  0.00    -0.075 C 
ATOM     29  H   UNL     1      -0.177  -2.330   1.192  0.00  0.00    -0.081 HD
ENDBRANCH  21  27
ENDBRANCH   1  21
TORSDOF 6
