REMARK  Name = ZINC00043566
REMARK  7 active torsions:
REMARK  status: ('A' for Active; 'I' for Inactive)
REMARK    1  A    between atoms: C_1  and  C_2
REMARK    2  A    between atoms: C_5  and  C_27
REMARK    3  A    between atoms: C_6  and  C_8
REMARK    4  A    between atoms: C_17  and  C_25
REMARK    5  A    between atoms: C_18  and  N_24
REMARK    6  A    between atoms: C_19  and  C_20
REMARK    7  A    between atoms: C_19  and  C_22
REMARK                            x       y       z     vdW  Elec       q    Type
REMARK                         _______ _______ _______ _____ _____    ______ ____
ROOT
ATOM      1  C   UNL     1       0.526  -2.764   2.483  0.00  0.00    +0.066 C 
ATOM      2  C   UNL     1      -0.613  -2.482   3.465  0.00  0.00    +0.030 C 
ATOM      3  C   UNL     1      -1.967  -2.740   2.847  0.00  0.00    +0.009 C 
ATOM      4  C   UNL     1      -2.523  -4.106   3.245  0.00  0.00    +0.005 C 
ATOM      5  C   UNL     1      -2.636  -4.154   4.775  0.00  0.00    +0.027 C 
ATOM      6  C   UNL     1      -1.252  -3.983   5.344  0.00  0.00    -0.022 C 
ATOM      7  C   UNL     1      -0.360  -3.265   4.718  0.00  0.00    -0.029 C 
ATOM      8  C   UNL     1       1.023  -3.236   5.263  0.00  0.00    +0.074 C 
ATOM      9  C   UNL     1       2.034  -2.777   4.484  0.00  0.00    +0.054 C 
ATOM     10  C   UNL     1       1.839  -2.266   3.088  0.00  0.00    +0.188 C 
ENDROOT
BRANCH   1  16
ATOM     11  C   UNL     1      -0.587   1.438   0.004  0.00  0.00    +0.044 C 
ATOM     12  C   UNL     1      -0.270  -0.035  -0.001  0.00  0.00    -0.050 A 
ATOM     13  C   UNL     1      -0.220  -0.728  -1.197  0.00  0.00    +0.003 A 
ATOM     14  C   UNL     1       0.071  -2.079  -1.201  0.00  0.00    +0.004 A 
ATOM     15  C   UNL     1       0.312  -2.738  -0.010  0.00  0.00    -0.047 A 
ATOM     16  C   UNL     1       0.263  -2.046   1.185  0.00  0.00    -0.038 A 
ATOM     17  C   UNL     1      -0.024  -0.693   1.189  0.00  0.00    +0.007 A 
ATOM     18  C   UNL     1       0.628  -4.211  -0.015  0.00  0.00    +0.044 C 
ENDBRANCH   1  16
BRANCH   9  19
ATOM     19  N   UNL     1       3.300  -2.781   4.999  0.00  0.00    -0.358 N 
ATOM     20  H   UNL     1       3.457  -3.107   5.899  0.00  0.00    +0.142 HD
ATOM     21  H   UNL     1       4.042  -2.458   4.464  0.00  0.00    +0.142 HD
ENDBRANCH   9  19
BRANCH  10  22
ATOM     22  C   UNL     1       1.828  -0.794   3.114  0.00  0.00    +0.091 C 
ATOM     23  N   UNL     1       1.819   0.342   3.135  0.00  0.00    -0.194 NA
ENDBRANCH  10  22
BRANCH  10  24
ATOM     24  C   UNL     1       2.958  -2.721   2.246  0.00  0.00    +0.091 C 
ATOM     25  N   UNL     1       3.822  -3.072   1.597  0.00  0.00    -0.194 NA
ENDBRANCH  10  24
BRANCH   8  26
ATOM     26  C   UNL     1       1.285  -3.689   6.596  0.00  0.00    +0.101 C 
ATOM     27  N   UNL     1       1.493  -4.048   7.653  0.00  0.00    -0.191 NA
ENDBRANCH   8  26
TORSDOF 5
