REMARK  Name = ZINC35198472
REMARK  11 active torsions:
REMARK  status: ('A' for Active; 'I' for Inactive)
REMARK    1  A    between atoms: C_1  and  C_2
REMARK    2  A    between atoms: C_2  and  C_4
REMARK    3  A    between atoms: C_2  and  N_27
REMARK    4  A    between atoms: C_7  and  S_18
REMARK    5  A    between atoms: N_8  and  C_9
REMARK    6  A    between atoms: C_12  and  N_15
REMARK    7  A    between atoms: S_18  and  C_19
REMARK    8  A    between atoms: C_19  and  C_20
REMARK    9  A    between atoms: C_28  and  C_30
REMARK   10  A    between atoms: C_33  and  O_36
REMARK   11  A    between atoms: O_36  and  C_37
REMARK                            x       y       z     vdW  Elec       q    Type
REMARK                         _______ _______ _______ _____ _____    ______ ____
ROOT
ATOM      1  C   UNL     1       0.707  -0.490  -1.238  0.00  0.00    +0.159 A 
ATOM      2  N   UNL     1       1.993  -0.478  -1.450  0.00  0.00    -0.131 NA
ATOM      3  N   UNL     1       2.255  -0.965  -2.610  0.00  0.00    -0.122 NA
ATOM      4  C   UNL     1       1.141  -1.319  -3.208  0.00  0.00    +0.196 A 
ATOM      5  N   UNL     1       0.117  -1.032  -2.349  0.00  0.00    -0.273 N 
ENDROOT
BRANCH   5   6
ATOM      6  C   UNL     1      -1.253  -1.245  -2.561  0.00  0.00    +0.050 A 
ATOM      7  C   UNL     1      -1.948  -2.146  -1.766  0.00  0.00    +0.028 A 
ATOM      8  C   UNL     1      -3.297  -2.354  -1.978  0.00  0.00    +0.035 A 
ATOM      9  C   UNL     1      -3.955  -1.665  -2.980  0.00  0.00    +0.126 A 
ATOM     10  C   UNL     1      -3.265  -0.767  -3.774  0.00  0.00    +0.035 A 
ATOM     11  C   UNL     1      -1.918  -0.551  -3.563  0.00  0.00    +0.028 A 
BRANCH   9  12
ATOM     12  N   UNL     1      -5.401  -1.891  -3.205  0.00  0.00    +0.056 N 
ATOM     13  O   UNL     1      -6.005  -2.676  -2.512  0.00  0.00    -0.126 OA
ATOM     14  O   UNL     1      -5.978  -1.290  -4.082  0.00  0.00    -0.126 OA
ENDBRANCH   9  12
ENDBRANCH   5   6
BRANCH   1  16
ATOM     15  C   UNL     1      -0.019   1.526   0.010  0.00  0.00    +0.036 C 
ATOM     16  C   UNL     1       0.002  -0.004   0.002  0.00  0.00    +0.139 C 
BRANCH  16  17
ATOM     17  N   UNL     1       0.711  -0.489   1.189  0.00  0.00    -0.302 N 
ATOM     18  C   UNL     1       0.051  -0.633   2.355  0.00  0.00    +0.245 C 
ATOM     19  O   UNL     1      -1.132  -0.361   2.423  0.00  0.00    -0.270 OA
ATOM     20  H   UNL     1       1.654  -0.707   1.135  0.00  0.00    +0.150 HD
BRANCH  18  21
ATOM     21  C   UNL     1       0.765  -1.122   3.551  0.00  0.00    +0.037 A 
ATOM     22  C   UNL     1       2.126  -1.431   3.477  0.00  0.00    +0.016 A 
ATOM     23  C   UNL     1       2.788  -1.886   4.595  0.00  0.00    +0.046 A 
ATOM     24  C   UNL     1       2.105  -2.040   5.796  0.00  0.00    +0.120 A 
ATOM     25  C   UNL     1       0.752  -1.734   5.874  0.00  0.00    +0.046 A 
ATOM     26  C   UNL     1       0.083  -1.272   4.762  0.00  0.00    +0.016 A 
BRANCH  24  27
ATOM     27  O   UNL     1       2.762  -2.490   6.895  0.00  0.00    -0.495 OA
ATOM     28  C   UNL     1       1.999  -2.624   8.096  0.00  0.00    +0.277 C 
ENDBRANCH  24  27
ENDBRANCH  18  21
ENDBRANCH  16  17
ENDBRANCH   1  16
BRANCH   4  29
ATOM     29  S   UNL     1       0.994  -2.034  -4.812  0.00  0.00    -0.081 S 
BRANCH  29  30
ATOM     30  C   UNL     1       2.707  -2.152  -5.399  0.00  0.00    +0.112 C 
BRANCH  30  31
ATOM     31  C   UNL     1       2.725  -2.756  -6.779  0.00  0.00    -0.037 A 
ATOM     32  C   UNL     1       2.816  -4.127  -6.932  0.00  0.00    +0.007 A 
ATOM     33  C   UNL     1       2.832  -4.682  -8.198  0.00  0.00    +0.038 A 
ATOM     34  C   UNL     1       2.756  -3.864  -9.312  0.00  0.00    +0.123 A 
ATOM     35  C   UNL     1       2.665  -2.491  -9.158  0.00  0.00    +0.038 A 
ATOM     36  C   UNL     1       2.644  -1.939  -7.891  0.00  0.00    +0.007 A 
ATOM     37  F   UNL     1       2.772  -4.406 -10.550  0.00  0.00    -0.205 F 
ENDBRANCH  30  31
ENDBRANCH  29  30
ENDBRANCH   4  29
TORSDOF 9
