REMARK  Name = ZINC59046556
REMARK  9 active torsions:
REMARK  status: ('A' for Active; 'I' for Inactive)
REMARK    1  A    between atoms: C_1  and  C_2
REMARK    2  A    between atoms: C_7  and  N_8
REMARK    3  A    between atoms: C_9  and  C_11
REMARK    4  A    between atoms: C_11  and  S_12
REMARK    5  A    between atoms: S_12  and  C_13
REMARK    6  A    between atoms: C_16  and  C_19
REMARK    7  A    between atoms: N_17  and  N_18
REMARK    8  A    between atoms: C_21  and  N_28
REMARK    9  A    between atoms: C_23  and  N_25
REMARK                            x       y       z     vdW  Elec       q    Type
REMARK                         _______ _______ _______ _____ _____    ______ ____
ROOT
ATOM      1  C   UNL     1      -0.386  -0.116   7.687  0.00  0.00    +0.209 A 
ATOM      2  N   UNL     1      -0.411   1.198   7.712  0.00  0.00    -0.121 NA
ATOM      3  N   UNL     1      -0.509   1.614   8.924  0.00  0.00    -0.127 NA
ATOM      4  C   UNL     1      -0.552   0.592   9.747  0.00  0.00    +0.182 A 
ATOM      5  N   UNL     1      -0.480  -0.547   8.979  0.00  0.00    -0.224 N 
ENDROOT
BRANCH   4   6
ATOM      6  C   UNL     1      -0.663   0.654  11.220  0.00  0.00    +0.025 A 
ATOM      7  C   UNL     1      -0.382  -0.474  11.992  0.00  0.00    +0.044 A 
ATOM      8  C   UNL     1      -0.487  -0.410  13.366  0.00  0.00    +0.129 A 
ATOM      9  C   UNL     1      -0.872   0.770  13.979  0.00  0.00    +0.065 A 
ATOM     10  C   UNL     1      -1.152   1.892  13.219  0.00  0.00    +0.129 A 
ATOM     11  C   UNL     1      -1.045   1.842  11.845  0.00  0.00    +0.044 A 
BRANCH  10  12
ATOM     12  N   UNL     1      -1.563   3.149  13.883  0.00  0.00    +0.057 N 
ATOM     13  O   UNL     1      -1.653   3.195  15.088  0.00  0.00    -0.126 OA
ATOM     14  O   UNL     1      -1.809   4.130  13.221  0.00  0.00    -0.126 OA
ENDBRANCH  10  12
BRANCH   8  15
ATOM     15  N   UNL     1      -0.190  -1.605  14.186  0.00  0.00    +0.057 N 
ATOM     16  O   UNL     1       0.146  -2.637  13.652  0.00  0.00    -0.126 OA
ATOM     17  O   UNL     1      -0.282  -1.550  15.390  0.00  0.00    -0.126 OA
ENDBRANCH   8  15
ENDBRANCH   4   6
BRANCH   5  18
ATOM     18  N   UNL     1      -0.498  -1.841   9.418  0.00  0.00    -0.295 N 
ATOM     19  H   UNL     1       0.437  -2.170   9.608  0.00  0.00    +0.163 HD
ATOM     20  H   UNL     1      -1.088  -1.939  10.231  0.00  0.00    +0.163 HD
ENDBRANCH   5  18
BRANCH   1  21
ATOM     21  S   UNL     1      -0.260  -1.131   6.253  0.00  0.00    -0.075 S 
BRANCH  21  22
ATOM     22  C   UNL     1      -0.169   0.054   4.882  0.00  0.00    +0.173 C 
BRANCH  22  24
ATOM     23  N   UNL     1       0.025  -0.014   2.417  0.00  0.00    -0.285 N 
ATOM     24  C   UNL     1      -0.057  -0.693   3.578  0.00  0.00    +0.227 C 
ATOM     25  O   UNL     1      -0.040  -1.906   3.574  0.00  0.00    -0.275 OA
ATOM     26  H   UNL     1       0.077   0.955   2.425  0.00  0.00    +0.155 HD
BRANCH  23  33
ATOM     27  C   UNL     1      -1.265   1.183   0.181  0.00  0.00    +0.046 C 
ATOM     28  C   UNL     1      -0.584  -0.158   0.084  0.00  0.00    -0.028 A 
ATOM     29  C   UNL     1      -0.569  -0.841  -1.116  0.00  0.00    +0.025 A 
ATOM     30  C   UNL     1       0.056  -2.072  -1.206  0.00  0.00    +0.041 A 
ATOM     31  C   UNL     1       0.668  -2.623  -0.093  0.00  0.00    +0.022 A 
ATOM     32  C   UNL     1       0.656  -1.944   1.109  0.00  0.00    +0.025 A 
ATOM     33  C   UNL     1       0.034  -0.706   1.201  0.00  0.00    +0.036 A 
ATOM     34 CL   UNL     1       0.072  -2.928  -2.716  0.00  0.00    -0.084 Cl
ENDBRANCH  23  33
ENDBRANCH  22  24
ENDBRANCH  21  22
ENDBRANCH   1  21
TORSDOF 8
