REMARK  Name = ZINC16036585
REMARK  5 active torsions:
REMARK  status: ('A' for Active; 'I' for Inactive)
REMARK    1  A    between atoms: C_1  and  C_2
REMARK    2  A    between atoms: C_2  and  C_7
REMARK    3  A    between atoms: C_7  and  O_9
REMARK    4  A    between atoms: O_9  and  C_10
REMARK    5  A    between atoms: C_10  and  C_11
REMARK                            x       y       z     vdW  Elec       q    Type
REMARK                         _______ _______ _______ _____ _____    ______ ____
ROOT
ATOM      1  C   UNL     1      -2.647   6.451  -3.459  0.00  0.00    +0.013 C 
ATOM      2  C   UNL     1      -3.079   5.517  -4.590  0.00  0.00    +0.003 C 
ATOM      3  C   UNL     1      -4.264   6.146  -5.324  0.00  0.00    -0.018 C 
ATOM      4  C   UNL     1      -3.843   7.512  -5.864  0.00  0.00    -0.078 C 
ATOM      5  C   UNL     1      -2.282   7.825  -4.029  0.00  0.00    -0.062 C 
ATOM      6  C   UNL     1      -1.900   8.739  -2.861  0.00  0.00    -0.015 C 
ATOM      7  C   UNL     1      -1.574  10.140  -3.382  0.00  0.00    -0.003 C 
ATOM      8  C   UNL     1      -2.792  10.681  -4.138  0.00  0.00    -0.019 C 
ATOM      9  C   UNL     1      -3.124   9.727  -5.285  0.00  0.00    -0.078 C 
ATOM     10  N   UNL     1      -3.450   8.394  -4.750  0.00  0.00    +0.382 N 
ATOM     11  H   UNL     1      -4.236   8.478  -4.094  0.00  0.00    -0.081 HD
ENDROOT
BRANCH   1  12
ATOM     12  C   UNL     1      -1.430   5.857  -2.746  0.00  0.00    +0.234 C 
BRANCH  12  13
ATOM     13  O   UNL     1      -1.806   4.610  -2.104  0.00  0.00    -0.464 OA
BRANCH  13  14
ATOM     14  C   UNL     1      -0.846   3.958  -1.430  0.00  0.00    +0.315 C 
ATOM     15  O   UNL     1       0.272   4.413  -1.379  0.00  0.00    -0.250 OA
BRANCH  14  17
ATOM     16  C   UNL     1      -2.192   1.769  -1.440  0.00  0.00    +0.025 C 
ATOM     17  C   UNL     1      -1.162   2.657  -0.738  0.00  0.00    +0.092 C 
ATOM     18  C   UNL     1      -1.147   2.649   0.793  0.00  0.00    +0.050 C 
ATOM     19  C   UNL     1      -0.025   1.962   0.013  0.00  0.00    +0.097 C 
ATOM     20 BR   UNL     1       0.002  -0.004   0.002  0.00  0.00    -0.071 Br
ATOM     21 BR   UNL     1       1.737   2.834   0.001  0.00  0.00    -0.071 Br
ENDBRANCH  14  17
ENDBRANCH  13  14
ENDBRANCH  12  13
ENDBRANCH   1  12
TORSDOF 4
