REMARK  Name = ZINC36492435
REMARK  9 active torsions:
REMARK  status: ('A' for Active; 'I' for Inactive)
REMARK    1  A    between atoms: C_1  and  C_2
REMARK    2  A    between atoms: C_5  and  S_8
REMARK    3  A    between atoms: S_8  and  C_11
REMARK    4  A    between atoms: C_11  and  N_12
REMARK    5  A    between atoms: C_13  and  C_15
REMARK    6  A    between atoms: C_15  and  C_17
REMARK    7  A    between atoms: C_15  and  N_23
REMARK    8  A    between atoms: N_23  and  C_24
REMARK    9  A    between atoms: C_30  and  C_32
REMARK                            x       y       z     vdW  Elec       q    Type
REMARK                         _______ _______ _______ _____ _____    ______ ____
ROOT
ATOM      1  C   UNL     1       3.324  -4.347   3.435  0.00  0.00    +0.193 C 
ENDROOT
BRANCH   1   2
ATOM      2  C   UNL     1       4.255  -3.195   3.158  0.00  0.00    -0.018 A 
ATOM      3  C   UNL     1       4.810  -3.042   1.901  0.00  0.00    +0.006 A 
ATOM      4  C   UNL     1       5.665  -1.986   1.647  0.00  0.00    +0.000 A 
ATOM      5  C   UNL     1       5.964  -1.082   2.649  0.00  0.00    +0.000 A 
ATOM      6  C   UNL     1       5.408  -1.234   3.905  0.00  0.00    +0.000 A 
ATOM      7  C   UNL     1       4.550  -2.288   4.159  0.00  0.00    +0.006 A 
ENDBRANCH   1   2
BRANCH   1   9
ATOM      8  N   UNL     1       3.275  -4.974   1.043  0.00  0.00    -0.294 N 
ATOM      9  C   UNL     1       3.433  -5.360   2.325  0.00  0.00    +0.239 C 
ATOM     10  O   UNL     1       3.663  -6.522   2.584  0.00  0.00    -0.273 OA
ATOM     11  H   UNL     1       3.091  -4.044   0.835  0.00  0.00    +0.150 HD
BRANCH   8  12
ATOM     12  C   UNL     1       3.381  -5.959  -0.037  0.00  0.00    +0.278 C 
BRANCH  12  13
ATOM     13  S   UNL     1       1.726  -6.563  -0.468  0.00  0.00    +0.013 S 
ATOM     14  O   UNL     1       1.007  -6.904   0.709  0.00  0.00    -0.168 OA
ATOM     15  O   UNL     1       1.805  -7.473  -1.557  0.00  0.00    -0.168 OA
BRANCH  13  20
ATOM     16  C   UNL     1      -1.156  -1.750  -2.691  0.00  0.00    +0.044 C 
ATOM     17  C   UNL     1      -0.436  -2.952  -2.136  0.00  0.00    -0.050 A 
ATOM     18  C   UNL     1       0.282  -3.779  -2.980  0.00  0.00    +0.005 A 
ATOM     19  C   UNL     1       0.943  -4.881  -2.471  0.00  0.00    +0.027 A 
ATOM     20  C   UNL     1       0.885  -5.157  -1.117  0.00  0.00    +0.090 A 
ATOM     21  C   UNL     1       0.168  -4.330  -0.273  0.00  0.00    +0.027 A 
ATOM     22  C   UNL     1      -0.489  -3.225  -0.782  0.00  0.00    +0.005 A 
ENDBRANCH  13  20
ENDBRANCH  12  13
ENDBRANCH   8  12
ENDBRANCH   1   9
BRANCH   1  23
ATOM     23  N   UNL     1       3.689  -4.975   4.707  0.00  0.00    -0.279 N 
ATOM     24  C   UNL     1       2.809  -4.993   5.727  0.00  0.00    +0.248 C 
ATOM     25  O   UNL     1       1.641  -4.720   5.528  0.00  0.00    -0.270 OA
BRANCH  24  26
ATOM     26  C   UNL     1       3.263  -5.345   7.088  0.00  0.00    +0.037 A 
ATOM     27  C   UNL     1       4.111  -6.437   7.284  0.00  0.00    +0.016 A 
ATOM     28  C   UNL     1       4.532  -6.761   8.556  0.00  0.00    +0.039 A 
ATOM     29  C   UNL     1       4.114  -6.004   9.640  0.00  0.00    +0.123 A 
ATOM     30  C   UNL     1       3.272  -4.919   9.452  0.00  0.00    +0.039 A 
ATOM     31  C   UNL     1       2.850  -4.583   8.183  0.00  0.00    +0.016 A 
ATOM     32  F   UNL     1       4.528  -6.326  10.885  0.00  0.00    -0.205 F 
ENDBRANCH  24  26
BRANCH  23  33
ATOM     33  C   UNL     1       5.012  -5.584   4.870  0.00  0.00    +0.077 C 
ATOM     34  C   UNL     1       5.999  -4.926   3.903  0.00  0.00    +0.022 C 
ATOM     35  C   UNL     1       7.380  -5.562   4.073  0.00  0.00    +0.002 C 
ATOM     36  C   UNL     1       7.292  -7.059   3.771  0.00  0.00    +0.000 C 
ATOM     37  C   UNL     1       6.305  -7.718   4.738  0.00  0.00    +0.002 C 
ATOM     38  C   UNL     1       4.924  -7.082   4.568  0.00  0.00    +0.022 C 
ENDBRANCH  23  33
ENDBRANCH   1  23
TORSDOF 8
