REMARK  Name = ZINC62521188
REMARK  8 active torsions:
REMARK  status: ('A' for Active; 'I' for Inactive)
REMARK    1  A    between atoms: C_1  and  C_2
REMARK    2  A    between atoms: C_2  and  C_3
REMARK    3  A    between atoms: C_2  and  N_13
REMARK    4  A    between atoms: N_16  and  C_17
REMARK    5  A    between atoms: C_17  and  C_18
REMARK    6  A    between atoms: C_17  and  C_19
REMARK    7  A    between atoms: N_21  and  C_22
REMARK    8  A    between atoms: C_22  and  C_23
REMARK                            x       y       z     vdW  Elec       q    Type
REMARK                         _______ _______ _______ _____ _____    ______ ____
ROOT
ATOM      1  N   UNL     1      -1.372  -0.511   0.012  0.00  0.00    -0.290 N 
ATOM      2  C   UNL     1      -2.029  -0.655   1.181  0.00  0.00    +0.301 C 
ATOM      3  O   UNL     1      -1.480  -0.364   2.226  0.00  0.00    -0.253 OA
ATOM      4  N   UNL     1      -3.293  -1.122   1.190  0.00  0.00    -0.288 N 
ATOM      5  H   UNL     1      -1.810  -0.743  -0.822  0.00  0.00    +0.151 HD
ATOM      6  H   UNL     1      -3.731  -1.354   0.356  0.00  0.00    +0.151 HD
ENDROOT
BRANCH   1   8
ATOM      7  C   UNL     1      -0.019   1.526   0.010  0.00  0.00    +0.036 C 
ATOM      8  C   UNL     1       0.002  -0.004   0.002  0.00  0.00    +0.137 C 
BRANCH   8   9
ATOM      9  C   UNL     1       0.707  -0.490  -1.238  0.00  0.00    +0.128 A 
ATOM     10  N   UNL     1       2.054  -0.644  -1.359  0.00  0.00    -0.340 N 
ATOM     11  H   UNL     1       2.717  -0.464  -0.674  0.00  0.00    +0.167 HD
ATOM     12  C   UNL     1       2.301  -1.105  -2.636  0.00  0.00    +0.066 A 
ATOM     13  C   UNL     1       3.451  -1.442  -3.337  0.00  0.00    +0.028 A 
ATOM     14  C   UNL     1       3.353  -1.883  -4.639  0.00  0.00    +0.002 A 
ATOM     15  C   UNL     1       2.114  -1.990  -5.254  0.00  0.00    +0.002 A 
ATOM     16  C   UNL     1       0.971  -1.663  -4.580  0.00  0.00    +0.030 A 
ATOM     17  C   UNL     1       1.046  -1.214  -3.259  0.00  0.00    +0.089 A 
ATOM     18  N   UNL     1       0.117  -0.829  -2.347  0.00  0.00    -0.231 NA
ENDBRANCH   8   9
ENDBRANCH   1   8
BRANCH   4  19
ATOM     19  C   UNL     1      -4.006  -1.278   2.460  0.00  0.00    +0.157 C 
ATOM     20  C   UNL     1      -3.657  -2.634   3.078  0.00  0.00    +0.038 C 
BRANCH  19  21
ATOM     21  C   UNL     1      -5.492  -1.206   2.214  0.00  0.00    +0.233 C 
ATOM     22  O   UNL     1      -5.912  -1.040   1.089  0.00  0.00    -0.274 OA
ATOM     23  N   UNL     1      -6.352  -1.325   3.245  0.00  0.00    -0.307 N 
ATOM     24  H   UNL     1      -6.015  -1.458   4.145  0.00  0.00    +0.149 HD
BRANCH  23  25
ATOM     25  C   UNL     1      -7.795  -1.255   3.006  0.00  0.00    +0.178 C 
BRANCH  25  26
ATOM     26  C   UNL     1      -8.529  -1.416   4.312  0.00  0.00    +0.122 A 
ATOM     27  C   UNL     1      -8.889  -0.419   5.141  0.00  0.00    +0.046 A 
ATOM     28  C   UNL     1      -9.550  -1.017   6.238  0.00  0.00    +0.041 A 
ATOM     29  C   UNL     1      -9.555  -2.343   6.015  0.00  0.00    +0.195 A 
ATOM     30  O   UNL     1      -8.940  -2.579   4.844  0.00  0.00    -0.466 OA
ENDBRANCH  25  26
ENDBRANCH  23  25
ENDBRANCH  19  21
ENDBRANCH   4  19
TORSDOF 6
