REMARK  Name = ZINC20868517
REMARK  6 active torsions:
REMARK  status: ('A' for Active; 'I' for Inactive)
REMARK    1  A    between atoms: C_6  and  C_11
REMARK    2  A    between atoms: C_16  and  C_17
REMARK    3  A    between atoms: N_20  and  C_23
REMARK    4  A    between atoms: C_23  and  C_24
REMARK    5  A    between atoms: C_27  and  C_29
REMARK    6  A    between atoms: C_29  and  O_30
REMARK                            x       y       z     vdW  Elec       q    Type
REMARK                         _______ _______ _______ _____ _____    ______ ____
ROOT
ATOM      1  C   UNL     1       0.002  -0.004   0.008  0.00  0.00    +0.023 A 
ATOM      2  C   UNL     1       1.351  -0.410  -0.003  0.00  0.00    +0.113 A 
ATOM      3  N   UNL     1       2.098   0.662  -0.014  0.00  0.00    -0.284 N 
ATOM      4  N   UNL     1       1.263   1.786  -0.001  0.00  0.00    -0.178 NA
ATOM      5  H   UNL     1       3.194   0.569  -0.031  0.00  0.00    +0.188 HD
ATOM      6  C   UNL     1      -0.016   1.360   0.009  0.00  0.00    +0.073 A 
ENDROOT
BRANCH   1  12
ATOM      7  C   UNL     1      -4.633  -4.407  -0.829  0.00  0.00    +0.001 A 
ATOM      8  C   UNL     1      -3.627  -4.620  -1.770  0.00  0.00    +0.001 A 
ATOM      9  C   UNL     1      -2.525  -3.822  -1.809  0.00  0.00    +0.008 A 
ATOM     10  C   UNL     1      -2.397  -2.767  -0.889  0.00  0.00    -0.017 A 
ATOM     11  C   UNL     1      -1.276  -1.921  -0.906  0.00  0.00    +0.017 A 
ATOM     12  C   UNL     1      -1.183  -0.897   0.017  0.00  0.00    -0.014 A 
ATOM     13  C   UNL     1      -2.203  -0.691   0.960  0.00  0.00    +0.009 A 
ATOM     14  C   UNL     1      -3.297  -1.495   0.990  0.00  0.00    +0.009 A 
ATOM     15  C   UNL     1      -3.420  -2.550   0.068  0.00  0.00    -0.018 A 
ATOM     16  C   UNL     1      -4.543  -3.395   0.077  0.00  0.00    +0.008 A 
ENDBRANCH   1  12
BRANCH   6  17
ATOM     17  C   UNL     1      -1.244   2.234   0.019  0.00  0.00    +0.037 C 
ATOM     18  C   UNL     1      -1.246   3.130  -1.222  0.00  0.00    -0.009 C 
ATOM     19  C   UNL     1      -2.463   4.057  -1.175  0.00  0.00    -0.078 C 
ATOM     20  N   UNL     1      -2.409   4.876   0.043  0.00  0.00    +0.384 N 
ATOM     21  C   UNL     1      -2.454   4.039   1.248  0.00  0.00    -0.078 C 
ATOM     22  C   UNL     1      -1.237   3.112   1.274  0.00  0.00    -0.009 C 
ATOM     23  H   UNL     1      -1.448   5.413   0.043  0.00  0.00    -0.081 HD
BRANCH  20  24
ATOM     24  C   UNL     1      -3.486   5.875   0.054  0.00  0.00    -0.003 C 
BRANCH  24  25
ATOM     25  C   UNL     1      -3.563   6.546  -1.293  0.00  0.00    +0.089 A 
ATOM     26  C   UNL     1      -4.309   6.137  -2.335  0.00  0.00    +0.043 A 
ATOM     27  C   UNL     1      -4.080   7.052  -3.388  0.00  0.00    +0.047 A 
ATOM     28  C   UNL     1      -3.207   7.966  -2.927  0.00  0.00    +0.130 A 
ATOM     29  O   UNL     1      -2.901   7.657  -1.656  0.00  0.00    -0.464 OA
BRANCH  28  30
ATOM     30  C   UNL     1      -2.667   9.139  -3.703  0.00  0.00    +0.230 C 
BRANCH  30  31
ATOM     31  O   UNL     1      -3.521  10.270  -3.512  0.00  0.00    -0.387 OA
ATOM     32  H   UNL     1      -3.286  11.225  -4.004  0.00  0.00    +0.210 HD
ENDBRANCH  30  31
ENDBRANCH  28  30
ENDBRANCH  24  25
ENDBRANCH  20  24
ENDBRANCH   6  17
TORSDOF 6
