REMARK  Name = ZINC07583322
REMARK  7 active torsions:
REMARK  status: ('A' for Active; 'I' for Inactive)
REMARK    1  A    between atoms: C_1  and  C_2
REMARK    2  A    between atoms: C_2  and  C_4
REMARK    3  A    between atoms: C_2  and  N_13
REMARK    4  A    between atoms: C_14  and  C_16
REMARK    5  A    between atoms: C_16  and  N_53
REMARK    6  A    between atoms: C_17  and  N_53
REMARK    7  A    between atoms: C_18  and  N_53
REMARK                            x       y       z     vdW  Elec       q    Type
REMARK                         _______ _______ _______ _____ _____    ______ ____
ROOT
ATOM      1  N   UNL     1      -1.112   2.906  -1.475  0.00  0.00    -0.307 N 
ATOM      2  C   UNL     1      -2.173   3.642  -1.861  0.00  0.00    +0.197 C 
ATOM      3  O   UNL     1      -3.296   3.200  -1.735  0.00  0.00    -0.278 OA
ATOM      4  H   UNL     1      -0.215   3.260  -1.576  0.00  0.00    +0.149 HD
ENDROOT
BRANCH   1   6
ATOM      5  C   UNL     1      -1.589   1.699   0.598  0.00  0.00    +0.036 C 
ATOM      6  C   UNL     1      -1.315   1.573  -0.902  0.00  0.00    +0.136 C 
BRANCH   6   7
ATOM      7  C   UNL     1      -0.078   0.741  -1.118  0.00  0.00    +0.126 A 
ATOM      8  C   UNL     1      -0.076  -0.557  -1.454  0.00  0.00    +0.055 A 
ATOM      9  C   UNL     1       1.335  -0.949  -1.563  0.00  0.00    +0.020 A 
ATOM     10  C   UNL     1       1.995  -2.136  -1.874  0.00  0.00    +0.011 A 
ATOM     11  C   UNL     1       3.362  -2.168  -1.891  0.00  0.00    +0.001 A 
ATOM     12  C   UNL     1       4.094  -1.026  -1.600  0.00  0.00    +0.004 A 
ATOM     13  C   UNL     1       3.459   0.158  -1.290  0.00  0.00    +0.047 A 
ATOM     14  C   UNL     1       2.070   0.211  -1.268  0.00  0.00    +0.135 A 
ATOM     15  O   UNL     1       1.184   1.193  -1.009  0.00  0.00    -0.458 OA
ENDBRANCH   6   7
ENDBRANCH   1   6
BRANCH   2  16
ATOM     16  C   UNL     1      -1.965   5.013  -2.451  0.00  0.00    +0.019 C 
BRANCH  16  18
ATOM     17  C   UNL     1      -3.958   6.079  -1.582  0.00  0.00    -0.095 C 
ATOM     18  N   UNL     1      -3.283   5.583  -2.800  0.00  0.00    +0.388 N 
ATOM     19  H   UNL     1      -3.861   4.850  -3.227  0.00  0.00    -0.081 HD
BRANCH  18  20
ATOM     20  C   UNL     1      -3.115   6.687  -3.769  0.00  0.00    -0.037 C 
ATOM     21  C   UNL     1      -2.371   7.853  -3.121  0.00  0.00    -0.010 C 
ATOM     22  C   UNL     1      -2.413   9.047  -4.083  0.00  0.00    +0.003 C 
ATOM     23  C   UNL     1      -3.846   9.572  -4.137  0.00  0.00    +0.035 C 
ATOM     24  C   UNL     1      -4.812   8.449  -4.413  0.00  0.00    -0.046 A 
ATOM     25  C   UNL     1      -4.477   7.125  -4.241  0.00  0.00    -0.058 A 
ATOM     26  C   UNL     1      -5.417   6.138  -4.507  0.00  0.00    +0.002 A 
ATOM     27  C   UNL     1      -6.681   6.473  -4.946  0.00  0.00    +0.000 A 
ATOM     28  C   UNL     1      -7.016   7.803  -5.124  0.00  0.00    +0.000 A 
ATOM     29  C   UNL     1      -6.084   8.785  -4.858  0.00  0.00    +0.004 A 
ENDBRANCH  18  20
ENDBRANCH  16  18
ENDBRANCH   2  16
TORSDOF 5
