REMARK  Name = ZINC00922662
REMARK  10 active torsions:
REMARK  status: ('A' for Active; 'I' for Inactive)
REMARK    1  A    between atoms: C_4  and  C_7
REMARK    2  A    between atoms: C_7  and  N_8
REMARK    3  A    between atoms: C_9  and  C_11
REMARK    4  A    between atoms: C_11  and  C_13
REMARK    5  A    between atoms: C_11  and  N_21
REMARK    6  A    between atoms: C_16  and  O_20
REMARK    7  A    between atoms: C_17  and  O_19
REMARK    8  A    between atoms: N_21  and  C_22
REMARK    9  A    between atoms: C_29  and  C_31
REMARK   10  A    between atoms: C_31  and  N_32
REMARK                            x       y       z     vdW  Elec       q    Type
REMARK                         _______ _______ _______ _____ _____    ______ ____
ROOT
ATOM      1  C   UNL     1       5.857  -1.714   3.031  0.00  0.00    +0.197 C 
ENDROOT
BRANCH   1   2
ATOM      2  C   UNL     1       6.078  -0.461   3.837  0.00  0.00    -0.014 A 
ATOM      3  C   UNL     1       7.320   0.148   3.839  0.00  0.00    +0.010 A 
ATOM      4  C   UNL     1       7.528   1.298   4.577  0.00  0.00    +0.049 A 
ATOM      5  C   UNL     1       6.492   1.843   5.318  0.00  0.00    +0.158 A 
ATOM      6  C   UNL     1       5.242   1.231   5.316  0.00  0.00    +0.159 A 
ATOM      7  C   UNL     1       5.038   0.081   4.570  0.00  0.00    +0.055 A 
BRANCH   6   8
ATOM      8  O   UNL     1       4.221   1.762   6.041  0.00  0.00    -0.503 OA
ATOM      9  H   UNL     1       3.688   2.406   5.555  0.00  0.00    +0.292 HD
ENDBRANCH   6   8
BRANCH   5  10
ATOM     10  O   UNL     1       6.695   2.974   6.045  0.00  0.00    -0.503 OA
ATOM     11  H   UNL     1       6.515   3.791   5.560  0.00  0.00    +0.292 HD
ENDBRANCH   5  10
ENDBRANCH   1   2
BRANCH   1  13
ATOM     12  N   UNL     1       5.296  -0.492   0.955  0.00  0.00    -0.309 N 
ATOM     13  C   UNL     1       6.064  -1.414   1.569  0.00  0.00    +0.239 C 
ATOM     14  O   UNL     1       6.921  -2.002   0.945  0.00  0.00    -0.273 OA
ATOM     15  H   UNL     1       4.611  -0.021   1.454  0.00  0.00    +0.149 HD
BRANCH  12  16
ATOM     16  C   UNL     1       5.498  -0.200  -0.467  0.00  0.00    +0.139 C 
BRANCH  16  20
ATOM     17  C   UNL     1       2.727   2.803  -1.713  0.00  0.00    +0.000 A 
ATOM     18  C   UNL     1       3.967   3.167  -1.223  0.00  0.00    +0.000 A 
ATOM     19  C   UNL     1       4.864   2.195  -0.820  0.00  0.00    +0.005 A 
ATOM     20  C   UNL     1       4.520   0.859  -0.905  0.00  0.00    -0.030 A 
ATOM     21  C   UNL     1       3.280   0.495  -1.394  0.00  0.00    +0.005 A 
ATOM     22  C   UNL     1       2.384   1.466  -1.799  0.00  0.00    +0.000 A 
ENDBRANCH  16  20
ENDBRANCH  12  16
ENDBRANCH   1  13
BRANCH   1  23
ATOM     23  N   UNL     1       6.807  -2.744   3.458  0.00  0.00    -0.254 N 
ATOM     24  C   UNL     1       6.724  -3.990   2.950  0.00  0.00    +0.242 C 
ATOM     25  O   UNL     1       5.813  -4.282   2.204  0.00  0.00    -0.273 OA
BRANCH  23  26
ATOM     26  C   UNL     1       7.801  -2.435   4.392  0.00  0.00    +0.040 A 
ATOM     27  C   UNL     1       7.460  -2.189   5.716  0.00  0.00    +0.024 A 
ATOM     28  C   UNL     1       8.442  -1.884   6.637  0.00  0.00    +0.005 A 
ATOM     29  C   UNL     1       9.766  -1.823   6.244  0.00  0.00    +0.038 A 
ATOM     30  C   UNL     1      10.111  -2.067   4.925  0.00  0.00    +0.125 A 
ATOM     31  C   UNL     1       9.132  -2.378   3.999  0.00  0.00    +0.062 A 
ATOM     32  F   UNL     1      11.406  -2.006   4.544  0.00  0.00    -0.205 F 
ENDBRANCH  23  26
BRANCH  24  33
ATOM     33  C   UNL     1       7.764  -5.021   3.308  0.00  0.00    +0.242 C 
BRANCH  33  34
ATOM     34  N   UNL     1       7.504  -6.255   2.563  0.00  0.00    -0.235 N 
ATOM     35  C   UNL     1       6.714  -7.306   2.963  0.00  0.00    +0.090 A 
ATOM     36  C   UNL     1       5.950  -7.565   4.096  0.00  0.00    +0.029 A 
ATOM     37  C   UNL     1       5.259  -8.740   4.196  0.00  0.00    +0.002 A 
ATOM     38  C   UNL     1       5.312  -9.680   3.174  0.00  0.00    +0.002 A 
ATOM     39  C   UNL     1       6.054  -9.450   2.053  0.00  0.00    +0.032 A 
ATOM     40  C   UNL     1       6.772  -8.254   1.926  0.00  0.00    +0.113 A 
ATOM     41  N   UNL     1       7.572  -7.756   0.962  0.00  0.00    -0.129 NA
ATOM     42  N   UNL     1       8.009  -6.594   1.299  0.00  0.00    -0.064 NA
ENDBRANCH  33  34
ENDBRANCH  24  33
ENDBRANCH   1  23
TORSDOF 10
