REMARK  Name = ZINC06732172
REMARK  7 active torsions:
REMARK  status: ('A' for Active; 'I' for Inactive)
REMARK    1  A    between atoms: C_1  and  C_2
REMARK    2  A    between atoms: C_2  and  C_3
REMARK    3  A    between atoms: C_2  and  C_4
REMARK    4  A    between atoms: C_2  and  O_5
REMARK    5  A    between atoms: O_5  and  C_6
REMARK    6  A    between atoms: C_11  and  C_21
REMARK    7  A    between atoms: C_13  and  C_15
REMARK                            x       y       z     vdW  Elec       q    Type
REMARK                         _______ _______ _______ _____ _____    ______ ____
ROOT
ATOM      1  C   UNL     1      -3.021   2.518   1.860  0.00  0.00    +0.404 C 
ATOM      2  O   UNL     1      -1.894   2.964   1.774  0.00  0.00    -0.226 OA
ATOM      3  N   UNL     1      -3.438   1.569   1.000  0.00  0.00    -0.263 N 
ATOM      4  C   UNL     1      -4.827   1.083   1.025  0.00  0.00    +0.093 C 
ATOM      5  C   UNL     1      -5.397   1.153  -0.396  0.00  0.00    -0.062 C 
ATOM      6  C   UNL     1      -3.179   1.066  -1.374  0.00  0.00    -0.015 C 
ATOM      7  C   UNL     1      -2.519   0.993   0.007  0.00  0.00    +0.100 C 
ATOM      8  N   UNL     1      -4.507   0.423  -1.321  0.00  0.00    +0.386 N 
ATOM      9  H   UNL     1      -4.921   0.425  -2.260  0.00  0.00    -0.085 HD
ATOM     10  H   UNL     1      -4.401  -0.544  -0.995  0.00  0.00    -0.085 HD
ENDROOT
BRANCH   7  11
ATOM     11  C   UNL     1      -1.232   1.777  -0.005  0.00  0.00    -0.028 A 
ATOM     12  C   UNL     1      -1.206   3.057  -0.527  0.00  0.00    +0.005 A 
ATOM     13  C   UNL     1      -0.027   3.778  -0.533  0.00  0.00    +0.000 A 
ATOM     14  C   UNL     1       1.129   3.217  -0.022  0.00  0.00    +0.000 A 
ATOM     15  C   UNL     1       1.105   1.935   0.494  0.00  0.00    +0.000 A 
ATOM     16  C   UNL     1      -0.075   1.214   0.500  0.00  0.00    +0.005 A 
ENDBRANCH   7  11
BRANCH   6  17
ATOM     17  C   UNL     1      -2.321   0.344  -2.381  0.00  0.00    -0.059 A 
ATOM     18  C   UNL     1      -2.367  -1.035  -2.465  0.00  0.00    +0.002 A 
ATOM     19  C   UNL     1      -1.583  -1.697  -3.392  0.00  0.00    +0.000 A 
ATOM     20  C   UNL     1      -0.747  -0.981  -4.227  0.00  0.00    +0.000 A 
ATOM     21  C   UNL     1      -0.697   0.398  -4.139  0.00  0.00    +0.000 A 
ATOM     22  C   UNL     1      -1.484   1.060  -3.216  0.00  0.00    +0.002 A 
ENDBRANCH   6  17
BRANCH   1  23
ATOM     23  O   UNL     1      -3.853   2.973   2.816  0.00  0.00    -0.445 OA
BRANCH  23  25
ATOM     24  C   UNL     1      -2.934   5.227   2.893  0.00  0.00    +0.055 C 
ATOM     25  C   UNL     1      -3.336   3.996   3.708  0.00  0.00    +0.107 C 
ATOM     26  C   UNL     1      -4.417   4.385   4.719  0.00  0.00    +0.055 C 
ATOM     27  C   UNL     1      -2.113   3.454   4.451  0.00  0.00    +0.055 C 
ENDBRANCH  23  25
ENDBRANCH   1  23
TORSDOF 4
