REMARK  Name = ZINC12740844
REMARK  6 active torsions:
REMARK  status: ('A' for Active; 'I' for Inactive)
REMARK    1  A    between atoms: C_5  and  C_7
REMARK    2  A    between atoms: C_7  and  N_8
REMARK    3  A    between atoms: C_9  and  N_13
REMARK    4  A    between atoms: C_14  and  C_16
REMARK    5  A    between atoms: C_16  and  C_17
REMARK    6  A    between atoms: C_17  and  N_18
REMARK                            x       y       z     vdW  Elec       q    Type
REMARK                         _______ _______ _______ _____ _____    ______ ____
ROOT
ATOM      1  N   UNL     1      -0.924   4.176   2.154  0.00  0.00    -0.271 N 
ATOM      2  C   UNL     1      -1.752   4.467   3.176  0.00  0.00    +0.220 C 
ATOM      3  O   UNL     1      -1.300   4.862   4.230  0.00  0.00    -0.275 OA
ATOM      4  H   UNL     1      -1.285   3.861   1.311  0.00  0.00    +0.156 HD
ENDROOT
BRANCH   1   6
ATOM      5  N   UNL     1       1.396   4.077   1.370  0.00  0.00    -0.246 N 
ATOM      6  C   UNL     1       0.454   4.330   2.308  0.00  0.00    +0.123 A 
ATOM      7  C   UNL     1       1.095   4.759   3.429  0.00  0.00    +0.065 A 
ATOM      8  C   UNL     1       2.466   4.774   3.159  0.00  0.00    +0.136 A 
ATOM      9  N   UNL     1       2.648   4.367   1.929  0.00  0.00    -0.178 NA
BRANCH   5  10
ATOM     10  C   UNL     1       1.150   3.592   0.010  0.00  0.00    +0.182 C 
BRANCH  10  15
ATOM     11  C   UNL     1       0.002  -0.004   0.002  0.00  0.00    +0.000 A 
ATOM     12  C   UNL     1       1.208  -0.680  -0.013  0.00  0.00    +0.001 A 
ATOM     13  C   UNL     1       2.396   0.027  -0.021  0.00  0.00    +0.020 A 
ATOM     14  C   UNL     1       2.378   1.410  -0.013  0.00  0.00    +0.046 A 
ATOM     15  C   UNL     1       1.171   2.086   0.002  0.00  0.00    -0.008 A 
ATOM     16  C   UNL     1      -0.017   1.378   0.010  0.00  0.00    +0.007 A 
ATOM     17 CL   UNL     1       3.870   2.298  -0.023  0.00  0.00    -0.083 Cl
ENDBRANCH  10  15
ENDBRANCH   5  10
ENDBRANCH   1   6
BRANCH   2  18
ATOM     18  C   UNL     1      -3.241   4.301   3.010  0.00  0.00    +0.118 C 
BRANCH  18  19
ATOM     19  C   UNL     1      -3.946   4.695   4.309  0.00  0.00    +0.135 C 
BRANCH  19  20
ATOM     20  N   UNL     1      -5.394   4.534   4.147  0.00  0.00    -0.298 N 
ATOM     21  C   UNL     1      -6.133   5.580   3.696  0.00  0.00    +0.203 A 
ATOM     22  N   UNL     1      -7.425   5.474   3.534  0.00  0.00    -0.230 NA
ATOM     23  C   UNL     1      -8.060   4.340   3.816  0.00  0.00    +0.115 A 
ATOM     24  C   UNL     1      -7.380   3.205   4.294  0.00  0.00    +0.072 A 
ATOM     25  C   UNL     1      -5.964   3.354   4.454  0.00  0.00    +0.262 A 
ATOM     26  O   UNL     1      -5.286   2.427   4.862  0.00  0.00    -0.267 OA
ATOM     27  C   UNL     1      -8.220   2.051   4.552  0.00  0.00    +0.023 A 
ATOM     28  C   UNL     1      -9.540   2.138   4.327  0.00  0.00    +0.048 A 
ATOM     29  S   UNL     1      -9.751   3.808   3.741  0.00  0.00    -0.077 S 
ENDBRANCH  19  20
ENDBRANCH  18  19
ENDBRANCH   2  18
TORSDOF 6
