REMARK  Name = ZINC09781864
REMARK  9 active torsions:
REMARK  status: ('A' for Active; 'I' for Inactive)
REMARK    1  A    between atoms: C_1  and  C_2
REMARK    2  A    between atoms: C_4  and  N_11
REMARK    3  A    between atoms: C_6  and  C_8
REMARK    4  A    between atoms: C_8  and  C_9
REMARK    5  A    between atoms: C_8  and  C_10
REMARK    6  A    between atoms: C_16  and  N_17
REMARK    7  A    between atoms: C_16  and  N_67
REMARK    8  A    between atoms: C_20  and  C_24
REMARK    9  A    between atoms: C_20  and  C_25
REMARK                            x       y       z     vdW  Elec       q    Type
REMARK                         _______ _______ _______ _____ _____    ______ ____
ROOT
ATOM      1  N   UNL     1       6.226  -1.469   2.321  0.00  0.00    -0.241 N 
ATOM      2  C   UNL     1       5.871  -2.423   1.439  0.00  0.00    +0.249 C 
ATOM      3  O   UNL     1       5.642  -2.279   0.257  0.00  0.00    -0.272 OA
ATOM      4  C   UNL     1       5.815  -3.714   2.231  0.00  0.00    +0.136 C 
ATOM      5  N   UNL     1       6.180  -3.298   3.597  0.00  0.00    -0.281 N 
ATOM      6  C   UNL     1       6.406  -1.973   3.548  0.00  0.00    +0.308 C 
ATOM      7  O   UNL     1       6.734  -1.307   4.511  0.00  0.00    -0.252 OA
ATOM      8  C   UNL     1       4.402  -4.300   2.207  0.00  0.00    +0.047 C 
ATOM      9  H   UNL     1       6.248  -3.869   4.378  0.00  0.00    +0.152 HD
ENDROOT
BRANCH   4  10
ATOM     10  C   UNL     1       6.810  -4.710   1.693  0.00  0.00    -0.008 A 
ATOM     11  C   UNL     1       7.837  -5.142   2.476  0.00  0.00    +0.007 A 
ATOM     12  C   UNL     1       8.766  -6.062   1.996  0.00  0.00    +0.001 A 
ATOM     13  C   UNL     1       8.674  -6.556   0.730  0.00  0.00    +0.008 A 
ATOM     14  C   UNL     1       7.628  -6.134  -0.106  0.00  0.00    -0.018 A 
ATOM     15  C   UNL     1       6.679  -5.201   0.384  0.00  0.00    -0.012 A 
ATOM     16  C   UNL     1       5.636  -4.774  -0.456  0.00  0.00    +0.009 A 
ATOM     17  C   UNL     1       5.544  -5.268  -1.720  0.00  0.00    +0.001 A 
ATOM     18  C   UNL     1       6.474  -6.189  -2.201  0.00  0.00    +0.001 A 
ATOM     19  C   UNL     1       7.500  -6.621  -1.419  0.00  0.00    +0.008 A 
ENDBRANCH   4  10
BRANCH   1  20
ATOM     20  C   UNL     1       6.401  -0.055   1.979  0.00  0.00    +0.043 C 
BRANCH  20  26
ATOM     21  N   UNL     1       2.623   1.707   1.291  0.00  0.00    -0.319 N 
ATOM     22  C   UNL     1       2.680   0.509   2.140  0.00  0.00    +0.088 C 
ATOM     23  C   UNL     1       3.988  -0.240   1.875  0.00  0.00    -0.057 C 
ATOM     24  C   UNL     1       5.067   1.849   1.301  0.00  0.00    -0.057 C 
ATOM     25  C   UNL     1       3.759   2.598   1.566  0.00  0.00    +0.088 C 
ATOM     26  N   UNL     1       5.122   0.660   2.176  0.00  0.00    +0.392 N 
ATOM     27  H   UNL     1       5.056   0.963   3.155  0.00  0.00    -0.079 HD
BRANCH  21  31
ATOM     28  C   UNL     1      -2.298   1.753   1.185  0.00  0.00    +0.066 C 
ATOM     29  C   UNL     1      -0.965   2.420   1.407  0.00  0.00    +0.044 A 
ATOM     30  C   UNL     1       0.208   1.711   1.240  0.00  0.00    +0.066 A 
ATOM     31  C   UNL     1       1.419   2.373   1.452  0.00  0.00    +0.125 A 
ATOM     32  N   UNL     1       1.398   3.653   1.811  0.00  0.00    -0.217 NA
ATOM     33  C   UNL     1       0.255   4.290   1.964  0.00  0.00    +0.134 A 
ATOM     34  N   UNL     1      -0.904   3.693   1.772  0.00  0.00    -0.237 NA
BRANCH  33  35
ATOM     35  C   UNL     1       0.273   5.741   2.372  0.00  0.00    +0.051 C 
ATOM     36  C   UNL     1      -0.415   6.582   1.295  0.00  0.00    +0.015 C 
ATOM     37  C   UNL     1      -0.468   5.907   3.700  0.00  0.00    +0.015 C 
ENDBRANCH  33  35
ENDBRANCH  21  31
ENDBRANCH  20  26
ENDBRANCH   1  20
TORSDOF 5
