REMARK  Name = ZINC39723626
REMARK  10 active torsions:
REMARK  status: ('A' for Active; 'I' for Inactive)
REMARK    1  A    between atoms: C_1  and  C_2
REMARK    2  A    between atoms: C_9  and  N_30
REMARK    3  A    between atoms: C_10  and  C_13
REMARK    4  A    between atoms: N_17  and  C_21
REMARK    5  A    between atoms: C_21  and  C_23
REMARK    6  A    between atoms: C_21  and  C_24
REMARK    7  A    between atoms: N_30  and  C_31
REMARK    8  A    between atoms: C_31  and  C_32
REMARK    9  A    between atoms: C_32  and  C_33
REMARK   10  A    between atoms: C_32  and  C_34
REMARK                            x       y       z     vdW  Elec       q    Type
REMARK                         _______ _______ _______ _____ _____    ______ ____
ROOT
ATOM      1  C   UNL     1      -0.909   0.860   0.322  0.00  0.00    +0.047 C 
ATOM      2  C   UNL     1      -0.855  -0.642   0.216  0.00  0.00    -0.007 A 
ATOM      3  C   UNL     1      -0.923  -1.247  -1.004  0.00  0.00    +0.008 A 
ATOM      4  C   UNL     1      -0.872  -2.646  -1.086  0.00  0.00    +0.019 A 
ATOM      5  C   UNL     1      -0.756  -3.387   0.039  0.00  0.00    +0.096 A 
ATOM      6  N   UNL     1      -0.688  -2.792   1.263  0.00  0.00    -0.267 N 
ATOM      7  C   UNL     1      -0.729  -1.429   1.375  0.00  0.00    +0.145 A 
ATOM      8  N   UNL     1      -0.658  -0.829   2.562  0.00  0.00    -0.214 NA
ATOM      9  C   UNL     1      -0.538  -1.521   3.686  0.00  0.00    +0.134 A 
ATOM     10  C   UNL     1      -0.484  -2.934   3.632  0.00  0.00    +0.081 A 
ATOM     11  C   UNL     1      -0.572  -3.562   2.367  0.00  0.00    +0.267 A 
ATOM     12  O   UNL     1      -0.530  -4.776   2.273  0.00  0.00    -0.267 OA
ENDROOT
BRANCH  10  13
ATOM     13  C   UNL     1      -0.356  -3.700   4.814  0.00  0.00    +0.037 C 
ATOM     14  C   UNL     1       0.777  -4.427   5.037  0.00  0.00    +0.077 C 
ATOM     15  C   UNL     1       1.991  -4.463   4.294  0.00  0.00    +0.259 C 
ATOM     16  O   UNL     1       2.136  -3.777   3.297  0.00  0.00    -0.269 OA
ATOM     17  N   UNL     1       2.957  -5.259   4.717  0.00  0.00    -0.248 N 
ATOM     18  C   UNL     1       2.797  -6.019   5.823  0.00  0.00    +0.121 C 
ATOM     19  S   UNL     1       3.900  -7.111   6.546  0.00  0.00    -0.027 S 
ATOM     20  S   UNL     1       1.143  -5.589   6.345  0.00  0.00    -0.061 S 
BRANCH  17  21
ATOM     21  C   UNL     1       4.220  -5.320   3.977  0.00  0.00    +0.110 C 
ATOM     22  C   UNL     1       4.080  -4.542   2.667  0.00  0.00    +0.033 C 
BRANCH  21  23
ATOM     23  C   UNL     1       5.320  -4.711   4.808  0.00  0.00    -0.027 A 
ATOM     24  C   UNL     1       5.065  -3.592   5.579  0.00  0.00    +0.005 A 
ATOM     25  C   UNL     1       6.074  -3.034   6.341  0.00  0.00    +0.000 A 
ATOM     26  C   UNL     1       7.337  -3.594   6.333  0.00  0.00    +0.000 A 
ATOM     27  C   UNL     1       7.592  -4.714   5.563  0.00  0.00    +0.000 A 
ATOM     28  C   UNL     1       6.582  -5.275   4.804  0.00  0.00    +0.005 A 
ENDBRANCH  21  23
ENDBRANCH  17  21
ENDBRANCH  10  13
BRANCH   9  29
ATOM     29  N   UNL     1      -0.467  -0.870   4.898  0.00  0.00    -0.328 N 
ATOM     30  H   UNL     1      -0.379  -1.380   5.718  0.00  0.00    +0.147 HD
BRANCH  29  31
ATOM     31  C   UNL     1      -0.523   0.594   4.948  0.00  0.00    +0.106 C 
BRANCH  31  32
ATOM     32  C   UNL     1      -0.424   1.058   6.402  0.00  0.00    -0.000 C 
ATOM     33  C   UNL     1      -0.358   2.587   6.446  0.00  0.00    +0.009 C 
ATOM     34  C   UNL     1      -1.655   0.580   7.175  0.00  0.00    +0.009 C 
ENDBRANCH  31  32
ENDBRANCH  29  31
ENDBRANCH   9  29
TORSDOF 6
