REMARK  Name = ZINC09384351
REMARK  8 active torsions:
REMARK  status: ('A' for Active; 'I' for Inactive)
REMARK    1  A    between atoms: C_1  and  C_2
REMARK    2  A    between atoms: N_8  and  S_9
REMARK    3  A    between atoms: S_9  and  C_12
REMARK    4  A    between atoms: C_15  and  C_18
REMARK    5  A    between atoms: N_20  and  C_21
REMARK    6  A    between atoms: C_22  and  C_26
REMARK    7  A    between atoms: C_29  and  O_31
REMARK    8  A    between atoms: O_31  and  C_32
REMARK                            x       y       z     vdW  Elec       q    Type
REMARK                         _______ _______ _______ _____ _____    ______ ____
ROOT
ATOM      1  C   UNL     1      -2.169   3.516  -1.068  0.00  0.00    +0.249 C 
ATOM      2  O   UNL     1      -2.577   4.661  -1.043  0.00  0.00    -0.270 OA
ATOM      3  N   UNL     1      -0.864   3.270  -1.299  0.00  0.00    -0.275 N 
ATOM      4  H   UNL     1      -0.539   2.357  -1.319  0.00  0.00    +0.156 HD
ENDROOT
BRANCH   1   8
ATOM      5  C   UNL     1      -4.856   0.289  -0.427  0.00  0.00    +0.106 A 
ATOM      6  C   UNL     1      -5.324   1.591  -0.398  0.00  0.00    +0.029 A 
ATOM      7  C   UNL     1      -4.456   2.644  -0.605  0.00  0.00    +0.015 A 
ATOM      8  C   UNL     1      -3.104   2.393  -0.845  0.00  0.00    +0.037 A 
ATOM      9  C   UNL     1      -2.640   1.077  -0.878  0.00  0.00    +0.015 A 
ATOM     10  C   UNL     1      -3.517   0.034  -0.664  0.00  0.00    +0.029 A 
BRANCH   5  11
ATOM     11  S   UNL     1      -5.970  -1.049  -0.162  0.00  0.00    +0.061 S 
ATOM     12  O   UNL     1      -5.189  -2.142   0.302  0.00  0.00    -0.153 OA
ATOM     13  O   UNL     1      -7.064  -0.526   0.579  0.00  0.00    -0.153 OA
BRANCH  11  20
ATOM     14  C   UNL     1      -8.272   0.219  -1.214  0.00  0.00    +0.026 C 
ATOM     15  C   UNL     1      -7.711  -0.777  -2.230  0.00  0.00    +0.077 C 
ATOM     16  C   UNL     1      -8.792  -1.791  -2.601  0.00  0.00    +0.020 C 
ATOM     17  C   UNL     1      -8.189  -2.868  -3.506  0.00  0.00    +0.003 C 
ATOM     18  C   UNL     1      -7.074  -3.601  -2.756  0.00  0.00    +0.017 C 
ATOM     19  C   UNL     1      -5.970  -2.604  -2.390  0.00  0.00    +0.110 C 
ATOM     20  N   UNL     1      -6.568  -1.490  -1.642  0.00  0.00    -0.174 NA
ENDBRANCH  11  20
ENDBRANCH   5  11
ENDBRANCH   1   8
BRANCH   3  21
ATOM     21  C   UNL     1       0.011   4.322  -1.514  0.00  0.00    +0.084 A 
ATOM     22  C   UNL     1       1.377   4.271  -1.772  0.00  0.00    +0.066 A 
ATOM     23  C   UNL     1       2.050   5.535  -1.958  0.00  0.00    +0.022 A 
ATOM     24  C   UNL     1       1.301   6.649  -1.867  0.00  0.00    +0.048 A 
ATOM     25  S   UNL     1      -0.332   6.019  -1.535  0.00  0.00    -0.081 S 
BRANCH  22  26
ATOM     26  C   UNL     1       2.097   2.998  -1.851  0.00  0.00    +0.255 C 
ATOM     27  O   UNL     1       1.500   1.950  -1.689  0.00  0.00    -0.270 OA
ATOM     28  N   UNL     1       3.421   2.987  -2.102  0.00  0.00    -0.217 N 
ATOM     29  C   UNL     1       4.084   1.816  -2.174  0.00  0.00    +0.407 C 
ATOM     30  O   UNL     1       3.488   0.770  -2.013  0.00  0.00    -0.226 OA
ATOM     31  H   UNL     1       3.897   3.823  -2.231  0.00  0.00    +0.161 HD
BRANCH  29  32
ATOM     32  O   UNL     1       5.407   1.806  -2.425  0.00  0.00    -0.453 OA
ATOM     33  C   UNL     1       6.055   0.508  -2.489  0.00  0.00    +0.282 C 
ENDBRANCH  29  32
ENDBRANCH  22  26
ENDBRANCH   3  21
TORSDOF 6
