REMARK  Name = ZINC23742861
REMARK  9 active torsions:
REMARK  status: ('A' for Active; 'I' for Inactive)
REMARK    1  A    between atoms: C_1  and  N_2
REMARK    2  A    between atoms: N_2  and  C_3
REMARK    3  A    between atoms: C_3  and  C_4
REMARK    4  A    between atoms: N_6  and  C_15
REMARK    5  A    between atoms: C_8  and  C_9
REMARK    6  A    between atoms: C_21  and  C_23
REMARK    7  A    between atoms: C_23  and  N_24
REMARK    8  A    between atoms: C_25  and  C_27
REMARK    9  A    between atoms: C_31  and  N_33
REMARK                            x       y       z     vdW  Elec       q    Type
REMARK                         _______ _______ _______ _____ _____    ______ ____
ROOT
ATOM      1  C   UNL     1       5.412   5.105   0.330  0.00  0.00    +0.132 C 
ATOM      2  N   UNL     1       4.501   3.985   0.579  0.00  0.00    -0.299 N 
ATOM      3  C   UNL     1       4.721   2.794  -0.012  0.00  0.00    +0.233 C 
ATOM      4  O   UNL     1       4.024   1.841   0.267  0.00  0.00    -0.274 OA
ENDROOT
BRANCH   2   5
ATOM      5  C   UNL     1       3.351   4.160   1.469  0.00  0.00    +0.146 C 
BRANCH   5   6
ATOM      6  C   UNL     1       2.135   4.518   0.655  0.00  0.00    +0.016 A 
ATOM      7  C   UNL     1       2.066   4.562  -0.694  0.00  0.00    +0.120 A 
ATOM      8  N   UNL     1       0.802   4.926  -1.034  0.00  0.00    -0.239 N 
ATOM      9  N   UNL     1       0.070   5.106   0.146  0.00  0.00    -0.166 NA
ATOM     10  C   UNL     1       0.869   4.868   1.165  0.00  0.00    +0.098 A 
BRANCH  10  11
ATOM     11  C   UNL     1       0.499   4.947   2.599  0.00  0.00    +0.002 A 
ATOM     12  C   UNL     1      -0.293   5.997   3.060  0.00  0.00    +0.010 A 
ATOM     13  C   UNL     1      -0.635   6.066   4.396  0.00  0.00    +0.001 A 
ATOM     14  C   UNL     1      -0.192   5.095   5.276  0.00  0.00    +0.000 A 
ATOM     15  C   UNL     1       0.595   4.051   4.824  0.00  0.00    +0.001 A 
ATOM     16  C   UNL     1       0.943   3.973   3.491  0.00  0.00    +0.010 A 
ENDBRANCH  10  11
BRANCH   8  17
ATOM     17  C   UNL     1       0.315   5.087  -2.338  0.00  0.00    +0.065 A 
ATOM     18  C   UNL     1       1.153   4.874  -3.425  0.00  0.00    +0.028 A 
ATOM     19  C   UNL     1       0.668   5.028  -4.709  0.00  0.00    +0.002 A 
ATOM     20  C   UNL     1      -0.647   5.405  -4.913  0.00  0.00    +0.000 A 
ATOM     21  C   UNL     1      -1.482   5.622  -3.833  0.00  0.00    +0.002 A 
ATOM     22  C   UNL     1      -1.005   5.464  -2.546  0.00  0.00    +0.028 A 
ENDBRANCH   8  17
ENDBRANCH   5   6
ENDBRANCH   2   5
BRANCH   3  23
ATOM     23  C   UNL     1       5.833   2.645  -1.018  0.00  0.00    +0.200 C 
BRANCH  23  24
ATOM     24  N   UNL     1       5.865   1.266  -1.510  0.00  0.00    -0.303 N 
ATOM     25  C   UNL     1       6.785   0.898  -2.425  0.00  0.00    +0.245 C 
ATOM     26  O   UNL     1       7.587   1.711  -2.841  0.00  0.00    -0.270 OA
ATOM     27  H   UNL     1       5.139   0.530  -1.133  0.00  0.00    +0.150 HD
BRANCH  25  28
ATOM     28  C   UNL     1       6.817  -0.494  -2.921  0.00  0.00    +0.039 A 
ATOM     29  C   UNL     1       5.901  -1.431  -2.441  0.00  0.00    +0.013 A 
ATOM     30  C   UNL     1       5.934  -2.728  -2.912  0.00  0.00    +0.003 A 
ATOM     31  C   UNL     1       6.879  -3.102  -3.851  0.00  0.00    +0.033 A 
ATOM     32  C   UNL     1       7.793  -2.179  -4.328  0.00  0.00    +0.127 A 
ATOM     33  C   UNL     1       7.768  -0.878  -3.868  0.00  0.00    +0.045 A 
BRANCH  32  34
ATOM     34  N   UNL     1       8.800  -2.588  -5.332  0.00  0.00    +0.056 N 
ATOM     35  O   UNL     1       9.606  -1.777  -5.751  0.00  0.00    -0.126 OA
ATOM     36  O   UNL     1       8.824  -3.737  -5.738  0.00  0.00    -0.126 OA
ENDBRANCH  32  34
ENDBRANCH  25  28
ENDBRANCH  23  24
ENDBRANCH   3  23
TORSDOF 8
