REMARK  Name = ZINC17665164
REMARK  6 active torsions:
REMARK  status: ('A' for Active; 'I' for Inactive)
REMARK    1  A    between atoms: C_1  and  C_2
REMARK    2  A    between atoms: C_5  and  C_8
REMARK    3  A    between atoms: C_8  and  C_10
REMARK    4  A    between atoms: C_8  and  N_15
REMARK    5  A    between atoms: C_16  and  C_18
REMARK    6  A    between atoms: C_18  and  N_19
REMARK                            x       y       z     vdW  Elec       q    Type
REMARK                         _______ _______ _______ _____ _____    ______ ____
ROOT
ATOM      1  C   UNL     1      -2.482   0.853   0.018  0.00  0.00    +0.213 C 
ENDROOT
BRANCH   1   2
ATOM      2  N   UNL     1      -3.608   1.789   0.029  0.00  0.00    -0.215 N 
ATOM      3  C   UNL     1      -4.189   2.264   1.150  0.00  0.00    +0.252 C 
ATOM      4  O   UNL     1      -3.891   2.007   2.297  0.00  0.00    -0.272 OA
ATOM      5  C   UNL     1      -5.289   3.185   0.676  0.00  0.00    +0.144 C 
ATOM      6  C   UNL     1      -6.646   2.680   1.156  0.00  0.00    +0.081 C 
ATOM      7  C   UNL     1      -7.692   3.768   0.876  0.00  0.00    +0.232 C 
ATOM      8  O   UNL     1      -7.365   4.921   1.652  0.00  0.00    -0.492 OA
ATOM      9  C   UNL     1      -6.088   5.381   1.608  0.00  0.00    +0.126 A 
ATOM     10  C   UNL     1      -5.046   4.590   1.152  0.00  0.00    +0.027 A 
ATOM     11  C   UNL     1      -3.757   5.095   1.130  0.00  0.00    +0.010 A 
ATOM     12  C   UNL     1      -3.506   6.385   1.558  0.00  0.00    +0.001 A 
ATOM     13  C   UNL     1      -4.544   7.178   2.010  0.00  0.00    +0.004 A 
ATOM     14  C   UNL     1      -5.831   6.679   2.035  0.00  0.00    +0.046 A 
ATOM     15  N   UNL     1      -5.205   3.117  -0.789  0.00  0.00    -0.281 N 
ATOM     16  C   UNL     1      -4.192   2.276  -1.073  0.00  0.00    +0.310 C 
ATOM     17  O   UNL     1      -3.847   1.991  -2.203  0.00  0.00    -0.252 OA
ATOM     18  H   UNL     1      -5.768   3.585  -1.425  0.00  0.00    +0.152 HD
ENDBRANCH   1   2
BRANCH   1  20
ATOM     19  N   UNL     1      -0.011   0.966   0.007  0.00  0.00    -0.303 N 
ATOM     20  C   UNL     1      -1.187   1.624   0.017  0.00  0.00    +0.232 C 
ATOM     21  O   UNL     1      -1.204   2.837   0.023  0.00  0.00    -0.274 OA
ATOM     22  H   UNL     1       0.002  -0.004   0.002  0.00  0.00    +0.150 HD
BRANCH  19  23
ATOM     23  C   UNL     1       1.248   1.716  -0.001  0.00  0.00    +0.140 C 
BRANCH  23  28
ATOM     24  C   UNL     1       5.451  -1.553   2.244  0.00  0.00    +0.044 C 
ATOM     25  C   UNL     1       4.354  -0.701   1.659  0.00  0.00    -0.050 A 
ATOM     26  C   UNL     1       4.292   0.647   1.960  0.00  0.00    +0.004 A 
ATOM     27  C   UNL     1       3.287   1.429   1.423  0.00  0.00    +0.006 A 
ATOM     28  C   UNL     1       2.344   0.863   0.585  0.00  0.00    -0.022 A 
ATOM     29  C   UNL     1       2.403  -0.486   0.289  0.00  0.00    +0.006 A 
ATOM     30  C   UNL     1       3.411  -1.267   0.823  0.00  0.00    +0.004 A 
ENDBRANCH  23  28
BRANCH  23  31
ATOM     31  C   UNL     1       1.602   2.087  -1.417  0.00  0.00    +0.014 A 
ATOM     32  C   UNL     1       2.122   3.245  -1.892  0.00  0.00    +0.013 A 
ATOM     33  C   UNL     1       2.373   3.362  -3.246  0.00  0.00    +0.008 A 
ATOM     34  C   UNL     1       2.082   2.319  -4.061  0.00  0.00    +0.045 A 
ATOM     35  S   UNL     1       1.440   1.117  -2.908  0.00  0.00    -0.099 S 
ENDBRANCH  23  31
ENDBRANCH  19  23
ENDBRANCH   1  20
TORSDOF 5
