REMARK  Name = ZINC09925230
REMARK  10 active torsions:
REMARK  status: ('A' for Active; 'I' for Inactive)
REMARK    1  A    between atoms: C_1  and  C_2
REMARK    2  A    between atoms: C_2  and  C_3
REMARK    3  A    between atoms: C_6  and  C_15
REMARK    4  A    between atoms: C_13  and  O_14
REMARK    5  A    between atoms: C_15  and  S_16
REMARK    6  A    between atoms: S_16  and  C_17
REMARK    7  A    between atoms: C_20  and  C_30
REMARK    8  A    between atoms: N_21  and  C_22
REMARK    9  A    between atoms: C_25  and  O_28
REMARK   10  A    between atoms: O_28  and  C_29
REMARK                            x       y       z     vdW  Elec       q    Type
REMARK                         _______ _______ _______ _____ _____    ______ ____
ROOT
ATOM      1  C   UNL     1      -2.697  -2.417  -0.025  0.00  0.00    +0.197 A 
ATOM      2  N   UNL     1      -3.315  -1.266  -0.180  0.00  0.00    -0.122 NA
ATOM      3  N   UNL     1      -2.478  -0.297  -0.071  0.00  0.00    -0.128 NA
ATOM      4  C   UNL     1      -1.274  -0.767   0.160  0.00  0.00    +0.169 A 
ATOM      5  N   UNL     1      -1.376  -2.141   0.191  0.00  0.00    -0.270 N 
ENDROOT
BRANCH   5   6
ATOM      6  C   UNL     1      -0.340  -3.064   0.404  0.00  0.00    +0.051 A 
ATOM      7  C   UNL     1       0.654  -3.224  -0.551  0.00  0.00    +0.030 A 
ATOM      8  C   UNL     1       1.676  -4.128  -0.339  0.00  0.00    +0.047 A 
ATOM      9  C   UNL     1       1.703  -4.884   0.824  0.00  0.00    +0.120 A 
ATOM     10  C   UNL     1       0.706  -4.730   1.776  0.00  0.00    +0.047 A 
ATOM     11  C   UNL     1      -0.314  -3.822   1.567  0.00  0.00    +0.030 A 
BRANCH   9  12
ATOM     12  O   UNL     1       2.707  -5.778   1.030  0.00  0.00    -0.495 OA
ATOM     13  C   UNL     1       3.700  -5.885   0.008  0.00  0.00    +0.277 C 
ENDBRANCH   9  12
ENDBRANCH   5   6
BRANCH   4  14
ATOM     14  C   UNL     1      -0.041   0.026   0.345  0.00  0.00    +0.022 A 
ATOM     15  C   UNL     1       1.097  -0.538   0.935  0.00  0.00    +0.031 A 
ATOM     16  C   UNL     1       2.225   0.239   1.087  0.00  0.00    +0.111 A 
ATOM     17  N   UNL     1       2.242   1.496   0.687  0.00  0.00    -0.263 NA
ATOM     18  C   UNL     1       1.192   2.067   0.127  0.00  0.00    +0.111 A 
ATOM     19  C   UNL     1       0.022   1.364  -0.065  0.00  0.00    +0.031 A 
ENDBRANCH   4  14
BRANCH   1  20
ATOM     20  S   UNL     1      -3.433  -4.016  -0.092  0.00  0.00    -0.081 S 
BRANCH  20  21
ATOM     21  C   UNL     1      -5.154  -3.557  -0.413  0.00  0.00    +0.113 C 
BRANCH  21  25
ATOM     22  C   UNL     1      -5.838  -5.610  -4.158  0.00  0.00    -0.005 A 
ATOM     23  C   UNL     1      -5.628  -4.969  -2.971  0.00  0.00    +0.019 A 
ATOM     24  C   UNL     1      -6.205  -5.469  -1.799  0.00  0.00    +0.022 A 
ATOM     25  C   UNL     1      -5.997  -4.802  -0.512  0.00  0.00    -0.020 A 
ATOM     26  C   UNL     1      -6.589  -5.334   0.589  0.00  0.00    +0.097 A 
ATOM     27  C   UNL     1      -7.373  -6.500   0.470  0.00  0.00    +0.338 A 
ATOM     28  O   UNL     1      -7.897  -6.966   1.466  0.00  0.00    -0.245 OA
ATOM     29  O   UNL     1      -7.555  -7.109  -0.711  0.00  0.00    -0.422 OA
ATOM     30  C   UNL     1      -6.995  -6.633  -1.844  0.00  0.00    +0.143 A 
ATOM     31  C   UNL     1      -7.194  -7.274  -3.057  0.00  0.00    +0.092 A 
ATOM     32  C   UNL     1      -6.624  -6.759  -4.210  0.00  0.00    +0.124 A 
BRANCH  22  34
ATOM     33  C   UNL     1      -3.956  -5.874  -5.751  0.00  0.00    +0.009 C 
ATOM     34  C   UNL     1      -5.216  -5.071  -5.420  0.00  0.00    +0.035 C 
ENDBRANCH  22  34
BRANCH  32  35
ATOM     35  O   UNL     1      -6.823  -7.385  -5.397  0.00  0.00    -0.506 OA
ATOM     36  H   UNL     1      -6.164  -8.063  -5.600  0.00  0.00    +0.292 HD
ENDBRANCH  32  35
ENDBRANCH  21  25
ENDBRANCH  20  21
ENDBRANCH   1  20
TORSDOF 8
