REMARK  Name = ZINC53115060
REMARK  7 active torsions:
REMARK  status: ('A' for Active; 'I' for Inactive)
REMARK    1  A    between atoms: C_1  and  C_2
REMARK    2  A    between atoms: C_7  and  C_9
REMARK    3  A    between atoms: C_7  and  N_11
REMARK    4  A    between atoms: C_9  and  O_10
REMARK    5  A    between atoms: N_11  and  C_12
REMARK    6  A    between atoms: C_15  and  C_19
REMARK    7  A    between atoms: C_17  and  N_18
REMARK                            x       y       z     vdW  Elec       q    Type
REMARK                         _______ _______ _______ _____ _____    ______ ____
ROOT
ATOM      1  N   UNL     1       1.998   1.502   0.948  0.00  0.00    -0.335 N 
ATOM      2  H   UNL     1       2.198   1.979   0.128  0.00  0.00    +0.147 HD
ENDROOT
BRANCH   1   8
ATOM      3  C   UNL     1      -0.186   1.009  -0.164  0.00  0.00    +0.007 C 
ATOM      4  C   UNL     1       0.138  -0.482  -0.049  0.00  0.00    -0.012 C 
ATOM      5  C   UNL     1       0.892  -0.938  -1.298  0.00  0.00    +0.003 C 
ATOM      6  C   UNL     1       2.193  -0.143  -1.427  0.00  0.00    +0.002 C 
ATOM      7  C   UNL     1       3.062  -0.382  -0.191  0.00  0.00    +0.028 C 
ATOM      8  C   UNL     1       2.307   0.074   1.059  0.00  0.00    +0.055 C 
ATOM      9  C   UNL     1       1.006  -0.721   1.188  0.00  0.00    +0.031 C 
BRANCH   8  10
ATOM     10  C   UNL     1       3.176  -0.165   2.295  0.00  0.00    +0.181 C 
BRANCH  10  11
ATOM     11  O   UNL     1       4.360   0.630   2.207  0.00  0.00    -0.393 OA
ATOM     12  H   UNL     1       4.959   0.528   2.959  0.00  0.00    +0.209 HD
ENDBRANCH  10  11
ENDBRANCH   8  10
ENDBRANCH   1   8
BRANCH   1  13
ATOM     13  C   UNL     1       1.415   2.175   2.022  0.00  0.00    +0.049 A 
ATOM     14  C   UNL     1       1.015   1.467   3.149  0.00  0.00    +0.026 A 
ATOM     15  C   UNL     1       0.438   2.127   4.212  0.00  0.00    +0.021 A 
ATOM     16  C   UNL     1       0.256   3.512   4.161  0.00  0.00    +0.054 A 
ATOM     17  C   UNL     1       0.658   4.226   3.028  0.00  0.00    +0.043 A 
ATOM     18  C   UNL     1       1.241   3.560   1.966  0.00  0.00    +0.047 A 
BRANCH  18  19
ATOM     19  N   UNL     1       1.651   4.272   0.832  0.00  0.00    -0.357 N 
ATOM     20  H   UNL     1       2.056   3.804   0.086  0.00  0.00    +0.142 HD
ATOM     21  H   UNL     1       1.530   5.234   0.794  0.00  0.00    +0.142 HD
ENDBRANCH  18  19
BRANCH  16  22
ATOM     22  C   UNL     1      -0.344   4.198   5.266  0.00  0.00    +0.099 C 
ATOM     23  N   UNL     1      -0.819   4.742   6.142  0.00  0.00    -0.191 NA
ENDBRANCH  16  22
ENDBRANCH   1  13
TORSDOF 6
