REMARK  Name = ZINC51993828
REMARK  6 active torsions:
REMARK  status: ('A' for Active; 'I' for Inactive)
REMARK    1  A    between atoms: C_1  and  C_2
REMARK    2  A    between atoms: C_5  and  S_9
REMARK    3  A    between atoms: C_6  and  N_8
REMARK    4  A    between atoms: S_9  and  N_12
REMARK    5  A    between atoms: N_12  and  C_13
REMARK    6  A    between atoms: C_19  and  O_21
REMARK                            x       y       z     vdW  Elec       q    Type
REMARK                         _______ _______ _______ _____ _____    ______ ____
ROOT
ATOM      1  S   UNL     1       0.099  -4.505   0.054  0.00  0.00    +0.060 S 
ATOM      2  O   UNL     1      -0.823  -4.941   1.043  0.00  0.00    -0.153 OA
ATOM      3  O   UNL     1      -0.086  -4.771  -1.330  0.00  0.00    -0.153 OA
ENDROOT
BRANCH   1   8
ATOM      4  C   UNL     1       0.523   1.492   0.624  0.00  0.00    +0.044 C 
ATOM      5  C   UNL     1       0.420  -0.005   0.478  0.00  0.00    -0.049 A 
ATOM      6  C   UNL     1      -0.444  -0.720   1.288  0.00  0.00    +0.005 A 
ATOM      7  C   UNL     1      -0.542  -2.093   1.158  0.00  0.00    +0.030 A 
ATOM      8  C   UNL     1       0.224  -2.755   0.218  0.00  0.00    +0.126 A 
ATOM      9  C   UNL     1       1.092  -2.040  -0.597  0.00  0.00    +0.051 A 
ATOM     10  C   UNL     1       1.184  -0.660  -0.467  0.00  0.00    +0.028 A 
BRANCH   9  11
ATOM     11  N   UNL     1       1.868  -2.707  -1.548  0.00  0.00    -0.356 N 
ATOM     12  H   UNL     1       1.754  -3.661  -1.685  0.00  0.00    +0.142 HD
ATOM     13  H   UNL     1       2.520  -2.217  -2.072  0.00  0.00    +0.142 HD
ENDBRANCH   9  11
ENDBRANCH   1   8
BRANCH   1  14
ATOM     14  N   UNL     1       1.571  -5.142   0.466  0.00  0.00    -0.184 NA
ATOM     15  H   UNL     1       2.105  -5.601  -0.202  0.00  0.00    +0.148 HD
BRANCH  14  16
ATOM     16  C   UNL     1       2.067  -5.011   1.838  0.00  0.00    +0.105 C 
ATOM     17  C   UNL     1       3.002  -3.803   1.929  0.00  0.00    +0.023 C 
ATOM     18  C   UNL     1       3.520  -3.667   3.363  0.00  0.00    +0.002 C 
ATOM     19  C   UNL     1       4.285  -4.934   3.751  0.00  0.00    +0.003 C 
ATOM     20  C   UNL     1       3.350  -6.142   3.659  0.00  0.00    +0.033 C 
ATOM     21  C   UNL     1       2.832  -6.278   2.226  0.00  0.00    +0.133 C 
BRANCH  21  22
ATOM     22  O   UNL     1       1.959  -7.407   2.141  0.00  0.00    -0.390 OA
ATOM     23  H   UNL     1       2.378  -8.246   2.374  0.00  0.00    +0.210 HD
ENDBRANCH  21  22
ENDBRANCH  14  16
ENDBRANCH   1  14
TORSDOF 5
