REMARK  Name = ZINC36645813
REMARK  7 active torsions:
REMARK  status: ('A' for Active; 'I' for Inactive)
REMARK    1  A    between atoms: C_1  and  C_2
REMARK    2  A    between atoms: C_4  and  S_10
REMARK    3  A    between atoms: C_7  and  O_8
REMARK    4  A    between atoms: O_8  and  C_9
REMARK    5  A    between atoms: S_10  and  N_13
REMARK    6  A    between atoms: N_13  and  C_14
REMARK    7  A    between atoms: C_17  and  N_21
REMARK                            x       y       z     vdW  Elec       q    Type
REMARK                         _______ _______ _______ _____ _____    ______ ____
ROOT
ATOM      1  N   UNL     1       1.610  -3.163  -3.172  0.00  0.00    -0.215 N 
ATOM      2  H   UNL     1       1.955  -2.737  -3.973  0.00  0.00    +0.174 HD
ENDROOT
BRANCH   1   3
ATOM      3  C   UNL     1       2.472  -3.881  -2.334  0.00  0.00    +0.066 A 
ATOM      4  C   UNL     1       2.021  -5.025  -1.690  0.00  0.00    +0.028 A 
ATOM      5  C   UNL     1       2.870  -5.733  -0.863  0.00  0.00    +0.026 A 
ATOM      6  C   UNL     1       4.177  -5.301  -0.675  0.00  0.00    +0.052 A 
ATOM      7  C   UNL     1       4.629  -4.157  -1.319  0.00  0.00    +0.046 A 
ATOM      8  C   UNL     1       3.781  -3.451  -2.151  0.00  0.00    +0.065 A 
ATOM      9 CL   UNL     1       4.348  -2.025  -2.962  0.00  0.00    -0.082 Cl
BRANCH   6  10
ATOM     10  N   UNL     1       5.038  -6.019   0.163  0.00  0.00    -0.207 N 
ATOM     11  C   UNL     1       4.657  -6.903   1.280  0.00  0.00    +0.133 C 
ATOM     12  C   UNL     1       5.702  -8.016   1.479  0.00  0.00    +0.045 C 
ATOM     13  C   UNL     1       7.081  -7.294   1.409  0.00  0.00    +0.190 C 
ATOM     14  S   UNL     1       6.712  -6.057   0.099  0.00  0.00    +0.046 S 
ATOM     15  O   UNL     1       7.031  -6.572  -1.187  0.00  0.00    -0.155 OA
ATOM     16  O   UNL     1       7.136  -4.761   0.498  0.00  0.00    -0.155 OA
ENDBRANCH   6  10
ENDBRANCH   1   3
BRANCH   1  17
ATOM     17  S   UNL     1       0.002  -3.041  -2.797  0.00  0.00    +0.072 S 
ATOM     18  O   UNL     1      -0.473  -4.367  -2.609  0.00  0.00    -0.150 OA
ATOM     19  O   UNL     1      -0.571  -2.155  -3.749  0.00  0.00    -0.150 OA
BRANCH  17  23
ATOM     20  C   UNL     1      -0.387   1.273   0.127  0.00  0.00    +0.047 C 
ATOM     21  C   UNL     1      -0.288  -0.229   0.058  0.00  0.00    -0.007 A 
ATOM     22  C   UNL     1      -0.200  -0.861  -1.168  0.00  0.00    +0.035 A 
ATOM     23  C   UNL     1      -0.109  -2.238  -1.233  0.00  0.00    +0.109 A 
ATOM     24  C   UNL     1      -0.106  -2.988  -0.071  0.00  0.00    +0.032 A 
ATOM     25  C   UNL     1      -0.193  -2.362   1.157  0.00  0.00    +0.048 A 
ATOM     26  C   UNL     1      -0.279  -0.979   1.225  0.00  0.00    +0.123 A 
BRANCH  26  27
ATOM     27  O   UNL     1      -0.359  -0.360   2.432  0.00  0.00    -0.495 OA
ATOM     28  C   UNL     1      -0.345  -1.195   3.591  0.00  0.00    +0.277 C 
ENDBRANCH  26  27
ENDBRANCH  17  23
ENDBRANCH   1  17
TORSDOF 5
