REMARK  Name = ZINC35990952
REMARK  10 active torsions:
REMARK  status: ('A' for Active; 'I' for Inactive)
REMARK    1  A    between atoms: C_1  and  C_2
REMARK    2  A    between atoms: C_2  and  O_3
REMARK    3  A    between atoms: O_3  and  C_4
REMARK    4  A    between atoms: C_4  and  C_6
REMARK    5  A    between atoms: C_7  and  C_25
REMARK    6  A    between atoms: N_8  and  C_24
REMARK    7  A    between atoms: C_12  and  C_14
REMARK    8  A    between atoms: C_19  and  C_20
REMARK    9  A    between atoms: C_25  and  N_26
REMARK   10  A    between atoms: C_30  and  C_33
REMARK                            x       y       z     vdW  Elec       q    Type
REMARK                         _______ _______ _______ _____ _____    ______ ____
ROOT
ATOM      1  C   UNL     1       0.989  -1.871  -2.329  0.00  0.00    +0.080 C 
ATOM      2  C   UNL     1       1.051  -3.218  -2.254  0.00  0.00    +0.041 C 
ATOM      3  N   UNL     1       1.830  -3.937  -3.115  0.00  0.00    -0.260 N 
ATOM      4  C   UNL     1       2.577  -3.384  -4.079  0.00  0.00    +0.307 C 
ATOM      5  O   UNL     1       3.238  -4.107  -4.798  0.00  0.00    -0.252 OA
ATOM      6  N   UNL     1       2.619  -2.052  -4.278  0.00  0.00    -0.288 N 
ATOM      7  C   UNL     1       1.808  -1.187  -3.405  0.00  0.00    +0.144 C 
ATOM      8  C   UNL     1       1.849  -5.395  -2.976  0.00  0.00    +0.139 C 
ATOM      9  H   UNL     1       3.167  -1.672  -4.982  0.00  0.00    +0.151 HD
ENDROOT
BRANCH   7  10
ATOM     10  C   UNL     1       2.739  -0.212  -2.730  0.00  0.00    -0.011 A 
ATOM     11  C   UNL     1       3.856  -0.675  -2.060  0.00  0.00    +0.006 A 
ATOM     12  C   UNL     1       4.710   0.218  -1.441  0.00  0.00    +0.000 A 
ATOM     13  C   UNL     1       4.448   1.575  -1.493  0.00  0.00    +0.001 A 
ATOM     14  C   UNL     1       3.332   2.037  -2.164  0.00  0.00    +0.013 A 
ATOM     15  C   UNL     1       2.480   1.144  -2.786  0.00  0.00    +0.060 A 
BRANCH  15  16
ATOM     16  C   UNL     1       1.265   1.649  -3.522  0.00  0.00    +0.418 C 
ATOM     17  F   UNL     1       1.208   3.043  -3.426  0.00  0.00    -0.166 F 
ATOM     18  F   UNL     1       1.348   1.277  -4.869  0.00  0.00    -0.166 F 
ATOM     19  F   UNL     1       0.113   1.095  -2.956  0.00  0.00    -0.166 F 
ENDBRANCH  15  16
ENDBRANCH   7  10
BRANCH   1  20
ATOM     20  C   UNL     1       0.182  -1.125  -1.438  0.00  0.00    +0.339 C 
ATOM     21  O   UNL     1      -0.931  -0.771  -1.777  0.00  0.00    -0.245 OA
BRANCH  20  22
ATOM     22  O   UNL     1       0.648  -0.806  -0.212  0.00  0.00    -0.462 OA
BRANCH  22  24
ATOM     23  C   UNL     1       0.471   0.219   1.969  0.00  0.00    +0.048 C 
ATOM     24  C   UNL     1      -0.259  -0.149   0.675  0.00  0.00    +0.229 C 
ENDBRANCH  22  24
ENDBRANCH  20  22
ENDBRANCH   1  20
BRANCH   2  25
ATOM     25  C   UNL     1       0.248  -3.939  -1.202  0.00  0.00    +0.136 C 
BRANCH  25  26
ATOM     26  N   UNL     1      -0.790  -4.752  -1.850  0.00  0.00    -0.300 NA
ATOM     27  C   UNL     1      -1.784  -3.901  -2.519  0.00  0.00    +0.066 C 
ATOM     28  C   UNL     1      -2.811  -4.785  -3.230  0.00  0.00    -0.067 C 
ATOM     29  N   UNL     1      -3.469  -5.658  -2.249  0.00  0.00    +0.382 N 
ATOM     30  C   UNL     1      -2.467  -6.519  -1.607  0.00  0.00    -0.061 C 
ATOM     31  C   UNL     1      -1.437  -5.649  -0.882  0.00  0.00    +0.069 C 
ATOM     32  C   UNL     1      -3.157  -7.439  -0.599  0.00  0.00    -0.012 C 
ATOM     33  H   UNL     1      -3.925  -5.092  -1.549  0.00  0.00    -0.085 HD
ATOM     34  H   UNL     1      -4.155  -6.231  -2.716  0.00  0.00    -0.085 HD
ENDBRANCH  25  26
ENDBRANCH   2  25
TORSDOF 7
