REMARK  Name = ZINC32398373
REMARK  4 active torsions:
REMARK  status: ('A' for Active; 'I' for Inactive)
REMARK    1  A    between atoms: C_7  and  C_13
REMARK    2  A    between atoms: N_15  and  C_16
REMARK    3  A    between atoms: C_16  and  C_18
REMARK    4  A    between atoms: C_16  and  C_23
REMARK                            x       y       z     vdW  Elec       q    Type
REMARK                         _______ _______ _______ _____ _____    ______ ____
ROOT
ATOM      1  C   UNL     1       4.475   1.569  -1.500  0.00  0.00    +0.265 C 
ATOM      2  O   UNL     1       4.675   0.371  -1.439  0.00  0.00    -0.268 OA
ATOM      3  N   UNL     1       3.414   2.108  -0.866  0.00  0.00    -0.302 N 
ATOM      4  H   UNL     1       3.184   3.176  -0.991  0.00  0.00    +0.150 HD
ENDROOT
BRANCH   1  11
ATOM      5  C   UNL     1       7.953   0.026  -3.612  0.00  0.00    +0.001 A 
ATOM      6  C   UNL     1       8.776   0.895  -4.316  0.00  0.00    +0.001 A 
ATOM      7  C   UNL     1       8.505   2.247  -4.354  0.00  0.00    +0.014 A 
ATOM      8  C   UNL     1       7.393   2.738  -3.678  0.00  0.00    +0.050 A 
ATOM      9  C   UNL     1       6.558   1.854  -2.957  0.00  0.00    +0.020 A 
ATOM     10  C   UNL     1       6.846   0.494  -2.936  0.00  0.00    +0.011 A 
ATOM     11  C   UNL     1       5.394   2.433  -2.267  0.00  0.00    +0.153 A 
ATOM     12  N   UNL     1       5.185   3.725  -2.338  0.00  0.00    -0.166 NA
ATOM     13  N   UNL     1       5.933   4.541  -2.980  0.00  0.00    -0.242 N 
ATOM     14  H   UNL     1       5.692   5.614  -2.993  0.00  0.00    +0.192 HD
ATOM     15  C   UNL     1       7.031   4.162  -3.666  0.00  0.00    +0.272 A 
ATOM     16  O   UNL     1       7.707   4.982  -4.261  0.00  0.00    -0.266 OA
ENDBRANCH   1  11
BRANCH   3  17
ATOM     17  C   UNL     1       2.569   1.272  -0.011  0.00  0.00    +0.113 C 
BRANCH  17  18
ATOM     18  C   UNL     1       1.177   1.848   0.037  0.00  0.00    +0.010 A 
ATOM     19  C   UNL     1      -0.015   1.203   0.018  0.00  0.00    +0.013 A 
ATOM     20  C   UNL     1      -1.180   1.946   0.067  0.00  0.00    +0.008 A 
ATOM     21  C   UNL     1      -1.095   3.297   0.145  0.00  0.00    +0.045 A 
ATOM     22  S   UNL     1       0.671   3.557   0.136  0.00  0.00    -0.100 S 
ENDBRANCH  17  18
BRANCH  17  23
ATOM     23  C   UNL     1       3.154   1.232   1.402  0.00  0.00    +0.014 C 
ATOM     24  C   UNL     1       2.244   0.397   2.327  0.00  0.00    +0.006 C 
ATOM     25  C   UNL     1       2.298   1.140   3.685  0.00  0.00    +0.000 C 
ATOM     26  C   UNL     1       2.315   2.629   3.259  0.00  0.00    +0.000 C 
ATOM     27  C   UNL     1       3.199   2.651   1.994  0.00  0.00    +0.006 C 
ENDBRANCH  17  23
ENDBRANCH   3  17
TORSDOF 4
