REMARK  Name = ZINC17191386
REMARK  5 active torsions:
REMARK  status: ('A' for Active; 'I' for Inactive)
REMARK    1  A    between atoms: C_4  and  S_7
REMARK    2  A    between atoms: S_7  and  N_10
REMARK    3  A    between atoms: N_10  and  C_11
REMARK    4  A    between atoms: N_20  and  S_21
REMARK    5  A    between atoms: S_21  and  C_24
REMARK                            x       y       z     vdW  Elec       q    Type
REMARK                         _______ _______ _______ _____ _____    ______ ____
ROOT
ATOM      1  C   UNL     1       4.187   1.341  -2.503  0.00  0.00    +0.048 A 
ATOM      2  C   UNL     1       3.769   0.142  -3.067  0.00  0.00    +0.026 A 
ATOM      3  C   UNL     1       2.591  -0.440  -2.647  0.00  0.00    +0.027 A 
ATOM      4  C   UNL     1       1.823   0.171  -1.662  0.00  0.00    +0.055 A 
ATOM      5  C   UNL     1       2.240   1.365  -1.095  0.00  0.00    -0.023 A 
ATOM      6  C   UNL     1       3.422   1.948  -1.519  0.00  0.00    +0.030 A 
ATOM      7  C   UNL     1       1.438   2.047  -0.018  0.00  0.00    +0.039 C 
ATOM      8  C   UNL     1      -0.012   1.566  -0.044  0.00  0.00    +0.025 C 
ATOM      9  C   UNL     1      -0.027   0.032  -0.026  0.00  0.00    +0.132 C 
ATOM     10  N   UNL     1       0.626  -0.438  -1.255  0.00  0.00    -0.202 N 
ENDROOT
BRANCH  10  11
ATOM     11  S   UNL     1      -0.039  -1.665  -2.146  0.00  0.00    +0.081 S 
ATOM     12  O   UNL     1      -1.386  -1.796  -1.714  0.00  0.00    -0.149 OA
ATOM     13  O   UNL     1       0.306  -1.416  -3.502  0.00  0.00    -0.149 OA
BRANCH  11  14
ATOM     14  C   UNL     1       0.786  -3.151  -1.681  0.00  0.00    +0.146 A 
ATOM     15  C   UNL     1       0.470  -4.032  -0.701  0.00  0.00    +0.036 A 
ATOM     16  C   UNL     1       1.270  -5.144  -0.515  0.00  0.00    +0.010 A 
ATOM     17  C   UNL     1       2.346  -5.321  -1.319  0.00  0.00    +0.047 A 
ATOM     18  S   UNL     1       2.250  -3.892  -2.385  0.00  0.00    -0.077 S 
ENDBRANCH  11  14
ENDBRANCH  10  11
BRANCH   1  19
ATOM     19  N   UNL     1       5.381   1.936  -2.929  0.00  0.00    -0.216 N 
ATOM     20  H   UNL     1       6.007   2.288  -2.276  0.00  0.00    +0.174 HD
BRANCH  19  21
ATOM     21  S   UNL     1       5.726   2.038  -4.545  0.00  0.00    +0.072 S 
ATOM     22  O   UNL     1       6.975   2.706  -4.653  0.00  0.00    -0.150 OA
ATOM     23  O   UNL     1       5.504   0.744  -5.090  0.00  0.00    -0.150 OA
BRANCH  21  27
ATOM     24  C   UNL     1       2.632   4.771  -6.403  0.00  0.00    +0.000 A 
ATOM     25  C   UNL     1       3.811   5.297  -5.909  0.00  0.00    +0.002 A 
ATOM     26  C   UNL     1       4.756   4.462  -5.341  0.00  0.00    +0.029 A 
ATOM     27  C   UNL     1       4.521   3.102  -5.268  0.00  0.00    +0.108 A 
ATOM     28  C   UNL     1       3.345   2.575  -5.767  0.00  0.00    +0.029 A 
ATOM     29  C   UNL     1       2.397   3.411  -6.329  0.00  0.00    +0.002 A 
ENDBRANCH  21  27
ENDBRANCH  19  21
ENDBRANCH   1  19
TORSDOF 5
