REMARK  Name = ZINC54239389
REMARK  7 active torsions:
REMARK  status: ('A' for Active; 'I' for Inactive)
REMARK    1  A    between atoms: C_1  and  C_2
REMARK    2  A    between atoms: C_2  and  C_3
REMARK    3  A    between atoms: C_2  and  C_4
REMARK    4  A    between atoms: C_2  and  N_5
REMARK    5  A    between atoms: C_9  and  C_11
REMARK    6  A    between atoms: C_11  and  N_12
REMARK    7  A    between atoms: C_15  and  C_18
REMARK                            x       y       z     vdW  Elec       q    Type
REMARK                         _______ _______ _______ _____ _____    ______ ____
ROOT
ATOM      1  N   UNL     1       0.688  -0.476  -1.203  0.00  0.00    -0.294 N 
ATOM      2  C   UNL     1       1.972  -0.132  -1.427  0.00  0.00    +0.306 C 
ATOM      3  O   UNL     1       2.560   0.570  -0.629  0.00  0.00    -0.252 OA
ATOM      4  N   UNL     1       2.602  -0.567  -2.536  0.00  0.00    -0.242 N 
ATOM      5  C   UNL     1       3.886  -0.223  -2.760  0.00  0.00    +0.204 C 
ATOM      6  O   UNL     1       4.473   0.478  -1.963  0.00  0.00    -0.277 OA
ATOM      7  H   UNL     1       0.218  -1.037  -1.840  0.00  0.00    +0.151 HD
ATOM      8  H   UNL     1       2.132  -1.127  -3.173  0.00  0.00    +0.159 HD
ENDROOT
BRANCH   1  10
ATOM      9  C   UNL     1      -0.019   1.526   0.010  0.00  0.00    +0.031 C 
ATOM     10  C   UNL     1       0.002  -0.004   0.002  0.00  0.00    +0.028 C 
ATOM     11  C   UNL     1       0.742  -0.511   1.242  0.00  0.00    +0.031 C 
ATOM     12  C   UNL     1      -1.433  -0.534   0.013  0.00  0.00    +0.031 C 
ENDBRANCH   1  10
BRANCH   5  13
ATOM     13  C   UNL     1       4.591  -0.709  -3.999  0.00  0.00    +0.019 C 
BRANCH  13  14
ATOM     14  N   UNL     1       5.970  -0.200  -4.010  0.00  0.00    +0.385 N 
ATOM     15  C   UNL     1       6.710  -0.775  -2.881  0.00  0.00    -0.078 C 
ATOM     16  C   UNL     1       8.122  -0.187  -2.839  0.00  0.00    -0.008 C 
ATOM     17  C   UNL     1       8.846  -0.518  -4.148  0.00  0.00    +0.048 C 
ATOM     18  C   UNL     1       8.026   0.023  -5.324  0.00  0.00    -0.008 C 
ATOM     19  C   UNL     1       6.618  -0.574  -5.273  0.00  0.00    -0.078 C 
ATOM     20  H   UNL     1       5.957   0.805  -3.924  0.00  0.00    -0.081 HD
BRANCH  17  21
ATOM     21  C   UNL     1      10.209   0.125  -4.147  0.00  0.00    +0.226 C 
ATOM     22  O   UNL     1      11.199  -0.560  -4.239  0.00  0.00    -0.301 OA
ENDBRANCH  17  21
ENDBRANCH  13  14
ENDBRANCH   5  13
TORSDOF 4
