REMARK  Name = ZINC38742665
REMARK  7 active torsions:
REMARK  status: ('A' for Active; 'I' for Inactive)
REMARK    1  A    between atoms: C_1  and  C_2
REMARK    2  A    between atoms: C_2  and  C_3
REMARK    3  A    between atoms: C_2  and  C_4
REMARK    4  A    between atoms: C_6  and  C_10
REMARK    5  A    between atoms: C_18  and  C_20
REMARK    6  A    between atoms: C_20  and  O_21
REMARK    7  A    between atoms: O_21  and  C_22
REMARK                            x       y       z     vdW  Elec       q    Type
REMARK                         _______ _______ _______ _____ _____    ______ ____
ROOT
ATOM      1  C   UNL     1       0.938  -0.952   4.528  0.00  0.00    +0.206 C 
ATOM      2  N   UNL     1      -0.233  -1.686   5.065  0.00  0.00    -0.231 NA
ATOM      3  N   UNL     1       0.176  -2.229   6.372  0.00  0.00    -0.224 NA
ATOM      4  C   UNL     1       1.267  -1.320   6.779  0.00  0.00    +0.240 C 
ATOM      5  N   UNL     1       2.033  -1.187   5.497  0.00  0.00    -0.206 N 
ATOM      6  N   UNL     1       3.386  -1.406   5.635  0.00  0.00    -0.175 NA
ATOM      7  C   UNL     1       3.914  -1.943   6.684  0.00  0.00    +0.132 C 
ATOM      8  S   UNL     1       2.509  -2.177   7.816  0.00  0.00    -0.064 S 
ATOM      9  H   UNL     1      -1.030  -1.075   5.160  0.00  0.00    +0.143 HD
ATOM     10  H   UNL     1      -0.587  -2.197   7.032  0.00  0.00    +0.144 HD
ENDROOT
BRANCH   1  13
ATOM     11  C   UNL     1       0.731  -0.503   1.223  0.00  0.00    +0.064 C 
ATOM     12  C   UNL     1       0.194  -1.291   2.157  0.00  0.00    +0.030 C 
ATOM     13  C   UNL     1       1.322  -1.500   3.152  0.00  0.00    +0.190 C 
ATOM     14  N   UNL     1       2.427  -0.722   2.567  0.00  0.00    -0.177 NA
ATOM     15  N   UNL     1       2.019  -0.219   1.517  0.00  0.00    -0.158 NA
BRANCH  11  17
ATOM     16  C   UNL     1      -0.019   1.526   0.010  0.00  0.00    +0.014 C 
ATOM     17  C   UNL     1       0.002  -0.004   0.002  0.00  0.00    +0.033 C 
ATOM     18  C   UNL     1       0.718  -0.497  -1.257  0.00  0.00    +0.014 C 
ENDBRANCH  11  17
ENDBRANCH   1  13
BRANCH   7  19
ATOM     19  C   UNL     1       5.362  -2.289   6.922  0.00  0.00    +0.293 C 
BRANCH  19  20
ATOM     20  O   UNL     1       6.133  -1.928   5.774  0.00  0.00    -0.485 OA
BRANCH  20  21
ATOM     21  C   UNL     1       7.468  -2.174   5.825  0.00  0.00    +0.122 A 
ATOM     22  C   UNL     1       8.018  -2.763   6.969  0.00  0.00    +0.046 A 
ATOM     23  C   UNL     1       9.350  -3.022   7.050  0.00  0.00    +0.012 A 
ATOM     24  C   UNL     1      10.191  -2.696   5.971  0.00  0.00    -0.018 A 
ATOM     25  C   UNL     1      11.572  -2.951   6.021  0.00  0.00    +0.008 A 
ATOM     26  C   UNL     1      12.356  -2.623   4.958  0.00  0.00    +0.001 A 
ATOM     27  C   UNL     1      11.811  -2.037   3.817  0.00  0.00    +0.001 A 
ATOM     28  C   UNL     1      10.478  -1.775   3.733  0.00  0.00    +0.008 A 
ATOM     29  C   UNL     1       9.636  -2.100   4.811  0.00  0.00    -0.014 A 
ATOM     30  C   UNL     1       8.255  -1.850   4.757  0.00  0.00    +0.054 A 
ENDBRANCH  20  21
ENDBRANCH  19  20
ENDBRANCH   7  19
TORSDOF 5
