REMARK  Name = ZINC63174741
REMARK  5 active torsions:
REMARK  status: ('A' for Active; 'I' for Inactive)
REMARK    1  A    between atoms: C_4  and  S_10
REMARK    2  A    between atoms: C_6  and  N_7
REMARK    3  A    between atoms: S_10  and  N_13
REMARK    4  A    between atoms: N_13  and  C_14
REMARK    5  A    between atoms: C_19  and  N_21
REMARK                            x       y       z     vdW  Elec       q    Type
REMARK                         _______ _______ _______ _____ _____    ______ ____
ROOT
ATOM      1  S   UNL     1       3.992  -0.850  -0.019  0.00  0.00    +0.060 S 
ATOM      2  O   UNL     1       3.691  -2.231  -0.160  0.00  0.00    -0.153 OA
ATOM      3  O   UNL     1       3.010   0.111   0.345  0.00  0.00    -0.153 OA
ENDROOT
BRANCH   1   7
ATOM      4  C   UNL     1       7.296  -0.555   3.062  0.00  0.00    +0.034 A 
ATOM      5  C   UNL     1       7.406  -1.453   2.017  0.00  0.00    +0.024 A 
ATOM      6  C   UNL     1       6.396  -1.544   1.075  0.00  0.00    +0.067 A 
ATOM      7  C   UNL     1       5.278  -0.736   1.181  0.00  0.00    +0.126 A 
ATOM      8  C   UNL     1       5.170   0.161   2.226  0.00  0.00    +0.062 A 
ATOM      9  C   UNL     1       6.179   0.252   3.167  0.00  0.00    +0.128 A 
ATOM     10 CL   UNL     1       6.533  -2.671  -0.238  0.00  0.00    -0.082 Cl
BRANCH   9  11
ATOM     11  N   UNL     1       6.063   1.212   4.287  0.00  0.00    +0.056 N 
ATOM     12  O   UNL     1       6.945   1.291   5.110  0.00  0.00    -0.126 OA
ATOM     13  O   UNL     1       5.085   1.918   4.379  0.00  0.00    -0.126 OA
ENDBRANCH   9  11
ENDBRANCH   1   7
BRANCH   1  14
ATOM     14  N   UNL     1       4.627  -0.353  -1.466  0.00  0.00    -0.188 NA
ATOM     15  H   UNL     1       4.710  -0.982  -2.200  0.00  0.00    +0.148 HD
BRANCH  14  16
ATOM     16  C   UNL     1       5.061   1.035  -1.637  0.00  0.00    +0.062 C 
ATOM     17  C   UNL     1       6.592   1.134  -1.471  0.00  0.00    +0.019 C 
ATOM     18  C   UNL     1       7.135   1.070  -2.920  0.00  0.00    -0.000 C 
ATOM     19  C   UNL     1       6.089   1.890  -3.715  0.00  0.00    -0.015 C 
ATOM     20  C   UNL     1       4.740   1.516  -3.063  0.00  0.00    -0.056 C 
BRANCH  20  21
ATOM     21  N   UNL     1       3.862   2.692  -3.011  0.00  0.00    +0.381 N 
ATOM     22  H   UNL     1       4.323   3.435  -2.507  0.00  0.00    -0.090 HD
ATOM     23  H   UNL     1       3.657   3.001  -3.950  0.00  0.00    -0.090 HD
ATOM     24  H   UNL     1       3.002   2.450  -2.542  0.00  0.00    -0.090 HD
ENDBRANCH  20  21
ENDBRANCH  14  16
ENDBRANCH   1  14
TORSDOF 5
