REMARK  Name = ZINC00777974
REMARK  7 active torsions:
REMARK  status: ('A' for Active; 'I' for Inactive)
REMARK    1  A    between atoms: C_1  and  C_2
REMARK    2  A    between atoms: N_4  and  C_5
REMARK    3  A    between atoms: C_5  and  C_7
REMARK    4  A    between atoms: C_5  and  N_11
REMARK    5  A    between atoms: N_11  and  C_12
REMARK    6  A    between atoms: C_12  and  N_14
REMARK    7  A    between atoms: N_14  and  C_15
REMARK                            x       y       z     vdW  Elec       q    Type
REMARK                         _______ _______ _______ _____ _____    ______ ____
ROOT
ATOM      1  C   UNL     1      -3.587   3.200  -0.346  0.00  0.00    +0.136 C 
ATOM      2  S   UNL     1      -3.551   1.535  -0.739  0.00  0.00    -0.019 S 
ENDROOT
BRANCH   1   3
ATOM      3  N   UNL     1      -4.743   3.888  -0.428  0.00  0.00    -0.305 N 
ATOM      4  H   UNL     1      -4.764   4.831  -0.206  0.00  0.00    +0.150 HD
BRANCH   3   5
ATOM      5  C   UNL     1      -5.970   3.209  -0.854  0.00  0.00    +0.211 C 
BRANCH   5   9
ATOM      6  C   UNL     1      -6.396   3.125  -4.657  0.00  0.00    +0.109 C 
ATOM      7  C   UNL     1      -6.068   2.729  -3.241  0.00  0.00    +0.211 C 
ATOM      8  O   UNL     1      -5.606   1.632  -3.009  0.00  0.00    -0.276 OA
ATOM      9  N   UNL     1      -6.289   3.594  -2.231  0.00  0.00    -0.294 N 
ATOM     10  H   UNL     1      -6.659   4.471  -2.416  0.00  0.00    +0.151 HD
ENDBRANCH   5   9
BRANCH   5  11
ATOM     11  C   UNL     1      -7.122   3.612   0.068  0.00  0.00    +0.225 C 
ATOM     12 CL   UNL     1      -7.363   5.397  -0.016  0.00  0.00    -0.080 Cl
ATOM     13 CL   UNL     1      -8.632   2.777  -0.455  0.00  0.00    -0.080 Cl
ATOM     14 CL   UNL     1      -6.730   3.138   1.763  0.00  0.00    -0.080 Cl
ENDBRANCH   5  11
ENDBRANCH   3   5
ENDBRANCH   1   3
BRANCH   1  15
ATOM     15  N   UNL     1      -2.458   3.825   0.045  0.00  0.00    -0.295 N 
ATOM     16  H   UNL     1      -2.491   4.750   0.334  0.00  0.00    +0.154 HD
BRANCH  15  17
ATOM     17  C   UNL     1      -1.238   3.138   0.035  0.00  0.00    +0.070 A 
ATOM     18  C   UNL     1      -0.444   3.147  -1.105  0.00  0.00    +0.065 A 
ATOM     19  C   UNL     1       0.758   2.463  -1.114  0.00  0.00    +0.042 A 
ATOM     20  C   UNL     1       1.175   1.779   0.015  0.00  0.00    +0.044 A 
ATOM     21  C   UNL     1       0.388   1.773   1.153  0.00  0.00    +0.042 A 
ATOM     22  C   UNL     1      -0.817   2.450   1.166  0.00  0.00    +0.065 A 
ATOM     23 CL   UNL     1      -1.803   2.442   2.595  0.00  0.00    -0.082 Cl
ATOM     24 CL   UNL     1       2.687   0.928   0.002  0.00  0.00    -0.083 Cl
ATOM     25 CL   UNL     1      -0.962   4.011  -2.518  0.00  0.00    -0.082 Cl
ENDBRANCH  15  17
ENDBRANCH   1  15
TORSDOF 6
