REMARK  Name = ZINC38959004
REMARK  7 active torsions:
REMARK  status: ('A' for Active; 'I' for Inactive)
REMARK    1  A    between atoms: C_1  and  C_2
REMARK    2  A    between atoms: C_8  and  C_14
REMARK    3  A    between atoms: C_14  and  N_15
REMARK    4  A    between atoms: N_15  and  C_16
REMARK    5  A    between atoms: C_19  and  O_22
REMARK    6  A    between atoms: O_22  and  C_23
REMARK    7  A    between atoms: C_24  and  C_26
REMARK                            x       y       z     vdW  Elec       q    Type
REMARK                         _______ _______ _______ _____ _____    ______ ____
ROOT
ATOM      1  N   UNL     1      -1.120  -1.945   5.648  0.00  0.00    -0.268 N 
ATOM      2  C   UNL     1      -0.728  -2.560   6.782  0.00  0.00    +0.249 C 
ATOM      3  O   UNL     1      -0.909  -2.026   7.855  0.00  0.00    -0.272 OA
ENDROOT
BRANCH   1   4
ATOM      4  C   UNL     1      -1.625  -0.639   5.699  0.00  0.00    +0.037 A 
ATOM      5  C   UNL     1      -2.185  -0.067   4.565  0.00  0.00    +0.027 A 
ATOM      6  C   UNL     1      -2.683   1.220   4.615  0.00  0.00    +0.047 A 
ATOM      7  C   UNL     1      -2.623   1.942   5.798  0.00  0.00    +0.120 A 
ATOM      8  C   UNL     1      -2.063   1.371   6.932  0.00  0.00    +0.047 A 
ATOM      9  C   UNL     1      -1.570   0.081   6.884  0.00  0.00    +0.027 A 
BRANCH   7  10
ATOM     10  O   UNL     1      -3.113   3.209   5.847  0.00  0.00    -0.495 OA
ATOM     11  C   UNL     1      -3.018   3.893   7.098  0.00  0.00    +0.277 C 
ENDBRANCH   7  10
ENDBRANCH   1   4
BRANCH   2  12
ATOM     12  C   UNL     1      -0.065  -3.912   6.715  0.00  0.00    +0.204 C 
ATOM     13  C   UNL     1      -1.107  -4.989   6.343  0.00  0.00    +0.043 C 
ATOM     14  C   UNL     1      -0.681  -6.183   7.239  0.00  0.00    +0.031 C 
ATOM     15  C   UNL     1      -0.168  -5.439   8.498  0.00  0.00    +0.161 C 
ATOM     16  O   UNL     1       0.474  -4.253   7.997  0.00  0.00    -0.367 OA
ENDBRANCH   2  12
BRANCH   1  17
ATOM     17  C   UNL     1      -1.018  -2.642   4.364  0.00  0.00    +0.130 C 
BRANCH  17  25
ATOM     18  C   UNL     1       1.816   0.834   0.172  0.00  0.00    +0.045 C 
ATOM     19  C   UNL     1       1.519  -0.643   0.208  0.00  0.00    -0.029 A 
ATOM     20  C   UNL     1       1.613  -1.377  -0.932  0.00  0.00    +0.005 A 
ATOM     21  C   UNL     1       1.352  -2.747  -0.968  0.00  0.00    +0.001 A 
ATOM     22  C   UNL     1       0.988  -3.428   0.149  0.00  0.00    +0.009 A 
ATOM     23  C   UNL     1       0.868  -2.698   1.412  0.00  0.00    -0.007 A 
ATOM     24  C   UNL     1       0.505  -3.340   2.559  0.00  0.00    -0.003 C 
ATOM     25  C   UNL     1       0.406  -2.505   3.821  0.00  0.00    +0.116 C 
ATOM     26  C   UNL     1       0.718  -1.030   3.705  0.00  0.00    +0.226 C 
ATOM     27  O   UNL     1       0.655  -0.314   4.686  0.00  0.00    -0.275 OA
ATOM     28  N   UNL     1       1.060  -0.522   2.533  0.00  0.00    -0.284 N 
ATOM     29  C   UNL     1       1.154  -1.253   1.422  0.00  0.00    +0.043 A 
ATOM     30  H   UNL     1       1.257   0.426   2.480  0.00  0.00    +0.155 HD
ENDBRANCH  17  25
ENDBRANCH   1  17
TORSDOF 5
