REMARK  Name = ZINC64067016
REMARK  4 active torsions:
REMARK  status: ('A' for Active; 'I' for Inactive)
REMARK    1  A    between atoms: C_8  and  C_26
REMARK    2  A    between atoms: C_16  and  C_18
REMARK    3  A    between atoms: C_18  and  C_19
REMARK    4  A    between atoms: C_19  and  C_20
REMARK                            x       y       z     vdW  Elec       q    Type
REMARK                         _______ _______ _______ _____ _____    ______ ____
ROOT
ATOM      1  C   UNL     1       0.221   1.504  -0.110  0.00  0.00    +0.001 A 
ATOM      2  C   UNL     1       1.425   2.208  -0.248  0.00  0.00    +0.002 A 
ATOM      3  C   UNL     1       2.625   1.593  -0.306  0.00  0.00    +0.026 A 
ATOM      4  C   UNL     1       2.714   0.177  -0.228  0.00  0.00    +0.043 A 
ATOM      5  N   UNL     1       3.743  -0.638  -0.282  0.00  0.00    -0.375 N 
ATOM      6  C   UNL     1       3.267  -2.003  -0.073  0.00  0.00    +0.131 C 
ATOM      7  C   UNL     1       3.647  -2.925  -1.237  0.00  0.00    +0.137 C 
ATOM      8  N   UNL     1       2.807  -4.130  -1.151  0.00  0.00    -0.292 N 
ATOM      9  C   UNL     1       1.345  -4.028  -1.214  0.00  0.00    +0.113 C 
ATOM     10  C   UNL     1       0.849  -3.114  -0.079  0.00  0.00    +0.052 C 
ATOM     11  C   UNL     1       1.751  -1.900  -0.044  0.00  0.00    -0.035 C 
ATOM     12  C   UNL     1       1.454  -0.594  -0.088  0.00  0.00    -0.001 A 
ATOM     13  C   UNL     1       0.191   0.154  -0.029  0.00  0.00    +0.010 A 
ATOM     14  C   UNL     1       3.387  -5.339  -1.014  0.00  0.00    +0.216 C 
ATOM     15  O   UNL     1       4.580  -5.420  -0.812  0.00  0.00    -0.276 OA
ATOM     16  H   UNL     1       4.665  -0.377  -0.434  0.00  0.00    +0.160 HD
ENDROOT
BRANCH   7  17
ATOM     17  C   UNL     1       5.101  -3.307  -1.132  0.00  0.00    +0.029 A 
ATOM     18  C   UNL     1       5.659  -4.171  -2.058  0.00  0.00    +0.130 A 
ATOM     19  C   UNL     1       6.995  -4.521  -1.960  0.00  0.00    +0.039 A 
ATOM     20  C   UNL     1       7.771  -4.007  -0.938  0.00  0.00    +0.004 A 
ATOM     21  C   UNL     1       7.214  -3.144  -0.014  0.00  0.00    +0.020 A 
ATOM     22  C   UNL     1       5.880  -2.789  -0.114  0.00  0.00    +0.049 A 
ATOM     23 CL   UNL     1       5.183  -1.699   1.044  0.00  0.00    -0.083 Cl
ATOM     24  F   UNL     1       4.900  -4.674  -3.057  0.00  0.00    -0.205 F 
ENDBRANCH   7  17
BRANCH  14  25
ATOM     25  C   UNL     1       2.552  -6.590  -1.109  0.00  0.00    +0.100 C 
BRANCH  25  26
ATOM     26  C   UNL     1       3.447  -7.816  -0.919  0.00  0.00    +0.046 C 
BRANCH  26  27
ATOM     27  C   UNL     1       2.612  -9.068  -1.014  0.00  0.00    -0.029 A 
ATOM     28  C   UNL     1       2.023  -9.607   0.119  0.00  0.00    +0.006 A 
ATOM     29  C   UNL     1       1.263 -10.759  -0.017  0.00  0.00    +0.020 A 
ATOM     30  C   UNL     1       1.120 -11.327  -1.268  0.00  0.00    +0.111 A 
ATOM     31  N   UNL     1       1.696 -10.787  -2.325  0.00  0.00    -0.263 NA
ATOM     32  C   UNL     1       2.420  -9.688  -2.234  0.00  0.00    +0.114 A 
ENDBRANCH  26  27
ENDBRANCH  25  26
ENDBRANCH  14  25
TORSDOF 4
