REMARK  Name = ZINC32780760
REMARK  7 active torsions:
REMARK  status: ('A' for Active; 'I' for Inactive)
REMARK    1  A    between atoms: C_1  and  O_2
REMARK    2  A    between atoms: O_2  and  C_3
REMARK    3  A    between atoms: C_3  and  C_4
REMARK    4  A    between atoms: C_12  and  C_13
REMARK    5  A    between atoms: N_15  and  N_16
REMARK    6  A    between atoms: N_16  and  C_17
REMARK    7  A    between atoms: C_22  and  N_23
REMARK                            x       y       z     vdW  Elec       q    Type
REMARK                         _______ _______ _______ _____ _____    ______ ____
ROOT
ATOM      1  C   UNL     1      -4.756  -0.098   0.570  0.00  0.00    +0.296 C 
ATOM      2  O   UNL     1      -4.786   1.115   0.486  0.00  0.00    -0.265 OA
ATOM      3  N   UNL     1      -3.584  -0.753   0.453  0.00  0.00    -0.230 N 
ATOM      4  H   UNL     1      -3.557  -1.850   0.530  0.00  0.00    +0.173 HD
ENDROOT
BRANCH   1  13
ATOM      5  C   UNL     1      -7.232  -0.298   0.932  0.00  0.00    +0.036 A 
ATOM      6  C   UNL     1      -8.154  -1.413   1.142  0.00  0.00    +0.026 A 
ATOM      7  C   UNL     1      -9.533  -1.512   1.343  0.00  0.00    +0.012 A 
ATOM      8  C   UNL     1     -10.106  -2.741   1.513  0.00  0.00    +0.001 A 
ATOM      9  C   UNL     1      -9.327  -3.890   1.487  0.00  0.00    +0.004 A 
ATOM     10  C   UNL     1      -7.966  -3.814   1.291  0.00  0.00    +0.047 A 
ATOM     11  C   UNL     1      -7.360  -2.575   1.116  0.00  0.00    +0.136 A 
ATOM     12  O   UNL     1      -6.086  -2.192   0.903  0.00  0.00    -0.450 OA
ATOM     13  C   UNL     1      -5.998  -0.849   0.799  0.00  0.00    +0.197 A 
BRANCH   5  14
ATOM     14  C   UNL     1      -7.580   1.167   0.874  0.00  0.00    +0.199 C 
BRANCH  14  16
ATOM     15  C   UNL     1      -8.222   2.910  -0.642  0.00  0.00    +0.194 C 
ATOM     16  O   UNL     1      -7.877   1.534  -0.475  0.00  0.00    -0.378 OA
ENDBRANCH  14  16
ENDBRANCH   5  14
ENDBRANCH   1  13
BRANCH   3  17
ATOM     17  N   UNL     1      -2.400  -0.037   0.235  0.00  0.00    -0.262 N 
ATOM     18  H   UNL     1      -2.426   1.060   0.159  0.00  0.00    +0.170 HD
BRANCH  17  19
ATOM     19  C   UNL     1      -1.185  -0.716   0.114  0.00  0.00    +0.075 A 
ATOM     20  C   UNL     1      -1.163  -2.105   0.096  0.00  0.00    +0.027 A 
ATOM     21  C   UNL     1       0.040  -2.773  -0.024  0.00  0.00    +0.002 A 
ATOM     22  C   UNL     1       1.221  -2.061  -0.126  0.00  0.00    +0.002 A 
ATOM     23  C   UNL     1       1.202  -0.679  -0.113  0.00  0.00    +0.034 A 
ATOM     24  C   UNL     1       0.003  -0.004   0.012  0.00  0.00    +0.148 A 
BRANCH  24  25
ATOM     25  N   UNL     1      -0.016   1.476   0.031  0.00  0.00    +0.058 N 
ATOM     26  O   UNL     1       1.031   2.098   0.044  0.00  0.00    -0.126 OA
ATOM     27  O   UNL     1      -1.079   2.071   0.028  0.00  0.00    -0.126 OA
ENDBRANCH  24  25
ENDBRANCH  17  19
ENDBRANCH   3  17
TORSDOF 6
