REMARK  Name = ZINC15900549
REMARK  8 active torsions:
REMARK  status: ('A' for Active; 'I' for Inactive)
REMARK    1  A    between atoms: C_1  and  C_2
REMARK    2  A    between atoms: C_8  and  C_10
REMARK    3  A    between atoms: C_10  and  C_12
REMARK    4  A    between atoms: C_10  and  S_13
REMARK    5  A    between atoms: S_13  and  C_14
REMARK    6  A    between atoms: C_14  and  C_15
REMARK    7  A    between atoms: N_17  and  N_18
REMARK    8  A    between atoms: C_19  and  C_21
REMARK                            x       y       z     vdW  Elec       q    Type
REMARK                         _______ _______ _______ _____ _____    ______ ____
ROOT
ATOM      1  C   UNL     1      -7.281   1.168   2.100  0.00  0.00    +0.239 C 
ATOM      2  O   UNL     1      -6.886   1.865   3.009  0.00  0.00    -0.273 OA
ATOM      3  N   UNL     1      -6.457   0.859   1.079  0.00  0.00    -0.234 N 
ATOM      4  H   UNL     1      -6.774   0.301   0.352  0.00  0.00    +0.173 HD
ENDROOT
BRANCH   3   5
ATOM      5  N   UNL     1      -5.143   1.344   1.069  0.00  0.00    -0.234 N 
ATOM      6  C   UNL     1      -4.318   1.035   0.049  0.00  0.00    +0.235 C 
ATOM      7  O   UNL     1      -4.714   0.337  -0.861  0.00  0.00    -0.274 OA
ATOM      8  H   UNL     1      -4.826   1.902   1.797  0.00  0.00    +0.173 HD
BRANCH   6   9
ATOM      9  C   UNL     1      -2.904   1.556   0.038  0.00  0.00    +0.049 C 
ATOM     10  C   UNL     1      -2.188   1.063  -1.221  0.00  0.00    +0.019 C 
ATOM     11  C   UNL     1      -0.753   1.593  -1.232  0.00  0.00    -0.009 C 
ATOM     12  C   UNL     1      -0.013   1.086   0.008  0.00  0.00    +0.007 C 
ATOM     13  C   UNL     1      -0.729   1.579   1.267  0.00  0.00    -0.009 C 
ATOM     14  C   UNL     1      -2.164   1.050   1.278  0.00  0.00    +0.019 C 
ATOM     15  C   UNL     1      -0.750   3.109   1.275  0.00  0.00    +0.007 C 
ATOM     16  C   UNL     1      -1.490   3.616   0.036  0.00  0.00    -0.009 C 
ATOM     17  C   UNL     1      -0.773   3.123  -1.223  0.00  0.00    +0.007 C 
ATOM     18  C   UNL     1      -2.925   3.086   0.047  0.00  0.00    +0.019 C 
ENDBRANCH   6   9
ENDBRANCH   3   5
BRANCH   1  19
ATOM     19  C   UNL     1      -8.695   0.646   2.110  0.00  0.00    +0.167 C 
BRANCH  19  20
ATOM     20  S   UNL     1      -9.544   1.231   3.603  0.00  0.00    -0.139 S 
BRANCH  20  21
ATOM     21  C   UNL     1     -11.210   0.526   3.465  0.00  0.00    +0.130 C 
ATOM     22  C   UNL     1     -11.922   1.131   2.254  0.00  0.00    +0.029 C 
BRANCH  21  30
ATOM     23  C   UNL     1     -14.713   2.130   9.282  0.00  0.00    +0.089 C 
ATOM     24  C   UNL     1     -14.479   1.252   8.079  0.00  0.00    +0.136 A 
ATOM     25  C   UNL     1     -13.527   1.416   7.133  0.00  0.00    +0.091 A 
ATOM     26  C   UNL     1     -13.742   0.332   6.240  0.00  0.00    +0.168 A 
ATOM     27  N   UNL     1     -14.758  -0.338   6.718  0.00  0.00    -0.063 NA
ATOM     28  O   UNL     1     -15.174   0.157   7.739  0.00  0.00    -0.358 OA
ATOM     29  N   UNL     1     -13.018   0.044   5.083  0.00  0.00    -0.267 N 
ATOM     30  C   UNL     1     -11.992   0.837   4.715  0.00  0.00    +0.231 C 
ATOM     31  O   UNL     1     -11.699   1.802   5.389  0.00  0.00    -0.274 OA
ATOM     32  H   UNL     1     -13.252  -0.728   4.544  0.00  0.00    +0.156 HD
ENDBRANCH  21  30
ENDBRANCH  20  21
ENDBRANCH  19  20
ENDBRANCH   1  19
TORSDOF 6
