REMARK  Name = ZINC09289387
REMARK  9 active torsions:
REMARK  status: ('A' for Active; 'I' for Inactive)
REMARK    1  A    between atoms: C_1  and  C_2
REMARK    2  A    between atoms: C_2  and  C_3
REMARK    3  A    between atoms: C_3  and  C_5
REMARK    4  A    between atoms: C_3  and  N_20
REMARK    5  A    between atoms: N_7  and  C_8
REMARK    6  A    between atoms: C_8  and  C_9
REMARK    7  A    between atoms: C_9  and  C_10
REMARK    8  A    between atoms: C_10  and  N_64
REMARK    9  A    between atoms: C_32  and  C_34
REMARK                            x       y       z     vdW  Elec       q    Type
REMARK                         _______ _______ _______ _____ _____    ______ ____
ROOT
ATOM      1  C   UNL     1      -2.482   0.853   0.018  0.00  0.00    +0.196 C 
ENDROOT
BRANCH   1   2
ATOM      2  N   UNL     1      -3.608   1.789   0.029  0.00  0.00    -0.217 N 
ATOM      3  C   UNL     1      -4.485   1.748   1.046  0.00  0.00    +0.277 A 
ATOM      4  O   UNL     1      -4.339   0.938   1.946  0.00  0.00    -0.265 OA
ATOM      5  C   UNL     1      -5.587   2.659   1.074  0.00  0.00    +0.065 A 
ATOM      6  C   UNL     1      -6.641   2.770   2.100  0.00  0.00    +0.002 A 
ATOM      7  C   UNL     1      -6.779   1.997   3.275  0.00  0.00    +0.010 A 
ATOM      8  C   UNL     1      -7.820   2.218   4.139  0.00  0.00    +0.001 A 
ATOM      9  C   UNL     1      -8.767   3.201   3.888  0.00  0.00    +0.001 A 
ATOM     10  C   UNL     1      -8.659   3.973   2.748  0.00  0.00    +0.015 A 
ATOM     11  C   UNL     1      -7.614   3.757   1.873  0.00  0.00    +0.021 A 
ATOM     12  S   UNL     1      -7.130   4.510   0.340  0.00  0.00    -0.086 S 
ATOM     13  C   UNL     1      -5.679   3.549  -0.000  0.00  0.00    +0.048 A 
ATOM     14  C   UNL     1      -4.742   3.547  -1.039  0.00  0.00    +0.073 A 
ATOM     15  N   UNL     1      -3.747   2.700  -1.022  0.00  0.00    -0.172 NA
ATOM     16  C   UNL     1      -4.880   4.524  -2.179  0.00  0.00    +0.068 C 
ENDBRANCH   1   2
BRANCH   1  17
ATOM     17  C   UNL     1      -1.187   1.624   0.017  0.00  0.00    +0.238 C 
ATOM     18  O   UNL     1      -1.204   2.837   0.023  0.00  0.00    -0.273 OA
ATOM     19  N   UNL     1      -0.011   0.966   0.007  0.00  0.00    -0.314 N 
ATOM     20  H   UNL     1       0.002  -0.004   0.002  0.00  0.00    +0.149 HD
BRANCH  19  21
ATOM     21  C   UNL     1       1.248   1.716  -0.001  0.00  0.00    +0.102 C 
BRANCH  21  22
ATOM     22  C   UNL     1       2.424   0.737  -0.017  0.00  0.00    +0.000 C 
BRANCH  22  23
ATOM     23  C   UNL     1       3.738   1.520  -0.025  0.00  0.00    -0.077 C 
BRANCH  23  33
ATOM     24  C   UNL     1       6.136   1.285  -0.288  0.00  0.00    -0.074 C 
ATOM     25  C   UNL     1       7.290   0.346   0.067  0.00  0.00    +0.017 C 
ATOM     26  C   UNL     1       7.094  -0.987  -0.607  0.00  0.00    -0.048 A 
ATOM     27  C   UNL     1       8.179  -1.845  -0.704  0.00  0.00    +0.004 A 
ATOM     28  C   UNL     1       8.041  -3.078  -1.310  0.00  0.00    +0.000 A 
ATOM     29  C   UNL     1       6.816  -3.459  -1.823  0.00  0.00    +0.000 A 
ATOM     30  C   UNL     1       5.736  -2.605  -1.729  0.00  0.00    +0.002 A 
ATOM     31  C   UNL     1       5.872  -1.366  -1.121  0.00  0.00    -0.061 A 
ATOM     32  C   UNL     1       4.665  -0.467  -1.047  0.00  0.00    -0.043 C 
ATOM     33  N   UNL     1       4.872   0.569  -0.021  0.00  0.00    +0.383 N 
ATOM     34  H   UNL     1       4.929   0.121   0.901  0.00  0.00    -0.081 HD
ENDBRANCH  23  33
ENDBRANCH  22  23
ENDBRANCH  21  22
ENDBRANCH  19  21
ENDBRANCH   1  17
BRANCH   1  36
ATOM     35  C   UNL     1      -3.811  -0.896  -1.173  0.00  0.00    +0.006 C 
ATOM     36  C   UNL     1      -2.557  -0.021  -1.235  0.00  0.00    +0.033 C 
ENDBRANCH   1  36
TORSDOF 7
