REMARK  Name = ZINC36609978
REMARK  17 active torsions:
REMARK  status: ('A' for Active; 'I' for Inactive)
REMARK    1  A    between atoms: C_1  and  C_2
REMARK    2  A    between atoms: C_2  and  C_3
REMARK    3  A    between atoms: C_2  and  C_4
REMARK    4  A    between atoms: C_2  and  C_5
REMARK    5  A    between atoms: C_5  and  C_6
REMARK    6  A    between atoms: C_6  and  C_7
REMARK    7  A    between atoms: C_6  and  C_8
REMARK    8  A    between atoms: C_6  and  N_9
REMARK    9  A    between atoms: C_10  and  C_12
REMARK   10  A    between atoms: C_12  and  C_14
REMARK   11  A    between atoms: C_12  and  N_23
REMARK   12  A    between atoms: C_17  and  N_20
REMARK   13  A    between atoms: N_20  and  C_21
REMARK   14  A    between atoms: N_20  and  C_22
REMARK   15  A    between atoms: N_23  and  C_24
REMARK   16  A    between atoms: C_30  and  C_32
REMARK   17  A    between atoms: C_35  and  O_38
REMARK                            x       y       z     vdW  Elec       q    Type
REMARK                         _______ _______ _______ _____ _____    ______ ____
ROOT
ATOM      1  C   UNL     1       5.149   0.290  -4.005  0.00  0.00    +0.197 C 
ENDROOT
BRANCH   1   2
ATOM      2  C   UNL     1       4.364   1.235  -4.878  0.00  0.00    -0.018 A 
ATOM      3  C   UNL     1       4.777   2.547  -5.019  0.00  0.00    +0.008 A 
ATOM      4  C   UNL     1       4.060   3.416  -5.818  0.00  0.00    +0.023 A 
ATOM      5  C   UNL     1       2.923   2.971  -6.480  0.00  0.00    +0.029 A 
ATOM      6  C   UNL     1       2.511   1.652  -6.335  0.00  0.00    +0.023 A 
ATOM      7  C   UNL     1       3.236   0.787  -5.540  0.00  0.00    +0.008 A 
BRANCH   5   8
ATOM      8  N   UNL     1       2.196   3.847  -7.288  0.00  0.00    -0.336 N 
ATOM      9  C   UNL     1       2.631   5.238  -7.439  0.00  0.00    +0.129 C 
ATOM     10  C   UNL     1       0.996   3.376  -7.985  0.00  0.00    +0.129 C 
ENDBRANCH   5   8
ENDBRANCH   1   2
BRANCH   1  12
ATOM     11  N   UNL     1       3.817   0.773  -1.978  0.00  0.00    -0.308 N 
ATOM     12  C   UNL     1       5.028   0.718  -2.565  0.00  0.00    +0.239 C 
ATOM     13  O   UNL     1       6.022   1.013  -1.935  0.00  0.00    -0.273 OA
ATOM     14  H   UNL     1       3.022   0.537  -2.482  0.00  0.00    +0.149 HD
BRANCH  11  15
ATOM     15  C   UNL     1       3.700   1.189  -0.578  0.00  0.00    +0.030 C 
ATOM     16  C   UNL     1       4.551   2.439  -0.345  0.00  0.00    +0.031 C 
ATOM     17  C   UNL     1       4.189   0.061   0.332  0.00  0.00    +0.031 C 
BRANCH  15  18
ATOM     18  C   UNL     1       2.236   1.503  -0.260  0.00  0.00    +0.031 C 
BRANCH  18  20
ATOM     19  C   UNL     1       1.254   1.400  -2.555  0.00  0.00    +0.010 C 
ATOM     20  C   UNL     1       1.632   2.328  -1.399  0.00  0.00    -0.036 C 
ATOM     21  C   UNL     1       2.657   3.355  -1.884  0.00  0.00    +0.010 C 
ATOM     22  C   UNL     1       0.382   3.053  -0.896  0.00  0.00    +0.010 C 
ENDBRANCH  18  20
ENDBRANCH  15  18
ENDBRANCH  11  15
ENDBRANCH   1  12
BRANCH   1  23
ATOM     23  N   UNL     1       6.558   0.312  -4.405  0.00  0.00    -0.251 N 
ATOM     24  C   UNL     1       7.450  -0.479  -3.776  0.00  0.00    +0.252 C 
ATOM     25  O   UNL     1       8.641  -0.307  -3.946  0.00  0.00    -0.270 OA
BRANCH  23  26
ATOM     26  C   UNL     1       6.978   1.155  -5.439  0.00  0.00    +0.038 A 
ATOM     27  C   UNL     1       7.878   2.181  -5.179  0.00  0.00    +0.023 A 
ATOM     28  C   UNL     1       8.291   3.011  -6.202  0.00  0.00    +0.002 A 
ATOM     29  C   UNL     1       7.809   2.822  -7.485  0.00  0.00    +0.000 A 
ATOM     30  C   UNL     1       6.914   1.802  -7.747  0.00  0.00    +0.002 A 
ATOM     31  C   UNL     1       6.502   0.964  -6.729  0.00  0.00    +0.023 A 
ENDBRANCH  23  26
BRANCH  24  32
ATOM     32  C   UNL     1       6.979  -1.556  -2.882  0.00  0.00    +0.037 A 
ATOM     33  C   UNL     1       5.633  -1.624  -2.517  0.00  0.00    +0.016 A 
ATOM     34  C   UNL     1       5.198  -2.630  -1.683  0.00  0.00    +0.046 A 
ATOM     35  C   UNL     1       6.097  -3.575  -1.204  0.00  0.00    +0.117 A 
ATOM     36  C   UNL     1       7.438  -3.511  -1.565  0.00  0.00    +0.046 A 
ATOM     37  C   UNL     1       7.879  -2.512  -2.404  0.00  0.00    +0.016 A 
BRANCH  35  38
ATOM     38  O   UNL     1       5.665  -4.565  -0.382  0.00  0.00    -0.507 OA
ATOM     39  H   UNL     1       5.375  -5.363  -0.845  0.00  0.00    +0.292 HD
ENDBRANCH  35  38
ENDBRANCH  24  32
ENDBRANCH   1  23
TORSDOF 10
