REMARK  Name = ZINC10336732
REMARK  2 active torsions:
REMARK  status: ('A' for Active; 'I' for Inactive)
REMARK    1  A    between atoms: C_5  and  C_7
REMARK    2  A    between atoms: C_18  and  C_20
REMARK                            x       y       z     vdW  Elec       q    Type
REMARK                         _______ _______ _______ _____ _____    ______ ____
ROOT
ATOM      1  C   UNL     1       1.228  -2.186  -0.022  0.00  0.00    +0.163 C 
ATOM      2  C   UNL     1       1.545  -2.647  -1.428  0.00  0.00    +0.028 C 
ATOM      3  C   UNL     1       0.654  -3.443  -2.052  0.00  0.00    +0.083 C 
ATOM      4  C   UNL     1       0.974  -3.879  -3.435  0.00  0.00    +0.044 A 
ATOM      5  C   UNL     1       0.300  -4.933  -4.037  0.00  0.00    +0.033 A 
ATOM      6  C   UNL     1       0.632  -5.307  -5.327  0.00  0.00    +0.042 A 
ATOM      7  C   UNL     1       1.629  -4.634  -6.012  0.00  0.00    +0.023 A 
ATOM      8  C   UNL     1       2.304  -3.583  -5.418  0.00  0.00    +0.048 A 
ATOM      9  C   UNL     1       1.981  -3.197  -4.130  0.00  0.00    +0.131 A 
ATOM     10  O   UNL     1       2.621  -2.163  -3.526  0.00  0.00    -0.479 OA
ATOM     11  C   UNL     1       2.817  -2.240  -2.113  0.00  0.00    +0.241 C 
ATOM     12 CL   UNL     1      -0.205  -6.623  -6.088  0.00  0.00    -0.084 Cl
ATOM     13  N   UNL     1      -0.495  -3.835  -1.445  0.00  0.00    -0.213 NA
ATOM     14  C   UNL     1      -0.843  -3.484  -0.235  0.00  0.00    +0.232 C 
ATOM     15  N   UNL     1      -0.042  -2.664   0.533  0.00  0.00    -0.193 N 
ATOM     16  N   UNL     1      -0.719  -2.499   1.742  0.00  0.00    -0.165 N 
ATOM     17  N   UNL     1      -1.817  -3.171   1.667  0.00  0.00    -0.086 NA
ATOM     18  N   UNL     1      -1.927  -3.760   0.540  0.00  0.00    -0.231 N 
ATOM     19  H   UNL     1      -0.419  -1.974   2.500  0.00  0.00    +0.195 HD
ATOM     20  H   UNL     1      -2.675  -4.318   0.274  0.00  0.00    +0.193 HD
ENDROOT
BRANCH   1  25
ATOM     21  C   UNL     1      -0.017   1.378   0.010  0.00  0.00    +0.001 A 
ATOM     22  C   UNL     1       1.171   2.087   0.002  0.00  0.00    +0.003 A 
ATOM     23  C   UNL     1       2.377   1.414  -0.013  0.00  0.00    +0.039 A 
ATOM     24  C   UNL     1       2.397   0.029  -0.021  0.00  0.00    +0.129 A 
ATOM     25  C   UNL     1       1.208  -0.679  -0.013  0.00  0.00    +0.014 A 
ATOM     26  C   UNL     1       0.002  -0.004   0.002  0.00  0.00    +0.008 A 
ATOM     27  F   UNL     1       3.577  -0.630  -0.036  0.00  0.00    -0.205 F 
ENDBRANCH   1  25
BRANCH  11  28
ATOM     28  C   UNL     1       3.890  -3.255  -1.813  0.00  0.00    +0.034 A 
ATOM     29  C   UNL     1       4.836  -3.237  -0.842  0.00  0.00    +0.015 A 
ATOM     30  C   UNL     1       5.727  -4.289  -0.754  0.00  0.00    +0.008 A 
ATOM     31  C   UNL     1       5.630  -5.309  -1.642  0.00  0.00    +0.045 A 
ATOM     32  S   UNL     1       4.241  -4.798  -2.640  0.00  0.00    -0.098 S 
ENDBRANCH  11  28
TORSDOF 2
