REMARK  Name = ZINC02945095
REMARK  6 active torsions:
REMARK  status: ('A' for Active; 'I' for Inactive)
REMARK    1  A    between atoms: C_1  and  C_2
REMARK    2  A    between atoms: C_2  and  C_3
REMARK    3  A    between atoms: C_3  and  N_4
REMARK    4  A    between atoms: C_5  and  C_7
REMARK    5  A    between atoms: C_12  and  C_25
REMARK    6  A    between atoms: C_15  and  C_18
REMARK                            x       y       z     vdW  Elec       q    Type
REMARK                         _______ _______ _______ _____ _____    ______ ____
ROOT
ATOM      1  C   UNL     1       1.341  -4.099  -2.293  0.00  0.00    +0.167 A 
ATOM      2  C   UNL     1       1.920  -4.916  -3.291  0.00  0.00    +0.112 A 
ATOM      3  C   UNL     1       1.728  -6.200  -2.929  0.00  0.00    +0.137 A 
ATOM      4  N   UNL     1       1.048  -6.211  -1.744  0.00  0.00    -0.237 N 
ATOM      5  N   UNL     1       0.826  -4.887  -1.365  0.00  0.00    -0.163 NA
ATOM      6  C   UNL     1       0.655  -7.436  -1.043  0.00  0.00    +0.215 C 
ATOM      7  C   UNL     1       0.679  -8.605  -2.035  0.00  0.00    +0.063 C 
ATOM      8  C   UNL     1       2.011  -8.619  -2.793  0.00  0.00    +0.104 C 
ATOM      9  N   UNL     1       2.116  -7.375  -3.582  0.00  0.00    -0.321 N 
ATOM     10 CL   UNL     1       2.731  -4.364  -4.724  0.00  0.00    -0.078 Cl
ATOM     11  H   UNL     1       2.435  -7.372  -4.498  0.00  0.00    +0.148 HD
ENDROOT
BRANCH   8  12
ATOM     12  C   UNL     1       3.151  -8.698  -1.812  0.00  0.00    -0.027 A 
ATOM     13  C   UNL     1       3.575  -7.560  -1.151  0.00  0.00    +0.007 A 
ATOM     14  C   UNL     1       4.621  -7.632  -0.250  0.00  0.00    +0.020 A 
ATOM     15  C   UNL     1       5.244  -8.844  -0.010  0.00  0.00    +0.041 A 
ATOM     16  C   UNL     1       4.820  -9.982  -0.671  0.00  0.00    +0.020 A 
ATOM     17  C   UNL     1       3.770  -9.910  -1.567  0.00  0.00    +0.007 A 
ATOM     18 CL   UNL     1       6.558  -8.935   1.121  0.00  0.00    -0.084 Cl
ENDBRANCH   8  12
BRANCH   1  20
ATOM     19  N   UNL     1       0.738  -1.962  -1.265  0.00  0.00    -0.310 N 
ATOM     20  C   UNL     1       1.321  -2.623  -2.285  0.00  0.00    +0.266 C 
ATOM     21  O   UNL     1       1.831  -2.003  -3.198  0.00  0.00    -0.268 OA
ATOM     22  H   UNL     1       0.332  -2.457  -0.536  0.00  0.00    +0.149 HD
BRANCH  19  23
ATOM     23  C   UNL     1       0.718  -0.497  -1.257  0.00  0.00    +0.104 C 
BRANCH  23  25
ATOM     24  C   UNL     1      -0.019   1.526   0.010  0.00  0.00    +0.005 C 
ATOM     25  C   UNL     1       0.002  -0.004   0.002  0.00  0.00    +0.015 C 
ENDBRANCH  23  25
ENDBRANCH  19  23
ENDBRANCH   1  20
BRANCH   6  26
ATOM     26  C   UNL     1      -0.756  -7.272  -0.475  0.00  0.00    +0.412 C 
ATOM     27  F   UNL     1      -1.653  -7.026  -1.519  0.00  0.00    -0.168 F 
ATOM     28  F   UNL     1      -1.129  -8.443   0.193  0.00  0.00    -0.168 F 
ATOM     29  F   UNL     1      -0.776  -6.198   0.421  0.00  0.00    -0.168 F 
ENDBRANCH   6  26
TORSDOF 5
