REMARK  Name = ZINC40733934
REMARK  6 active torsions:
REMARK  status: ('A' for Active; 'I' for Inactive)
REMARK    1  A    between atoms: C_1  and  C_2
REMARK    2  A    between atoms: C_2  and  C_3
REMARK    3  A    between atoms: C_11  and  N_30
REMARK    4  A    between atoms: C_12  and  N_16
REMARK    5  A    between atoms: N_16  and  C_17
REMARK    6  A    between atoms: C_17  and  C_18
REMARK                            x       y       z     vdW  Elec       q    Type
REMARK                         _______ _______ _______ _____ _____    ______ ____
ROOT
ATOM      1  C   UNL     1      -3.859  -0.893   1.270  0.00  0.00    +0.075 C 
ATOM      2  C   UNL     1      -3.572  -1.745   0.030  0.00  0.00    +0.022 C 
ATOM      3  C   UNL     1      -3.288  -3.186   0.460  0.00  0.00    +0.003 C 
ATOM      4  C   UNL     1      -2.053  -3.216   1.363  0.00  0.00    +0.019 C 
ATOM      5  C   UNL     1      -2.322  -2.381   2.619  0.00  0.00    +0.107 C 
ATOM      6  N   UNL     1      -2.740  -1.032   2.212  0.00  0.00    -0.311 N 
ATOM      7  C   UNL     1      -2.087   0.091   2.705  0.00  0.00    +0.147 A 
ATOM      8  C   UNL     1      -2.475   0.660   3.920  0.00  0.00    +0.104 A 
ATOM      9  C   UNL     1      -1.785   1.787   4.370  0.00  0.00    +0.130 A 
ATOM     10  N   UNL     1      -0.791   2.273   3.629  0.00  0.00    -0.332 N 
ATOM     11  C   UNL     1      -0.457   1.706   2.488  0.00  0.00    +0.200 A 
ATOM     12  N   UNL     1      -1.078   0.637   2.030  0.00  0.00    -0.221 NA
ATOM     13  H   UNL     1      -0.306   3.056   3.934  0.00  0.00    +0.168 HD
ENDROOT
BRANCH   9  14
ATOM     14  N   UNL     1      -2.131   2.394   5.573  0.00  0.00    -0.266 N 
ATOM     15  C   UNL     1      -3.000   3.481   5.579  0.00  0.00    +0.127 A 
ATOM     16  C   UNL     1      -3.456   4.006   4.374  0.00  0.00    +0.044 A 
ATOM     17  C   UNL     1      -4.319   5.086   4.395  0.00  0.00    +0.005 A 
ATOM     18  C   UNL     1      -4.699   5.607   5.625  0.00  0.00    +0.020 A 
ATOM     19  C   UNL     1      -4.207   5.037   6.782  0.00  0.00    +0.113 A 
ATOM     20  N   UNL     1      -3.388   4.003   6.732  0.00  0.00    -0.240 NA
BRANCH  14  21
ATOM     21  C   UNL     1      -1.581   1.888   6.833  0.00  0.00    +0.149 C 
BRANCH  21  22
ATOM     22  C   UNL     1      -0.287   2.599   7.137  0.00  0.00    -0.030 A 
ATOM     23  C   UNL     1       0.909   2.086   6.671  0.00  0.00    +0.005 A 
ATOM     24  C   UNL     1       2.096   2.738   6.950  0.00  0.00    +0.000 A 
ATOM     25  C   UNL     1       2.086   3.902   7.695  0.00  0.00    +0.000 A 
ATOM     26  C   UNL     1       0.890   4.415   8.160  0.00  0.00    +0.000 A 
ATOM     27  C   UNL     1      -0.297   3.766   7.878  0.00  0.00    +0.005 A 
ENDBRANCH  21  22
ENDBRANCH  14  21
ENDBRANCH   9  14
BRANCH   8  28
ATOM     28  N   UNL     1      -3.530   0.115   4.668  0.00  0.00    -0.353 N 
ATOM     29  H   UNL     1      -4.055  -0.616   4.306  0.00  0.00    +0.143 HD
ATOM     30  H   UNL     1      -3.734   0.468   5.548  0.00  0.00    +0.143 HD
ENDBRANCH   8  28
BRANCH   1  32
ATOM     31  C   UNL     1      -5.258   0.738  -0.004  0.00  0.00    +0.006 C 
ATOM     32  C   UNL     1      -4.008   0.574   0.862  0.00  0.00    +0.019 C 
ENDBRANCH   1  32
TORSDOF 5
