REMARK  Name = ZINC33316528
REMARK  7 active torsions:
REMARK  status: ('A' for Active; 'I' for Inactive)
REMARK    1  A    between atoms: C_1  and  C_2
REMARK    2  A    between atoms: C_5  and  C_30
REMARK    3  A    between atoms: C_6  and  C_8
REMARK    4  A    between atoms: C_8  and  N_9
REMARK    5  A    between atoms: N_9  and  C_10
REMARK    6  A    between atoms: C_13  and  O_16
REMARK    7  A    between atoms: O_16  and  C_17
REMARK                            x       y       z     vdW  Elec       q    Type
REMARK                         _______ _______ _______ _____ _____    ______ ____
ROOT
ATOM      1  N   UNL     1       4.732   3.512   1.862  0.00  0.00    -0.277 N 
ATOM      2  C   UNL     1       3.586   2.810   1.564  0.00  0.00    +0.136 C 
ATOM      3  N   UNL     1       3.417   1.490   1.583  0.00  0.00    -0.362 N 
ATOM      4  C   UNL     1       2.099   0.998   1.348  0.00  0.00    +0.117 C 
ATOM      5  C   UNL     1       1.756  -0.436   0.986  0.00  0.00    +0.191 C 
ATOM      6  S   UNL     1      -0.007  -0.234   0.450  0.00  0.00    -0.028 S 
ATOM      7  O   UNL     1      -0.860  -0.771   1.452  0.00  0.00    -0.174 OA
ATOM      8  O   UNL     1      -0.138  -0.678  -0.893  0.00  0.00    -0.174 OA
ATOM      9  C   UNL     1      -0.117   1.619   0.489  0.00  0.00    +0.182 C 
ATOM     10  C   UNL     1       1.360   1.938   0.335  0.00  0.00    +0.099 C 
ATOM     11  S   UNL     1       1.991   3.479   1.064  0.00  0.00    -0.085 S 
ATOM     12  H   UNL     1       4.274   0.828   1.776  0.00  0.00    +0.162 HD
ENDROOT
BRANCH   1  13
ATOM     13  C   UNL     1       4.763   4.904   1.704  0.00  0.00    +0.036 A 
ATOM     14  C   UNL     1       4.944   5.725   2.809  0.00  0.00    +0.027 A 
ATOM     15  C   UNL     1       4.979   7.096   2.651  0.00  0.00    +0.047 A 
ATOM     16  C   UNL     1       4.822   7.654   1.391  0.00  0.00    +0.120 A 
ATOM     17  C   UNL     1       4.636   6.835   0.287  0.00  0.00    +0.047 A 
ATOM     18  C   UNL     1       4.606   5.463   0.442  0.00  0.00    +0.027 A 
BRANCH  16  19
ATOM     19  O   UNL     1       4.852   9.005   1.237  0.00  0.00    -0.495 OA
ATOM     20  C   UNL     1       5.048   9.788   2.416  0.00  0.00    +0.277 C 
ENDBRANCH  16  19
ENDBRANCH   1  13
BRANCH   1  21
ATOM     21  C   UNL     1       5.920   2.804   2.344  0.00  0.00    +0.148 C 
BRANCH  21  27
ATOM     22  C   UNL     1       6.605   2.435  -2.599  0.00  0.00    +0.044 C 
ATOM     23  C   UNL     1       7.110   2.235  -1.193  0.00  0.00    -0.050 A 
ATOM     24  C   UNL     1       8.363   1.692  -0.979  0.00  0.00    +0.003 A 
ATOM     25  C   UNL     1       8.826   1.509   0.310  0.00  0.00    +0.004 A 
ATOM     26  C   UNL     1       8.035   1.869   1.386  0.00  0.00    -0.046 A 
ATOM     27  C   UNL     1       6.782   2.412   1.172  0.00  0.00    -0.027 A 
ATOM     28  C   UNL     1       6.318   2.591  -0.118  0.00  0.00    +0.008 A 
ATOM     29  C   UNL     1       8.539   1.669   2.792  0.00  0.00    +0.044 C 
ENDBRANCH  21  27
ENDBRANCH   1  21
TORSDOF 4
