REMARK  Name = ZINC60212015
REMARK  7 active torsions:
REMARK  status: ('A' for Active; 'I' for Inactive)
REMARK    1  A    between atoms: C_1  and  C_2
REMARK    2  A    between atoms: C_7  and  C_8
REMARK    3  A    between atoms: C_8  and  N_9
REMARK    4  A    between atoms: N_12  and  C_15
REMARK    5  A    between atoms: C_15  and  N_16
REMARK    6  A    between atoms: N_23  and  C_25
REMARK    7  A    between atoms: C_25  and  C_26
REMARK                            x       y       z     vdW  Elec       q    Type
REMARK                         _______ _______ _______ _____ _____    ______ ____
ROOT
ATOM      1  N   UNL     1      -5.084   1.572   6.200  0.00  0.00    -0.211 N 
ATOM      2  C   UNL     1      -5.380   0.731   7.213  0.00  0.00    +0.246 C 
ATOM      3  O   UNL     1      -5.629  -0.453   7.135  0.00  0.00    -0.273 OA
ATOM      4  C   UNL     1      -5.334   1.576   8.465  0.00  0.00    +0.098 C 
ATOM      5  C   UNL     1      -4.260   1.059   9.418  0.00  0.00    +0.031 C 
ATOM      6  C   UNL     1      -4.269   1.911  10.692  0.00  0.00    -0.016 C 
ATOM      7  C   UNL     1      -5.672   1.886  11.303  0.00  0.00    -0.078 C 
ATOM      8  N   UNL     1      -6.639   2.439  10.347  0.00  0.00    +0.384 N 
ATOM      9  C   UNL     1      -6.696   1.590   9.150  0.00  0.00    -0.043 C 
ATOM     10  N   UNL     1      -4.987   2.917   7.979  0.00  0.00    -0.287 N 
ATOM     11  C   UNL     1      -4.856   2.815   6.642  0.00  0.00    +0.310 C 
ATOM     12  O   UNL     1      -4.566   3.747   5.918  0.00  0.00    -0.252 OA
ATOM     13  H   UNL     1      -4.872   3.718   8.514  0.00  0.00    +0.151 HD
ATOM     14  H   UNL     1      -6.354   3.371  10.084  0.00  0.00    -0.081 HD
ENDROOT
BRANCH   1  15
ATOM     15  C   UNL     1      -5.014   1.173   4.793  0.00  0.00    +0.205 C 
BRANCH  15  19
ATOM     16  N   UNL     1      -1.342   0.478   2.824  0.00  0.00    -0.296 NA
ATOM     17  C   UNL     1      -2.212  -0.677   3.085  0.00  0.00    +0.100 C 
ATOM     18  C   UNL     1      -3.641  -0.189   3.334  0.00  0.00    +0.101 C 
ATOM     19  N   UNL     1      -3.647   0.740   4.473  0.00  0.00    -0.284 NA
ATOM     20  C   UNL     1      -2.776   1.895   4.212  0.00  0.00    +0.101 C 
ATOM     21  C   UNL     1      -1.348   1.407   3.962  0.00  0.00    +0.100 C 
BRANCH  16  22
ATOM     22  C   UNL     1       0.025   0.045   2.504  0.00  0.00    +0.120 C 
BRANCH  22  29
ATOM     23  C   UNL     1      -0.018   1.503   0.010  0.00  0.00    +0.044 C 
ATOM     24  C   UNL     1       0.002  -0.004   0.002  0.00  0.00    -0.046 A 
ATOM     25  C   UNL     1       0.006  -0.689  -1.199  0.00  0.00    +0.003 A 
ATOM     26  C   UNL     1       0.025  -2.071  -1.207  0.00  0.00    +0.000 A 
ATOM     27  C   UNL     1       0.040  -2.768  -0.013  0.00  0.00    +0.000 A 
ATOM     28  C   UNL     1       0.037  -2.084   1.188  0.00  0.00    +0.005 A 
ATOM     29  C   UNL     1       0.023  -0.702   1.195  0.00  0.00    -0.030 A 
ENDBRANCH  22  29
ENDBRANCH  16  22
ENDBRANCH  15  19
ENDBRANCH   1  15
BRANCH   8  30
ATOM     30  C   UNL     1      -7.967   2.493  10.972  0.00  0.00    -0.043 C 
BRANCH  30  31
ATOM     31  C   UNL     1      -7.942   3.466  12.123  0.00  0.00    -0.064 A 
ATOM     32  C   UNL     1      -7.612   3.027  13.391  0.00  0.00    +0.002 A 
ATOM     33  C   UNL     1      -7.589   3.919  14.447  0.00  0.00    +0.000 A 
ATOM     34  C   UNL     1      -7.896   5.250  14.234  0.00  0.00    +0.000 A 
ATOM     35  C   UNL     1      -8.225   5.689  12.965  0.00  0.00    +0.000 A 
ATOM     36  C   UNL     1      -8.243   4.798  11.909  0.00  0.00    +0.002 A 
ENDBRANCH  30  31
ENDBRANCH   8  30
TORSDOF 6
