REMARK  Name = ZINC08624334
REMARK  9 active torsions:
REMARK  status: ('A' for Active; 'I' for Inactive)
REMARK    1  A    between atoms: C_1  and  C_2
REMARK    2  A    between atoms: C_2  and  C_3
REMARK    3  A    between atoms: C_2  and  N_4
REMARK    4  A    between atoms: N_7  and  C_8
REMARK    5  A    between atoms: C_8  and  C_9
REMARK    6  A    between atoms: C_11  and  O_31
REMARK    7  A    between atoms: C_13  and  O_30
REMARK    8  A    between atoms: C_15  and  C_18
REMARK    9  A    between atoms: C_18  and  C_19
REMARK                            x       y       z     vdW  Elec       q    Type
REMARK                         _______ _______ _______ _____ _____    ______ ____
ROOT
ATOM      1  C   UNL     1      -0.549  -1.347  -1.954  0.00  0.00    +0.167 C 
ATOM      2  C   UNL     1       0.600  -0.530  -1.322  0.00  0.00    +0.176 C 
ATOM      3  C   UNL     1       0.002  -0.004   0.002  0.00  0.00    +0.175 C 
ATOM      4  C   UNL     1      -1.437  -0.565   0.013  0.00  0.00    +0.159 C 
ATOM      5  O   UNL     1      -1.386  -1.728  -0.842  0.00  0.00    -0.366 OA
ENDROOT
BRANCH   3   6
ATOM      6  O   UNL     1      -0.017   1.425   0.010  0.00  0.00    -0.387 OA
ATOM      7  H   UNL     1       0.861   1.830   0.004  0.00  0.00    +0.210 HD
ENDBRANCH   3   6
BRANCH   2   8
ATOM      8  O   UNL     1       0.968   0.558  -2.172  0.00  0.00    -0.387 OA
ATOM      9  H   UNL     1       1.644   1.139  -1.797  0.00  0.00    +0.210 HD
ENDBRANCH   2   8
BRANCH   1  10
ATOM     10  C   UNL     1       0.004  -2.589  -2.656  0.00  0.00    +0.140 C 
BRANCH  10  14
ATOM     11  N   UNL     1      -1.855  -5.138  -4.543  0.00  0.00    -0.297 N 
ATOM     12  C   UNL     1      -0.844  -4.461  -3.964  0.00  0.00    +0.300 C 
ATOM     13  O   UNL     1       0.295  -4.876  -4.055  0.00  0.00    -0.253 OA
ATOM     14  N   UNL     1      -1.095  -3.325  -3.285  0.00  0.00    -0.297 N 
ATOM     15  H   UNL     1      -2.764  -4.807  -4.471  0.00  0.00    +0.150 HD
ATOM     16  H   UNL     1      -2.004  -2.994  -3.213  0.00  0.00    +0.150 HD
BRANCH  11  18
ATOM     17  C   UNL     1      -2.838  -7.247  -5.296  0.00  0.00    +0.027 C 
ATOM     18  C   UNL     1      -1.582  -6.373  -5.282  0.00  0.00    +0.068 C 
ATOM     19  C   UNL     1      -1.184  -6.031  -6.719  0.00  0.00    +0.027 C 
ENDBRANCH  11  18
ENDBRANCH  10  14
ENDBRANCH   1  10
BRANCH   4  20
ATOM     20  C   UNL     1      -1.844  -0.962   1.433  0.00  0.00    +0.130 C 
BRANCH  20  21
ATOM     21  C   UNL     1      -3.288  -1.390   1.441  0.00  0.00    +0.222 C 
ATOM     22  O   UNL     1      -3.930  -1.379   0.412  0.00  0.00    -0.275 OA
ATOM     23  N   UNL     1      -3.868  -1.786   2.592  0.00  0.00    -0.271 N 
ATOM     24  C   UNL     1      -5.260  -2.223   2.725  0.00  0.00    +0.118 C 
ATOM     25  C   UNL     1      -5.435  -2.566   4.214  0.00  0.00    +0.056 C 
ATOM     26  C   UNL     1      -4.082  -2.287   4.830  0.00  0.00    -0.024 A 
ATOM     27  C   UNL     1      -3.226  -1.845   3.833  0.00  0.00    +0.039 A 
ATOM     28  C   UNL     1      -1.911  -1.517   4.166  0.00  0.00    +0.024 A 
ATOM     29  C   UNL     1      -1.471  -1.643   5.467  0.00  0.00    +0.002 A 
ATOM     30  C   UNL     1      -2.331  -2.090   6.453  0.00  0.00    +0.000 A 
ATOM     31  C   UNL     1      -3.637  -2.411   6.132  0.00  0.00    +0.005 A 
ENDBRANCH  20  21
ENDBRANCH   4  20
TORSDOF 7
