REMARK  Name = ZINC02137114
REMARK  4 active torsions:
REMARK  status: ('A' for Active; 'I' for Inactive)
REMARK    1  A    between atoms: C_3  and  C_8
REMARK    2  A    between atoms: N_10  and  C_11
REMARK    3  A    between atoms: C_11  and  C_13
REMARK    4  A    between atoms: C_11  and  N_48
REMARK                            x       y       z     vdW  Elec       q    Type
REMARK                         _______ _______ _______ _____ _____    ______ ____
ROOT
ATOM      1  C   UNL     1       2.422   1.186  -0.015  0.00  0.00    +0.071 C 
ENDROOT
BRANCH   1  15
ATOM      2  C   UNL     1       4.062   0.353   1.556  0.00  0.00    -0.071 C 
ATOM      3  C   UNL     1       4.574   0.394   2.990  0.00  0.00    -0.007 C 
ATOM      4  C   UNL     1       3.461   0.056   3.986  0.00  0.00    +0.011 C 
ATOM      5  C   UNL     1       2.306   1.032   3.737  0.00  0.00    +0.020 C 
ATOM      6  C   UNL     1       1.804   0.819   2.299  0.00  0.00    -0.066 C 
ATOM      7  C   UNL     1       2.812   2.454   3.835  0.00  0.00    +0.023 A 
ATOM      8  C   UNL     1       1.940   3.416   4.193  0.00  0.00    +0.022 A 
ATOM      9  C   UNL     1       2.333   4.758   4.240  0.00  0.00    +0.007 A 
ATOM     10  C   UNL     1       3.612   5.083   3.896  0.00  0.00    +0.070 A 
ATOM     11  C   UNL     1       4.500   4.062   3.531  0.00  0.00    +0.251 A 
ATOM     12  O   UNL     1       5.633   4.346   3.178  0.00  0.00    -0.268 OA
ATOM     13  N   UNL     1       4.115   2.762   3.566  0.00  0.00    -0.312 N 
ATOM     14  C   UNL     1       5.152   1.758   3.324  0.00  0.00    +0.126 C 
ATOM     15  N   UNL     1       2.891   1.236   1.385  0.00  0.00    +0.395 N 
ATOM     16  H   UNL     1       3.164   2.200   1.610  0.00  0.00    -0.079 HD
ENDBRANCH   1  15
BRANCH   1  19
ATOM     17  C   UNL     1       0.013   1.450  -0.272  0.00  0.00    +0.243 C 
ATOM     18  O   UNL     1      -0.090   0.239  -0.276  0.00  0.00    -0.270 OA
ATOM     19  N   UNL     1       1.227   2.023  -0.146  0.00  0.00    -0.321 N 
ATOM     20  H   UNL     1       1.309   2.990  -0.143  0.00  0.00    +0.147 HD
BRANCH  17  23
ATOM     21  C   UNL     1      -2.205   4.470  -0.536  0.00  0.00    +0.002 A 
ATOM     22  C   UNL     1      -1.078   3.686  -0.401  0.00  0.00    +0.013 A 
ATOM     23  C   UNL     1      -1.192   2.295  -0.410  0.00  0.00    +0.038 A 
ATOM     24  C   UNL     1      -2.450   1.705  -0.546  0.00  0.00    +0.033 A 
ATOM     25  C   UNL     1      -3.571   2.500  -0.675  0.00  0.00    +0.042 A 
ATOM     26  C   UNL     1      -3.449   3.880  -0.670  0.00  0.00    +0.020 A 
ATOM     27 CL   UNL     1      -5.136   1.769  -0.844  0.00  0.00    -0.084 Cl
ENDBRANCH  17  23
ENDBRANCH   1  19
BRANCH   1  28
ATOM     28  C   UNL     1       3.526   1.726  -0.926  0.00  0.00    +0.194 C 
ATOM     29 CL   UNL     1       4.153   3.277  -0.257  0.00  0.00    -0.084 Cl
ATOM     30 CL   UNL     1       4.868   0.525  -1.021  0.00  0.00    -0.084 Cl
ATOM     31 CL   UNL     1       2.857   2.010  -2.576  0.00  0.00    -0.084 Cl
ENDBRANCH   1  28
TORSDOF 4
