REMARK  Name = ZINC20814887
REMARK  7 active torsions:
REMARK  status: ('A' for Active; 'I' for Inactive)
REMARK    1  A    between atoms: C_1  and  C_2
REMARK    2  A    between atoms: C_2  and  N_3
REMARK    3  A    between atoms: N_3  and  C_4
REMARK    4  A    between atoms: N_3  and  C_11
REMARK    5  A    between atoms: C_4  and  C_5
REMARK    6  A    between atoms: C_11  and  C_12
REMARK    7  A    between atoms: C_21  and  C_23
REMARK                            x       y       z     vdW  Elec       q    Type
REMARK                         _______ _______ _______ _____ _____    ______ ____
ROOT
ATOM      1  C   UNL     1       1.323   5.315   1.568  0.00  0.00    -0.042 C 
ENDROOT
BRANCH   1   2
ATOM      2  C   UNL     1       1.336   5.714   3.021  0.00  0.00    -0.047 A 
ATOM      3  C   UNL     1       0.184   6.021   3.670  0.00  0.00    +0.094 A 
ATOM      4  C   UNL     1       0.223   6.391   5.032  0.00  0.00    +0.337 A 
ATOM      5  O   UNL     1      -0.817   6.664   5.602  0.00  0.00    -0.245 OA
ATOM      6  O   UNL     1       1.378   6.450   5.713  0.00  0.00    -0.422 OA
ATOM      7  C   UNL     1       2.558   6.158   5.127  0.00  0.00    +0.139 A 
ATOM      8  C   UNL     1       2.592   5.776   3.774  0.00  0.00    +0.019 A 
ATOM      9  C   UNL     1       3.814   5.479   3.163  0.00  0.00    +0.012 A 
ATOM     10  C   UNL     1       4.977   5.552   3.896  0.00  0.00    +0.004 A 
ATOM     11  C   UNL     1       4.941   5.924   5.232  0.00  0.00    -0.047 A 
ATOM     12  C   UNL     1       3.744   6.225   5.847  0.00  0.00    +0.050 A 
ATOM     13  C   UNL     1       6.224   5.999   6.020  0.00  0.00    +0.044 C 
ENDBRANCH   1   2
BRANCH   1  14
ATOM     14  N   UNL     1       1.552   3.868   1.455  0.00  0.00    +0.385 N 
ATOM     15  H   UNL     1       2.376   3.603   2.134  0.00  0.00    -0.081 HD
BRANCH  14  17
ATOM     16  C   UNL     1       3.381   3.999  -0.168  0.00  0.00    -0.017 C 
ATOM     17  C   UNL     1       1.957   3.504   0.091  0.00  0.00    -0.081 C 
ENDBRANCH  14  17
BRANCH  14  18
ATOM     18  C   UNL     1       0.363   3.113   1.871  0.00  0.00    -0.035 C 
BRANCH  18  19
ATOM     19  C   UNL     1       0.709   1.650   1.978  0.00  0.00    -0.026 A 
ATOM     20  C   UNL     1       1.171   0.959   3.048  0.00  0.00    +0.010 A 
ATOM     21  C   UNL     1       1.423  -0.394   2.915  0.00  0.00    +0.023 A 
ATOM     22  C   UNL     1       1.199  -0.989   1.717  0.00  0.00    +0.055 A 
ATOM     23  S   UNL     1       0.616   0.379   0.729  0.00  0.00    -0.088 S 
ATOM     24 BR   UNL     1       1.441  -2.798   1.222  0.00  0.00    -0.043 Br
ENDBRANCH  18  19
ENDBRANCH  14  18
ENDBRANCH   1  14
TORSDOF 5
