REMARK  Name = ZINC63506941
REMARK  10 active torsions:
REMARK  status: ('A' for Active; 'I' for Inactive)
REMARK    1  A    between atoms: C_1  and  C_2
REMARK    2  A    between atoms: C_6  and  C_39
REMARK    3  A    between atoms: C_7  and  N_8
REMARK    4  A    between atoms: C_9  and  C_11
REMARK    5  A    between atoms: C_11  and  N_17
REMARK    6  A    between atoms: N_17  and  C_18
REMARK    7  A    between atoms: C_18  and  C_19
REMARK    8  A    between atoms: C_19  and  C_20
REMARK    9  A    between atoms: C_28  and  C_30
REMARK   10  A    between atoms: C_31  and  C_33
REMARK                            x       y       z     vdW  Elec       q    Type
REMARK                         _______ _______ _______ _____ _____    ______ ____
ROOT
ATOM      1  N   UNL     1      -1.253   1.138   4.612  0.00  0.00    -0.283 N 
ATOM      2  C   UNL     1      -2.102   1.569   5.567  0.00  0.00    +0.247 C 
ATOM      3  O   UNL     1      -2.492   2.720   5.557  0.00  0.00    -0.270 OA
ENDROOT
BRANCH   1   4
ATOM      4  C   UNL     1      -0.241   0.129   4.934  0.00  0.00    +0.114 C 
ATOM      5  C   UNL     1       0.868   0.165   3.880  0.00  0.00    +0.035 C 
ATOM      6  C   UNL     1       1.515   1.552   3.869  0.00  0.00    +0.003 C 
ATOM      7  C   UNL     1       2.111   1.848   5.247  0.00  0.00    +0.000 C 
ATOM      8  C   UNL     1       1.002   1.811   6.301  0.00  0.00    +0.003 C 
ATOM      9  C   UNL     1       0.354   0.425   6.312  0.00  0.00    +0.035 C 
BRANCH   4  11
ATOM     10  N   UNL     1      -2.132  -1.399   4.477  0.00  0.00    -0.283 N 
ATOM     11  C   UNL     1      -0.879  -1.237   4.945  0.00  0.00    +0.241 C 
ATOM     12  O   UNL     1      -0.264  -2.189   5.375  0.00  0.00    -0.273 OA
ATOM     13  H   UNL     1      -2.628  -0.635   4.144  0.00  0.00    +0.155 HD
BRANCH  10  20
ATOM     14  C   UNL     1      -0.502  -3.627   3.785  0.00  0.00    +0.045 C 
ATOM     15  C   UNL     1      -1.958  -3.784   4.140  0.00  0.00    -0.029 A 
ATOM     16  C   UNL     1      -2.538  -5.038   4.141  0.00  0.00    +0.005 A 
ATOM     17  C   UNL     1      -3.874  -5.183   4.466  0.00  0.00    +0.001 A 
ATOM     18  C   UNL     1      -4.635  -4.074   4.790  0.00  0.00    +0.005 A 
ATOM     19  C   UNL     1      -4.061  -2.818   4.792  0.00  0.00    -0.029 A 
ATOM     20  C   UNL     1      -2.718  -2.670   4.471  0.00  0.00    +0.039 A 
ATOM     21  C   UNL     1      -4.890  -1.611   5.145  0.00  0.00    +0.045 C 
ENDBRANCH  10  20
ENDBRANCH   4  11
ENDBRANCH   1   4
BRANCH   2  22
ATOM     22  C   UNL     1      -2.557   0.643   6.625  0.00  0.00    +0.037 A 
ATOM     23  C   UNL     1      -1.772  -0.455   6.981  0.00  0.00    +0.013 A 
ATOM     24  C   UNL     1      -2.202  -1.315   7.969  0.00  0.00    +0.001 A 
ATOM     25  C   UNL     1      -3.409  -1.092   8.608  0.00  0.00    +0.000 A 
ATOM     26  C   UNL     1      -4.192  -0.006   8.260  0.00  0.00    +0.001 A 
ATOM     27  C   UNL     1      -3.771   0.866   7.277  0.00  0.00    +0.013 A 
ENDBRANCH   2  22
BRANCH   1  28
ATOM     28  C   UNL     1      -1.343   1.678   3.253  0.00  0.00    +0.113 C 
BRANCH  28  29
ATOM     29  C   UNL     1      -2.733   1.390   2.682  0.00  0.00    +0.052 C 
BRANCH  29  30
ATOM     30  C   UNL     1      -2.812   1.910   1.269  0.00  0.00    -0.037 C 
ATOM     31  C   UNL     1      -1.822   2.501   0.563  0.00  0.00    -0.001 A 
ATOM     32  C   UNL     1      -0.427   2.826   0.887  0.00  0.00    +0.010 A 
ATOM     33  C   UNL     1       0.339   3.433  -0.047  0.00  0.00    +0.001 A 
ATOM     34  C   UNL     1      -0.165   3.760  -1.314  0.00  0.00    +0.002 A 
ATOM     35  C   UNL     1      -1.435   3.493  -1.685  0.00  0.00    +0.026 A 
ATOM     36  C   UNL     1      -2.329   2.856  -0.782  0.00  0.00    +0.043 A 
ATOM     37  N   UNL     1      -3.584   2.498  -0.902  0.00  0.00    -0.378 N 
ATOM     38  C   UNL     1      -4.014   1.869   0.352  0.00  0.00    +0.103 C 
ATOM     39  C   UNL     1      -4.438   0.421   0.101  0.00  0.00    +0.035 C 
ATOM     40  H   UNL     1      -4.135   2.624  -1.690  0.00  0.00    +0.160 HD
ENDBRANCH  29  30
ENDBRANCH  28  29
ENDBRANCH   1  28
TORSDOF 7
