REMARK  Name = ZINC63177659
REMARK  6 active torsions:
REMARK  status: ('A' for Active; 'I' for Inactive)
REMARK    1  A    between atoms: C_1  and  S_2
REMARK    2  A    between atoms: S_2  and  C_5
REMARK    3  A    between atoms: C_8  and  N_14
REMARK    4  A    between atoms: C_9  and  N_11
REMARK    5  A    between atoms: N_14  and  C_15
REMARK    6  A    between atoms: C_20  and  N_22
REMARK                            x       y       z     vdW  Elec       q    Type
REMARK                         _______ _______ _______ _____ _____    ______ ____
ROOT
ATOM      1  C   UNL     1       0.768  -0.679  -1.484  0.00  0.00    +0.090 A 
ATOM      2  C   UNL     1       0.137  -0.589  -2.712  0.00  0.00    +0.029 A 
ATOM      3  C   UNL     1       0.872  -0.686  -3.877  0.00  0.00    +0.027 A 
ATOM      4  C   UNL     1       2.247  -0.874  -3.815  0.00  0.00    +0.058 A 
ATOM      5  C   UNL     1       2.878  -0.964  -2.580  0.00  0.00    +0.149 A 
ATOM      6  C   UNL     1       2.137  -0.861  -1.419  0.00  0.00    +0.061 A 
ENDROOT
BRANCH   1   8
ATOM      7  C   UNL     1      -0.192   1.216   0.393  0.00  0.00    +0.200 C 
ATOM      8  S   UNL     1      -0.174  -0.555  -0.000  0.00  0.00    -0.006 S 
ATOM      9  O   UNL     1       0.584  -1.264   0.970  0.00  0.00    -0.170 OA
ATOM     10  O   UNL     1      -1.478  -0.990  -0.361  0.00  0.00    -0.170 OA
ENDBRANCH   1   8
BRANCH   5  11
ATOM     11  N   UNL     1       4.343  -1.165  -2.510  0.00  0.00    +0.058 N 
ATOM     12  O   UNL     1       4.894  -1.883  -3.311  0.00  0.00    -0.126 OA
ATOM     13  O   UNL     1       4.988  -0.611  -1.651  0.00  0.00    -0.126 OA
ENDBRANCH   5  11
BRANCH   4  14
ATOM     14  N   UNL     1       2.994  -0.972  -4.991  0.00  0.00    -0.341 N 
ATOM     15  H   UNL     1       3.962  -1.016  -4.949  0.00  0.00    +0.146 HD
BRANCH  14  16
ATOM     16  C   UNL     1       2.315  -1.009  -6.289  0.00  0.00    +0.056 C 
ATOM     17  C   UNL     1       2.074   0.426  -6.800  0.00  0.00    +0.020 C 
ATOM     18  C   UNL     1       3.274   0.701  -7.740  0.00  0.00    +0.000 C 
ATOM     19  C   UNL     1       3.479  -0.665  -8.440  0.00  0.00    -0.014 C 
ATOM     20  C   UNL     1       3.208  -1.704  -7.331  0.00  0.00    -0.055 C 
BRANCH  20  21
ATOM     21  N   UNL     1       2.513  -2.870  -7.892  0.00  0.00    +0.381 N 
ATOM     22  H   UNL     1       1.657  -2.571  -8.335  0.00  0.00    -0.090 HD
ATOM     23  H   UNL     1       3.105  -3.319  -8.574  0.00  0.00    -0.090 HD
ATOM     24  H   UNL     1       2.298  -3.522  -7.152  0.00  0.00    -0.090 HD
ENDBRANCH  20  21
ENDBRANCH  14  16
ENDBRANCH   4  14
TORSDOF 5
