REMARK  Name = ZINC20437886
REMARK  8 active torsions:
REMARK  status: ('A' for Active; 'I' for Inactive)
REMARK    1  A    between atoms: C_3  and  C_8
REMARK    2  A    between atoms: C_8  and  O_9
REMARK    3  A    between atoms: O_9  and  C_10
REMARK    4  A    between atoms: C_15  and  C_16
REMARK    5  A    between atoms: N_17  and  N_18
REMARK    6  A    between atoms: C_19  and  C_21
REMARK    7  A    between atoms: C_24  and  O_28
REMARK    8  A    between atoms: C_26  and  O_27
REMARK                            x       y       z     vdW  Elec       q    Type
REMARK                         _______ _______ _______ _____ _____    ______ ____
ROOT
ATOM      1  C   UNL     1      -1.322   3.196   0.032  0.00  0.00    +0.130 A 
ATOM      2  C   UNL     1      -2.536   3.863   0.036  0.00  0.00    +0.047 A 
ATOM      3  C   UNL     1      -3.720   3.149   0.037  0.00  0.00    +0.019 A 
ATOM      4  C   UNL     1      -3.702   1.764   0.030  0.00  0.00    +0.019 A 
ATOM      5  C   UNL     1      -2.501   1.084   0.020  0.00  0.00    +0.028 A 
ATOM      6  C   UNL     1      -1.299   1.795   0.018  0.00  0.00    +0.037 A 
ATOM      7 BR   UNL     1      -5.329   0.801   0.032  0.00  0.00    -0.050 Br
ENDROOT
BRANCH   6   8
ATOM      8  C   UNL     1      -0.013   1.076   0.008  0.00  0.00    +0.142 C 
ATOM      9  N   UNL     1       1.103   1.740   0.001  0.00  0.00    -0.187 NA
BRANCH   9  10
ATOM     10  N   UNL     1       2.325   1.056  -0.015  0.00  0.00    -0.203 N 
ATOM     11  C   UNL     1       3.483   1.746  -0.022  0.00  0.00    +0.267 C 
ATOM     12  O   UNL     1       3.467   2.962  -0.015  0.00  0.00    -0.268 OA
ATOM     13  H   UNL     1       2.340  -0.044  -0.021  0.00  0.00    +0.178 HD
BRANCH  11  14
ATOM     14  C   UNL     1       4.768   1.027  -0.038  0.00  0.00    +0.080 A 
ATOM     15  C   UNL     1       4.791  -0.371  -0.046  0.00  0.00    +0.020 A 
ATOM     16  C   UNL     1       5.993  -1.039  -0.061  0.00  0.00    +0.046 A 
ATOM     17  C   UNL     1       7.190  -0.328  -0.069  0.00  0.00    +0.120 A 
ATOM     18  C   UNL     1       7.179   1.058  -0.062  0.00  0.00    +0.091 A 
ATOM     19  C   UNL     1       5.976   1.742  -0.051  0.00  0.00    +0.132 A 
BRANCH  19  20
ATOM     20  O   UNL     1       5.963   3.099  -0.050  0.00  0.00    -0.506 OA
ATOM     21  H   UNL     1       6.911   3.657  -0.060  0.00  0.00    +0.292 HD
ENDBRANCH  19  20
BRANCH  17  22
ATOM     22  O   UNL     1       8.372  -0.995  -0.085  0.00  0.00    -0.507 OA
ATOM     23  H   UNL     1       9.319  -0.435  -0.091  0.00  0.00    +0.292 HD
ENDBRANCH  17  22
ENDBRANCH  11  14
ENDBRANCH   9  10
ENDBRANCH   6   8
BRANCH   1  24
ATOM     24  O   UNL     1      -0.159   3.898   0.035  0.00  0.00    -0.487 OA
BRANCH  24  25
ATOM     25  C   UNL     1      -0.261   5.323   0.049  0.00  0.00    +0.264 C 
BRANCH  25  28
ATOM     26  C   UNL     1       3.018   6.766  -1.145  0.00  0.00    +0.003 A 
ATOM     27  C   UNL     1       1.750   6.213  -1.145  0.00  0.00    +0.007 A 
ATOM     28  C   UNL     1       1.121   5.926   0.051  0.00  0.00    -0.008 A 
ATOM     29  C   UNL     1       1.755   6.195   1.249  0.00  0.00    +0.045 A 
ATOM     30  C   UNL     1       3.026   6.744   1.251  0.00  0.00    +0.124 A 
ATOM     31  C   UNL     1       3.656   7.032   0.052  0.00  0.00    +0.038 A 
ATOM     32  F   UNL     1       3.649   7.004   2.421  0.00  0.00    -0.205 F 
ENDBRANCH  25  28
ENDBRANCH  24  25
ENDBRANCH   1  24
TORSDOF 8
