REMARK  Name = ZINC09693580
REMARK  7 active torsions:
REMARK  status: ('A' for Active; 'I' for Inactive)
REMARK    1  A    between atoms: C_1  and  C_2
REMARK    2  A    between atoms: C_2  and  O_3
REMARK    3  A    between atoms: O_3  and  C_4
REMARK    4  A    between atoms: C_6  and  C_12
REMARK    5  A    between atoms: C_9  and  O_10
REMARK    6  A    between atoms: N_19  and  C_26
REMARK    7  A    between atoms: C_23  and  C_24
REMARK                            x       y       z     vdW  Elec       q    Type
REMARK                         _______ _______ _______ _____ _____    ______ ____
ROOT
ATOM      1  C   UNL     1      -1.334   2.162   0.020  0.00  0.00    +0.071 C 
ATOM      2  C   UNL     1      -1.170   3.439   0.854  0.00  0.00    +0.110 C 
ATOM      3  C   UNL     1       0.062   4.172   0.402  0.00  0.00    +0.222 C 
ATOM      4  O   UNL     1       0.064   5.384   0.393  0.00  0.00    -0.275 OA
ATOM      5  N   UNL     1       1.172   3.501   0.002  0.00  0.00    -0.248 N 
ATOM      6  C   UNL     1       2.304   4.299  -0.432  0.00  0.00    +0.222 C 
ATOM      7  N   UNL     1       3.600   3.670  -0.485  0.00  0.00    -0.304 N 
ATOM      8  C   UNL     1       3.624   2.330  -1.076  0.00  0.00    +0.182 C 
ATOM      9  S   UNL     1       2.680   1.230   0.019  0.00  0.00    -0.090 S 
ATOM     10  C   UNL     1       1.153   2.122   0.003  0.00  0.00    +0.087 C 
ATOM     11  C   UNL     1      -0.017   1.428   0.010  0.00  0.00    +0.065 C 
ENDROOT
BRANCH   1  14
ATOM     12  C   UNL     1      -4.488   0.129   0.467  0.00  0.00    +0.163 A 
ATOM     13  C   UNL     1      -3.513   0.938  -0.097  0.00  0.00    +0.053 A 
ATOM     14  C   UNL     1      -2.396   1.288   0.637  0.00  0.00    -0.034 A 
ATOM     15  C   UNL     1      -2.252   0.844   1.939  0.00  0.00    +0.023 A 
ATOM     16  C   UNL     1      -3.224   0.042   2.510  0.00  0.00    +0.063 A 
ATOM     17  C   UNL     1      -4.344  -0.318   1.776  0.00  0.00    +0.173 A 
ATOM     18 BR   UNL     1      -3.024  -0.565   4.289  0.00  0.00    -0.046 Br
BRANCH  17  19
ATOM     19  O   UNL     1      -5.301  -1.107   2.336  0.00  0.00    -0.503 OA
ATOM     20  H   UNL     1      -5.999  -0.616   2.790  0.00  0.00    +0.292 HD
ENDBRANCH  17  19
BRANCH  12  21
ATOM     21  O   UNL     1      -5.585  -0.221  -0.257  0.00  0.00    -0.489 OA
BRANCH  21  23
ATOM     22  C   UNL     1      -6.958  -0.220  -2.245  0.00  0.00    +0.048 C 
ATOM     23  C   UNL     1      -5.665   0.275  -1.594  0.00  0.00    +0.226 C 
ENDBRANCH  21  23
ENDBRANCH  12  21
ENDBRANCH   1  14
BRANCH   7  24
ATOM     24  C   UNL     1       4.538   4.505  -1.099  0.00  0.00    +0.032 A 
ATOM     25  C   UNL     1       4.156   5.757  -1.564  0.00  0.00    +0.026 A 
ATOM     26  C   UNL     1       5.085   6.582  -2.166  0.00  0.00    +0.040 A 
ATOM     27  C   UNL     1       6.395   6.159  -2.314  0.00  0.00    +0.124 A 
ATOM     28  C   UNL     1       6.778   4.910  -1.856  0.00  0.00    +0.040 A 
ATOM     29  C   UNL     1       5.853   4.083  -1.249  0.00  0.00    +0.026 A 
ATOM     30  F   UNL     1       7.302   6.966  -2.907  0.00  0.00    -0.205 F 
ENDBRANCH   7  24
BRANCH  11  31
ATOM     31  C   UNL     1       0.002  -0.004   0.002  0.00  0.00    +0.098 C 
ATOM     32  N   UNL     1       0.018  -1.140  -0.004  0.00  0.00    -0.191 NA
ENDBRANCH  11  31
TORSDOF 6
