REMARK  Name = ZINC01434510
REMARK  8 active torsions:
REMARK  status: ('A' for Active; 'I' for Inactive)
REMARK    1  A    between atoms: C_1  and  C_2
REMARK    2  A    between atoms: C_2  and  O_3
REMARK    3  A    between atoms: O_3  and  C_4
REMARK    4  A    between atoms: C_4  and  C_6
REMARK    5  A    between atoms: C_7  and  C_24
REMARK    6  A    between atoms: C_9  and  N_23
REMARK    7  A    between atoms: C_10  and  C_21
REMARK    8  A    between atoms: C_11  and  C_13
REMARK                            x       y       z     vdW  Elec       q    Type
REMARK                         _______ _______ _______ _____ _____    ______ ____
ROOT
ATOM      1  C   UNL     1      -0.691   1.697   3.588  0.00  0.00    +0.088 C 
ATOM      2  C   UNL     1      -0.294   1.155   4.747  0.00  0.00    +0.133 C 
ATOM      3  O   UNL     1      -0.900   1.429   5.911  0.00  0.00    -0.444 OA
ATOM      4  C   UNL     1      -1.676   2.523   6.011  0.00  0.00    +0.198 C 
ATOM      5  C   UNL     1      -2.167   3.152   4.916  0.00  0.00    +0.098 C 
ATOM      6  C   UNL     1      -1.858   2.645   3.534  0.00  0.00    +0.106 C 
ENDROOT
BRANCH   6   7
ATOM      7  C   UNL     1      -3.062   1.925   2.983  0.00  0.00    -0.015 A 
ATOM      8  C   UNL     1      -3.563   0.815   3.637  0.00  0.00    +0.006 A 
ATOM      9  C   UNL     1      -4.668   0.154   3.134  0.00  0.00    +0.002 A 
ATOM     10  C   UNL     1      -5.273   0.603   1.974  0.00  0.00    +0.021 A 
ATOM     11  C   UNL     1      -4.773   1.712   1.318  0.00  0.00    +0.060 A 
ATOM     12  C   UNL     1      -3.670   2.379   1.827  0.00  0.00    +0.063 A 
ATOM     13 CL   UNL     1      -3.047   3.777   1.009  0.00  0.00    -0.082 Cl
ATOM     14 CL   UNL     1      -5.531   2.275  -0.139  0.00  0.00    -0.082 Cl
ENDBRANCH   6   7
BRANCH   4  15
ATOM     15  N   UNL     1      -1.977   3.016   7.256  0.00  0.00    -0.328 N 
ATOM     16  H   UNL     1      -2.535   3.805   7.343  0.00  0.00    +0.145 HD
ATOM     17  H   UNL     1      -1.632   2.576   8.048  0.00  0.00    +0.145 HD
ENDBRANCH   4  15
BRANCH   1  18
ATOM     18  C   UNL     1      -0.004   1.369   2.394  0.00  0.00    +0.339 C 
ATOM     19  O   UNL     1       0.823   2.136   1.938  0.00  0.00    -0.245 OA
BRANCH  18  20
ATOM     20  O   UNL     1      -0.266   0.206   1.763  0.00  0.00    -0.462 OA
BRANCH  20  22
ATOM     21  C   UNL     1       0.035  -1.414  -0.005  0.00  0.00    +0.048 C 
ATOM     22  C   UNL     1       0.465  -0.060   0.564  0.00  0.00    +0.229 C 
ENDBRANCH  20  22
ENDBRANCH  18  20
ENDBRANCH   1  18
BRANCH   5  23
ATOM     23  C   UNL     1      -2.991   4.313   5.077  0.00  0.00    +0.101 C 
ATOM     24  N   UNL     1      -3.644   5.234   5.204  0.00  0.00    -0.191 NA
ENDBRANCH   5  23
BRANCH   2  25
ATOM     25  C   UNL     1       0.878   0.208   4.742  0.00  0.00    +0.183 C 
ATOM     26 CL   UNL     1       2.388   1.120   5.116  0.00  0.00    -0.117 Cl
ENDBRANCH   2  25
TORSDOF 7
