REMARK  Name = ZINC20758531
REMARK  8 active torsions:
REMARK  status: ('A' for Active; 'I' for Inactive)
REMARK    1  A    between atoms: C_1  and  N_2
REMARK    2  A    between atoms: N_2  and  C_3
REMARK    3  A    between atoms: N_2  and  S_10
REMARK    4  A    between atoms: C_3  and  C_4
REMARK    5  A    between atoms: S_10  and  C_13
REMARK    6  A    between atoms: C_26  and  C_29
REMARK    7  A    between atoms: C_32  and  S_35
REMARK    8  A    between atoms: S_35  and  C_36
REMARK                            x       y       z     vdW  Elec       q    Type
REMARK                         _______ _______ _______ _____ _____    ______ ____
ROOT
ATOM      1  C   UNL     1      -3.605   3.722   1.323  0.00  0.00    +0.106 A 
ATOM      2  C   UNL     1      -3.334   5.009   1.750  0.00  0.00    +0.030 A 
ATOM      3  C   UNL     1      -2.070   5.538   1.595  0.00  0.00    +0.025 A 
ATOM      4  C   UNL     1      -1.060   4.784   1.012  0.00  0.00    +0.031 A 
ATOM      5  C   UNL     1      -1.345   3.487   0.570  0.00  0.00    -0.018 A 
ATOM      6  C   UNL     1      -2.609   2.965   0.734  0.00  0.00    +0.034 A 
ATOM      7  C   UNL     1      -0.248   2.727  -0.067  0.00  0.00    +0.049 C 
ATOM      8  C   UNL     1      -0.226   1.242  -0.053  0.00  0.00    -0.023 C 
ATOM      9  C   UNL     1       1.039   0.837  -0.029  0.00  0.00    -0.030 C 
ATOM     10  C   UNL     1       1.975   2.047  -0.001  0.00  0.00    +0.033 C 
ATOM     11  C   UNL     1       1.082   3.113   0.647  0.00  0.00    +0.029 C 
ATOM     12  C   UNL     1       1.341   4.559   0.264  0.00  0.00    +0.105 C 
ATOM     13  N   UNL     1       0.225   5.329   0.900  0.00  0.00    -0.336 N 
ATOM     14  H   UNL     1       0.408   6.341   1.291  0.00  0.00    +0.147 HD
ENDROOT
BRANCH  12  15
ATOM     15  C   UNL     1       1.323   4.711  -1.236  0.00  0.00    -0.027 A 
ATOM     16  C   UNL     1       0.142   5.028  -1.882  0.00  0.00    +0.006 A 
ATOM     17  C   UNL     1       0.122   5.173  -3.255  0.00  0.00    +0.015 A 
ATOM     18  C   UNL     1       1.288   4.989  -3.989  0.00  0.00    +0.008 A 
ATOM     19  C   UNL     1       2.471   4.666  -3.336  0.00  0.00    +0.015 A 
ATOM     20  C   UNL     1       2.485   4.528  -1.962  0.00  0.00    +0.006 A 
BRANCH  18  21
ATOM     21  S   UNL     1       1.265   5.166  -5.742  0.00  0.00    -0.129 S 
ATOM     22  C   UNL     1      -0.460   5.582  -6.119  0.00  0.00    +0.090 C 
ENDBRANCH  18  21
ENDBRANCH  12  15
BRANCH   1  23
ATOM     23  S   UNL     1      -5.219   3.046   1.532  0.00  0.00    +0.061 S 
ATOM     24  O   UNL     1      -6.114   4.147   1.613  0.00  0.00    -0.153 OA
ATOM     25  O   UNL     1      -5.359   2.021   0.557  0.00  0.00    -0.153 OA
BRANCH  23  27
ATOM     26  C   UNL     1      -4.881   0.887   3.126  0.00  0.00    +0.132 C 
ATOM     27  N   UNL     1      -5.251   2.300   3.010  0.00  0.00    -0.175 NA
BRANCH  27  28
ATOM     28  C   UNL     1      -5.649   3.053   4.202  0.00  0.00    +0.144 C 
BRANCH  28  29
ATOM     29  C   UNL     1      -7.118   2.839   4.464  0.00  0.00    -0.032 A 
ATOM     30  C   UNL     1      -8.051   3.691   3.903  0.00  0.00    +0.005 A 
ATOM     31  C   UNL     1      -9.399   3.492   4.140  0.00  0.00    +0.000 A 
ATOM     32  C   UNL     1      -9.812   2.447   4.945  0.00  0.00    +0.000 A 
ATOM     33  C   UNL     1      -8.878   1.598   5.509  0.00  0.00    +0.000 A 
ATOM     34  C   UNL     1      -7.531   1.794   5.269  0.00  0.00    +0.005 A 
ENDBRANCH  28  29
ENDBRANCH  27  28
ENDBRANCH  23  27
ENDBRANCH   1  23
TORSDOF 6
