REMARK  Name = ZINC01635217
REMARK  7 active torsions:
REMARK  status: ('A' for Active; 'I' for Inactive)
REMARK    1  A    between atoms: C_1  and  C_2
REMARK    2  A    between atoms: C_2  and  C_15
REMARK    3  A    between atoms: C_3  and  C_11
REMARK    4  A    between atoms: C_6  and  C_8
REMARK    5  A    between atoms: C_6  and  O_10
REMARK    6  A    between atoms: C_11  and  O_13
REMARK    7  A    between atoms: O_13  and  C_14
REMARK                            x       y       z     vdW  Elec       q    Type
REMARK                         _______ _______ _______ _____ _____    ______ ____
ROOT
ATOM      1  C   UNL     1       2.676   3.106  -3.412  0.00  0.00    +0.024 C 
ATOM      2  C   UNL     1       1.556   2.429  -2.619  0.00  0.00    +0.041 C 
ATOM      3  C   UNL     1       0.939   3.404  -1.591  0.00  0.00    +0.182 C 
ATOM      4  N   UNL     1       1.203   3.039  -0.197  0.00  0.00    -0.257 NA
ATOM      5  C   UNL     1       1.286   1.562  -0.002  0.00  0.00    +0.272 C 
ATOM      6  S   UNL     1       2.229   1.106  -1.525  0.00  0.00    -0.091 S 
ATOM      7  C   UNL     1       0.484   1.872  -3.557  0.00  0.00    +0.024 C 
ATOM      8  H   UNL     1       0.516   3.447   0.419  0.00  0.00    +0.127 HD
ENDROOT
BRANCH   5   9
ATOM      9  C   UNL     1       2.056   1.214   1.246  0.00  0.00    +0.413 C 
ATOM     10  O   UNL     1       2.446   2.091   1.980  0.00  0.00    -0.240 OA
ATOM     11  O   UNL     1       2.310  -0.071   1.542  0.00  0.00    -0.240 OA
ENDBRANCH   5   9
BRANCH   5  12
ATOM     12  O   UNL     1      -0.011   0.963   0.007  0.00  0.00    -0.357 OA
ATOM     13  H   UNL     1       0.002  -0.004   0.002  0.00  0.00    +0.213 HD
ENDBRANCH   5  12
BRANCH   3  14
ATOM     14  C   UNL     1       1.495   4.782  -1.841  0.00  0.00    +0.326 C 
ATOM     15  O   UNL     1       2.394   5.205  -1.154  0.00  0.00    -0.249 OA
BRANCH  14  16
ATOM     16  O   UNL     1       0.991   5.540  -2.828  0.00  0.00    -0.467 OA
ATOM     17  C   UNL     1       1.575   6.857  -3.011  0.00  0.00    +0.280 C 
ENDBRANCH  14  16
ENDBRANCH   3  14
TORSDOF 4
