REMARK  Name = ZINC35375677
REMARK  6 active torsions:
REMARK  status: ('A' for Active; 'I' for Inactive)
REMARK    1  A    between atoms: C_1  and  C_2
REMARK    2  A    between atoms: C_16  and  C_19
REMARK    3  A    between atoms: C_19  and  C_20
REMARK    4  A    between atoms: N_32  and  C_35
REMARK    5  A    between atoms: C_39  and  O_41
REMARK    6  A    between atoms: O_41  and  C_42
REMARK                            x       y       z     vdW  Elec       q    Type
REMARK                         _______ _______ _______ _____ _____    ______ ____
ROOT
ATOM      1  C   UNL     1      -0.018   1.503   0.010  0.00  0.00    +0.045 C 
ATOM      2  C   UNL     1       0.002  -0.004   0.002  0.00  0.00    -0.029 A 
ATOM      3  C   UNL     1       0.006  -0.685  -1.198  0.00  0.00    +0.005 A 
ATOM      4  C   UNL     1       0.024  -2.067  -1.216  0.00  0.00    +0.001 A 
ATOM      5  C   UNL     1       0.039  -2.772  -0.025  0.00  0.00    +0.008 A 
ATOM      6  C   UNL     1       0.036  -2.097   1.175  0.00  0.00    +0.004 A 
ATOM      7  C   UNL     1       0.023  -0.704   1.205  0.00  0.00    +0.042 A 
ATOM      8  N   UNL     1       0.029  -0.250   2.526  0.00  0.00    -0.283 N 
ATOM      9  C   UNL     1       0.053  -1.265   3.412  0.00  0.00    +0.243 C 
ATOM     10  O   UNL     1       0.066  -1.171   4.621  0.00  0.00    -0.273 OA
ATOM     11  C   UNL     1       0.049  -2.536   2.611  0.00  0.00    +0.136 C 
ATOM     12  C   UNL     1       1.226  -3.430   2.942  0.00  0.00    +0.123 C 
ATOM     13  C   UNL     1       0.651  -4.011   4.292  0.00  0.00    +0.108 C 
ATOM     14  C   UNL     1      -0.724  -4.395   3.946  0.00  0.00    +0.072 C 
ATOM     15  N   UNL     1      -1.147  -3.368   2.921  0.00  0.00    -0.295 NA
ATOM     16  C   UNL     1       1.833  -4.565   4.907  0.00  0.00    +0.232 C 
ATOM     17  O   UNL     1       1.909  -5.551   5.607  0.00  0.00    -0.274 OA
ATOM     18  N   UNL     1       2.854  -3.729   4.526  0.00  0.00    -0.210 N 
ATOM     19  C   UNL     1       2.499  -2.874   3.503  0.00  0.00    +0.233 C 
ATOM     20  O   UNL     1       3.084  -1.878   3.135  0.00  0.00    -0.274 OA
ATOM     21  H   UNL     1       0.018   0.687   2.776  0.00  0.00    +0.155 HD
ATOM     22  H   UNL     1      -1.905  -2.797   3.263  0.00  0.00    +0.124 HD
ENDROOT
BRANCH  18  23
ATOM     23  C   UNL     1       4.130  -3.749   5.105  0.00  0.00    +0.047 A 
ATOM     24  C   UNL     1       5.107  -2.865   4.665  0.00  0.00    +0.024 A 
ATOM     25  C   UNL     1       6.365  -2.885   5.235  0.00  0.00    +0.005 A 
ATOM     26  C   UNL     1       6.655  -3.783   6.245  0.00  0.00    +0.046 A 
ATOM     27  C   UNL     1       5.683  -4.669   6.687  0.00  0.00    +0.122 A 
ATOM     28  C   UNL     1       4.418  -4.648   6.121  0.00  0.00    +0.069 A 
BRANCH  27  29
ATOM     29  O   UNL     1       5.970  -5.553   7.679  0.00  0.00    -0.495 OA
ATOM     30  C   UNL     1       7.292  -5.514   8.221  0.00  0.00    +0.277 C 
ENDBRANCH  27  29
ENDBRANCH  18  23
BRANCH  14  31
ATOM     31  C   UNL     1      -0.753  -5.810   3.365  0.00  0.00    +0.056 C 
BRANCH  31  32
ATOM     32  C   UNL     1      -2.183  -6.228   3.133  0.00  0.00    -0.021 A 
ATOM     33  C   UNL     1      -2.954  -6.935   3.974  0.00  0.00    +0.087 A 
ATOM     34  N   UNL     1      -4.193  -7.123   3.423  0.00  0.00    -0.360 N 
ATOM     35  H   UNL     1      -4.922  -7.605   3.844  0.00  0.00    +0.165 HD
ATOM     36  C   UNL     1      -4.250  -6.527   2.184  0.00  0.00    +0.047 A 
ATOM     37  C   UNL     1      -2.995  -5.934   1.950  0.00  0.00    +0.003 A 
ATOM     38  C   UNL     1      -2.761  -5.245   0.759  0.00  0.00    +0.010 A 
ATOM     39  C   UNL     1      -3.755  -5.146  -0.174  0.00  0.00    +0.001 A 
ATOM     40  C   UNL     1      -4.996  -5.725   0.053  0.00  0.00    +0.002 A 
ATOM     41  C   UNL     1      -5.245  -6.418   1.218  0.00  0.00    +0.026 A 
ENDBRANCH  31  32
ENDBRANCH  14  31
TORSDOF 4
