REMARK  Name = ZINC12298222
REMARK  6 active torsions:
REMARK  status: ('A' for Active; 'I' for Inactive)
REMARK    1  A    between atoms: C_1  and  O_2
REMARK    2  A    between atoms: O_2  and  C_3
REMARK    3  A    between atoms: C_6  and  C_10
REMARK    4  A    between atoms: C_8  and  O_9
REMARK    5  A    between atoms: C_10  and  N_53
REMARK    6  A    between atoms: C_23  and  C_25
REMARK                            x       y       z     vdW  Elec       q    Type
REMARK                         _______ _______ _______ _____ _____    ______ ____
ROOT
ATOM      1  C   UNL     1      -2.062   0.245  -2.048  0.00  0.00    -0.072 C 
ATOM      2  C   UNL     1      -2.130   0.011  -3.563  0.00  0.00    +0.019 C 
ATOM      3  C   UNL     1      -2.990  -1.204  -3.809  0.00  0.00    -0.022 A 
ATOM      4  C   UNL     1      -3.611  -1.655  -5.035  0.00  0.00    +0.003 A 
ATOM      5  C   UNL     1      -3.620  -1.149  -6.338  0.00  0.00    +0.010 A 
ATOM      6  C   UNL     1      -4.333  -1.857  -7.274  0.00  0.00    +0.001 A 
ATOM      7  C   UNL     1      -5.015  -3.020  -6.955  0.00  0.00    +0.002 A 
ATOM      8  C   UNL     1      -5.023  -3.543  -5.674  0.00  0.00    +0.026 A 
ATOM      9  C   UNL     1      -4.308  -2.846  -4.703  0.00  0.00    +0.047 A 
ATOM     10  N   UNL     1      -4.109  -3.077  -3.371  0.00  0.00    -0.359 N 
ATOM     11  H   UNL     1      -4.473  -3.826  -2.875  0.00  0.00    +0.166 HD
ATOM     12  C   UNL     1      -3.320  -2.092  -2.844  0.00  0.00    +0.011 A 
ATOM     13  C   UNL     1      -2.854  -1.962  -1.413  0.00  0.00    +0.011 C 
ATOM     14  N   UNL     1      -1.703  -1.029  -1.386  0.00  0.00    +0.391 N 
ATOM     15  H   UNL     1      -0.918  -1.456  -1.891  0.00  0.00    -0.080 HD
ENDROOT
BRANCH  13  16
ATOM     16  C   UNL     1      -2.406  -3.306  -0.898  0.00  0.00    -0.055 A 
ATOM     17  C   UNL     1      -1.161  -3.797  -1.242  0.00  0.00    +0.005 A 
ATOM     18  C   UNL     1      -0.746  -5.026  -0.766  0.00  0.00    +0.038 A 
ATOM     19  C   UNL     1      -1.584  -5.772   0.046  0.00  0.00    +0.123 A 
ATOM     20  C   UNL     1      -2.833  -5.282   0.386  0.00  0.00    +0.038 A 
ATOM     21  C   UNL     1      -3.243  -4.049  -0.086  0.00  0.00    +0.005 A 
ATOM     22  F   UNL     1      -1.182  -6.977   0.507  0.00  0.00    -0.205 F 
ENDBRANCH  13  16
BRANCH  14  23
ATOM     23  C   UNL     1      -1.294  -0.774   0.010  0.00  0.00    -0.041 C 
BRANCH  23  27
ATOM     24  C   UNL     1       2.386   1.405  -0.014  0.00  0.00    +0.161 A 
ATOM     25  C   UNL     1       2.398   0.019  -0.022  0.00  0.00    +0.049 A 
ATOM     26  C   UNL     1       1.207  -0.682  -0.014  0.00  0.00    +0.005 A 
ATOM     27  C   UNL     1       0.002  -0.004   0.002  0.00  0.00    -0.060 A 
ATOM     28  C   UNL     1      -0.017   1.378   0.010  0.00  0.00    +0.051 A 
ATOM     29  C   UNL     1       1.174   2.087   0.002  0.00  0.00    +0.159 A 
BRANCH  24  31
ATOM     30  C   UNL     1       4.763   1.330  -0.037  0.00  0.00    +0.277 C 
ATOM     31  O   UNL     1       3.557   2.096  -0.021  0.00  0.00    -0.491 OA
ENDBRANCH  24  31
BRANCH  29  32
ATOM     32  O   UNL     1       1.157   3.447   0.009  0.00  0.00    -0.503 OA
ATOM     33  H   UNL     1       1.161   3.836   0.895  0.00  0.00    +0.292 HD
ENDBRANCH  29  32
ENDBRANCH  23  27
ENDBRANCH  14  23
TORSDOF 5
