REMARK  Name = ZINC01235866
REMARK  7 active torsions:
REMARK  status: ('A' for Active; 'I' for Inactive)
REMARK    1  A    between atoms: C_1  and  N_2
REMARK    2  A    between atoms: N_2  and  C_3
REMARK    3  A    between atoms: N_2  and  C_4
REMARK    4  A    between atoms: C_7  and  C_10
REMARK    5  A    between atoms: C_15  and  N_17
REMARK    6  A    between atoms: N_17  and  C_18
REMARK    7  A    between atoms: C_21  and  O_24
REMARK                            x       y       z     vdW  Elec       q    Type
REMARK                         _______ _______ _______ _____ _____    ______ ____
ROOT
ATOM      1  C   UNL     1       0.090  -2.790  -4.896  0.00  0.00    +0.028 C 
ATOM      2  C   UNL     1      -0.066  -2.111  -6.061  0.00  0.00    +0.079 C 
ATOM      3  C   UNL     1      -0.202  -0.655  -6.300  0.00  0.00    +0.276 C 
ATOM      4  O   UNL     1      -0.184   0.152  -5.384  0.00  0.00    -0.267 OA
ATOM      5  N   UNL     1      -0.343  -0.280  -7.552  0.00  0.00    -0.152 NA
ATOM      6  C   UNL     1      -0.363  -1.145  -8.554  0.00  0.00    +0.175 C 
ATOM      7  S   UNL     1      -0.159  -2.721  -7.740  0.00  0.00    -0.050 S 
ENDROOT
BRANCH   1  11
ATOM      8  C   UNL     1      -0.281  -0.763  -1.196  0.00  0.00    +0.029 A 
ATOM      9  C   UNL     1      -1.096  -0.407  -2.267  0.00  0.00    +0.023 A 
ATOM     10  C   UNL     1      -0.980  -1.060  -3.467  0.00  0.00    +0.010 A 
ATOM     11  C   UNL     1      -0.038  -2.088  -3.614  0.00  0.00    -0.024 A 
ATOM     12  C   UNL     1       0.780  -2.442  -2.533  0.00  0.00    +0.010 A 
ATOM     13  C   UNL     1       0.660  -1.780  -1.339  0.00  0.00    +0.023 A 
BRANCH   8  15
ATOM     14  C   UNL     1       0.457  -0.467   1.147  0.00  0.00    +0.129 C 
ATOM     15  N   UNL     1      -0.403  -0.098   0.020  0.00  0.00    -0.336 N 
ATOM     16  C   UNL     1      -1.392   0.972   0.173  0.00  0.00    +0.129 C 
ENDBRANCH   8  15
ENDBRANCH   1  11
BRANCH   6  17
ATOM     17  N   UNL     1      -0.502  -0.891  -9.894  0.00  0.00    -0.192 NA
BRANCH  17  18
ATOM     18  C   UNL     1      -0.449   0.426 -10.366  0.00  0.00    +0.056 A 
ATOM     19  C   UNL     1       0.230   1.397  -9.642  0.00  0.00    +0.029 A 
ATOM     20  C   UNL     1       0.282   2.695 -10.109  0.00  0.00    +0.047 A 
ATOM     21  C   UNL     1      -0.344   3.030 -11.301  0.00  0.00    +0.117 A 
ATOM     22  C   UNL     1      -1.023   2.061 -12.024  0.00  0.00    +0.047 A 
ATOM     23  C   UNL     1      -1.071   0.760 -11.562  0.00  0.00    +0.029 A 
BRANCH  21  24
ATOM     24  O   UNL     1      -0.292   4.309 -11.760  0.00  0.00    -0.507 OA
ATOM     25  H   UNL     1       0.464   4.490 -12.335  0.00  0.00    +0.292 HD
ENDBRANCH  21  24
ENDBRANCH  17  18
ENDBRANCH   6  17
TORSDOF 5
