REMARK  Name = ZINC20838602
REMARK  15 active torsions:
REMARK  status: ('A' for Active; 'I' for Inactive)
REMARK    1  A    between atoms: C_1  and  C_2
REMARK    2  A    between atoms: C_2  and  C_3
REMARK    3  A    between atoms: C_2  and  C_4
REMARK    4  A    between atoms: C_2  and  C_5
REMARK    5  A    between atoms: C_8  and  S_16
REMARK    6  A    between atoms: N_9  and  C_10
REMARK    7  A    between atoms: S_16  and  C_17
REMARK    8  A    between atoms: C_17  and  C_18
REMARK    9  A    between atoms: N_20  and  C_21
REMARK   10  A    between atoms: C_24  and  S_27
REMARK   11  A    between atoms: S_27  and  N_30
REMARK   12  A    between atoms: N_30  and  C_31
REMARK   13  A    between atoms: C_31  and  C_32
REMARK   14  A    between atoms: C_31  and  C_33
REMARK   15  A    between atoms: C_31  and  C_34
REMARK                            x       y       z     vdW  Elec       q    Type
REMARK                         _______ _______ _______ _____ _____    ______ ____
ROOT
ATOM      1  C   UNL     1      -3.192   3.101   5.481  0.00  0.00    +0.227 C 
ATOM      2  O   UNL     1      -2.204   3.793   5.605  0.00  0.00    -0.275 OA
ATOM      3  N   UNL     1      -3.276   2.221   4.464  0.00  0.00    -0.285 N 
ATOM      4  H   UNL     1      -4.207   1.660   4.297  0.00  0.00    +0.155 HD
ENDROOT
BRANCH   3   5
ATOM      5  C   UNL     1      -2.177   2.020   3.621  0.00  0.00    +0.034 A 
ATOM      6  C   UNL     1      -0.886   2.135   4.120  0.00  0.00    +0.025 A 
ATOM      7  C   UNL     1       0.196   1.936   3.285  0.00  0.00    +0.030 A 
ATOM      8  C   UNL     1      -0.005   1.622   1.953  0.00  0.00    +0.105 A 
ATOM      9  C   UNL     1      -1.289   1.512   1.452  0.00  0.00    +0.030 A 
ATOM     10  C   UNL     1      -2.376   1.705   2.283  0.00  0.00    +0.025 A 
BRANCH   8  11
ATOM     11  S   UNL     1       1.378   1.369   0.892  0.00  0.00    +0.059 S 
ATOM     12  O   UNL     1       2.317   2.390   1.197  0.00  0.00    -0.153 OA
ATOM     13  O   UNL     1       0.856   1.179  -0.417  0.00  0.00    -0.153 OA
BRANCH  11  14
ATOM     14  N   UNL     1       2.078  -0.066   1.334  0.00  0.00    -0.185 NA
ATOM     15  H   UNL     1       3.003  -0.051   1.929  0.00  0.00    +0.149 HD
BRANCH  14  16
ATOM     16  C   UNL     1       1.361  -1.326   1.125  0.00  0.00    +0.032 C 
ATOM     17  C   UNL     1       1.216  -1.587  -0.376  0.00  0.00    +0.029 C 
ATOM     18  C   UNL     1       2.145  -2.471   1.768  0.00  0.00    +0.029 C 
ATOM     19  C   UNL     1      -0.026  -1.236   1.763  0.00  0.00    +0.029 C 
ENDBRANCH  14  16
ENDBRANCH  11  14
ENDBRANCH   8  11
ENDBRANCH   3   5
BRANCH   1  20
ATOM     20  C   UNL     1      -4.327   3.225   6.465  0.00  0.00    +0.173 C 
BRANCH  20  21
ATOM     21  S   UNL     1      -3.917   4.481   7.703  0.00  0.00    -0.076 S 
BRANCH  21  25
ATOM     22  C   UNL     1      -6.872   4.781  10.237  0.00  0.00    +0.144 A 
ATOM     23  N   UNL     1      -7.294   3.860   9.417  0.00  0.00    -0.133 NA
ATOM     24  N   UNL     1      -6.416   3.646   8.502  0.00  0.00    -0.122 NA
ATOM     25  C   UNL     1      -5.373   4.419   8.694  0.00  0.00    +0.197 A 
ATOM     26  N   UNL     1      -5.632   5.172   9.807  0.00  0.00    -0.274 N 
BRANCH  26  27
ATOM     27  C   UNL     1      -4.802   6.143  10.386  0.00  0.00    +0.050 A 
ATOM     28  C   UNL     1      -4.158   5.880  11.587  0.00  0.00    +0.026 A 
ATOM     29  C   UNL     1      -3.337   6.836  12.152  0.00  0.00    +0.002 A 
ATOM     30  C   UNL     1      -3.164   8.058  11.528  0.00  0.00    +0.000 A 
ATOM     31  C   UNL     1      -3.808   8.324  10.334  0.00  0.00    +0.002 A 
ATOM     32  C   UNL     1      -4.627   7.370   9.761  0.00  0.00    +0.026 A 
ENDBRANCH  26  27
BRANCH  22  34
ATOM     33  C   UNL     1      -7.696   6.841  11.343  0.00  0.00    +0.019 C 
ATOM     34  C   UNL     1      -7.613   5.317  11.435  0.00  0.00    +0.023 C 
ATOM     35  C   UNL     1      -9.025   4.729  11.466  0.00  0.00    +0.019 C 
ATOM     36  C   UNL     1      -6.868   4.923  12.712  0.00  0.00    +0.019 C 
ENDBRANCH  22  34
ENDBRANCH  21  25
ENDBRANCH  20  21
ENDBRANCH   1  20
TORSDOF 9
