REMARK  Name = ZINC39344991
REMARK  14 active torsions:
REMARK  status: ('A' for Active; 'I' for Inactive)
REMARK    1  A    between atoms: C_1  and  C_2
REMARK    2  A    between atoms: N_4  and  C_5
REMARK    3  A    between atoms: C_9  and  N_31
REMARK    4  A    between atoms: N_13  and  C_20
REMARK    5  A    between atoms: C_14  and  C_16
REMARK    6  A    between atoms: C_16  and  O_18
REMARK    7  A    between atoms: O_18  and  C_19
REMARK    8  A    between atoms: C_20  and  C_21
REMARK    9  A    between atoms: C_21  and  C_22
REMARK   10  A    between atoms: N_31  and  C_32
REMARK   11  A    between atoms: C_32  and  C_33
REMARK   12  A    between atoms: C_33  and  C_34
REMARK   13  A    between atoms: C_33  and  C_35
REMARK   14  A    between atoms: C_33  and  C_36
REMARK                            x       y       z     vdW  Elec       q    Type
REMARK                         _______ _______ _______ _____ _____    ______ ____
ROOT
ATOM      1  C   UNL     1      -1.136  -2.159   0.001  0.00  0.00    +0.138 C 
ATOM      2  C   UNL     1      -1.069  -2.693   1.413  0.00  0.00    +0.015 A 
ATOM      3  C   UNL     1      -0.118  -2.536   2.403  0.00  0.00    +0.033 A 
ATOM      4  C   UNL     1      -0.329  -3.160   3.632  0.00  0.00    +0.044 A 
ATOM      5  C   UNL     1      -1.481  -3.910   3.810  0.00  0.00    +0.107 A 
ATOM      6  N   UNL     1      -2.365  -4.037   2.842  0.00  0.00    -0.348 N 
ATOM      7  C   UNL     1      -2.202  -3.457   1.653  0.00  0.00    +0.105 A 
ATOM      8  N   UNL     1      -3.038  -3.496   0.538  0.00  0.00    -0.301 N 
ATOM      9  C   UNL     1      -2.458  -2.711  -0.558  0.00  0.00    +0.208 C 
ATOM     10  H   UNL     1      -3.160  -4.569   3.000  0.00  0.00    +0.167 HD
ENDROOT
BRANCH   1  14
ATOM     11  C   UNL     1      -0.018   1.503   0.010  0.00  0.00    +0.109 C 
ATOM     12  C   UNL     1       0.002  -0.004   0.002  0.00  0.00    +0.210 C 
ATOM     13  O   UNL     1       1.060  -0.596  -0.011  0.00  0.00    -0.276 OA
ATOM     14  N   UNL     1      -1.156  -0.694   0.009  0.00  0.00    -0.306 N 
ATOM     15  H   UNL     1      -2.002  -0.220   0.020  0.00  0.00    +0.149 HD
ENDBRANCH   1  14
BRANCH   9  16
ATOM     16  C   UNL     1      -2.193  -3.591  -1.752  0.00  0.00    +0.330 C 
ATOM     17  O   UNL     1      -2.186  -4.793  -1.626  0.00  0.00    -0.249 OA
BRANCH  16  18
ATOM     18  O   UNL     1      -1.964  -3.041  -2.955  0.00  0.00    -0.467 OA
ATOM     19  C   UNL     1      -1.720  -3.936  -4.042  0.00  0.00    +0.280 C 
ENDBRANCH  16  18
ENDBRANCH   9  16
BRANCH   4  20
ATOM     20  N   UNL     1       0.606  -3.031   4.667  0.00  0.00    -0.342 N 
ATOM     21  H   UNL     1       1.409  -2.504   4.532  0.00  0.00    +0.146 HD
BRANCH  20  22
ATOM     22  C   UNL     1       0.371  -3.692   5.952  0.00  0.00    +0.107 C 
BRANCH  22  23
ATOM     23  C   UNL     1       1.534  -3.394   6.900  0.00  0.00    -0.022 C 
ATOM     24  C   UNL     1       1.642  -1.883   7.116  0.00  0.00    +0.012 C 
ATOM     25  C   UNL     1       1.289  -4.084   8.243  0.00  0.00    +0.012 C 
ATOM     26  C   UNL     1       2.837  -3.915   6.289  0.00  0.00    +0.012 C 
ENDBRANCH  22  23
ENDBRANCH  20  22
ENDBRANCH   4  20
BRANCH   8  27
ATOM     27  C   UNL     1      -4.311  -4.218   0.469  0.00  0.00    +0.112 C 
BRANCH  27  28
ATOM     28  C   UNL     1      -5.445  -3.296   0.922  0.00  0.00    +0.056 C 
BRANCH  28  29
ATOM     29  C   UNL     1      -6.754  -4.038   0.852  0.00  0.00    -0.021 A 
ATOM     30  C   UNL     1      -7.316  -4.914   1.883  0.00  0.00    +0.003 A 
ATOM     31  C   UNL     1      -6.888  -5.323   3.147  0.00  0.00    +0.010 A 
ATOM     32  C   UNL     1      -7.665  -6.173   3.884  0.00  0.00    +0.001 A 
ATOM     33  C   UNL     1      -8.876  -6.632   3.385  0.00  0.00    +0.002 A 
ATOM     34  C   UNL     1      -9.317  -6.241   2.140  0.00  0.00    +0.026 A 
ATOM     35  C   UNL     1      -8.543  -5.377   1.373  0.00  0.00    +0.047 A 
ATOM     36  N   UNL     1      -8.702  -4.816   0.125  0.00  0.00    -0.360 N 
ATOM     37  C   UNL     1      -7.630  -4.018  -0.166  0.00  0.00    +0.087 A 
ATOM     38  H   UNL     1      -9.463  -4.963  -0.458  0.00  0.00    +0.165 HD
ENDBRANCH  28  29
ENDBRANCH  27  28
ENDBRANCH   8  27
TORSDOF 9
