REMARK  Name = ZINC09181900
REMARK  10 active torsions:
REMARK  status: ('A' for Active; 'I' for Inactive)
REMARK    1  A    between atoms: C_1  and  C_2
REMARK    2  A    between atoms: C_2  and  C_3
REMARK    3  A    between atoms: C_4  and  C_31
REMARK    4  A    between atoms: N_10  and  C_24
REMARK    5  A    between atoms: C_11  and  S_13
REMARK    6  A    between atoms: S_13  and  C_14
REMARK    7  A    between atoms: C_14  and  C_15
REMARK    8  A    between atoms: N_20  and  C_21
REMARK    9  A    between atoms: C_21  and  C_22
REMARK   10  A    between atoms: C_24  and  C_25
REMARK                            x       y       z     vdW  Elec       q    Type
REMARK                         _______ _______ _______ _____ _____    ______ ____
ROOT
ATOM      1  C   UNL     1       2.262   0.838  -0.015  0.00  0.00    -0.023 A 
ATOM      2  C   UNL     1       1.735   2.071  -0.003  0.00  0.00    -0.007 A 
ATOM      3  S   UNL     1      -0.022   1.770   0.012  0.00  0.00    -0.073 S 
ATOM      4  C   UNL     1       0.002  -0.004   0.002  0.00  0.00    +0.117 A 
ATOM      5  C   UNL     1       1.375  -0.313  -0.013  0.00  0.00    +0.076 A 
ATOM      6  C   UNL     1       1.700  -1.706  -0.024  0.00  0.00    +0.263 A 
ATOM      7  O   UNL     1       2.864  -2.069  -0.037  0.00  0.00    -0.267 OA
ATOM      8  N   UNL     1       0.704  -2.611  -0.020  0.00  0.00    -0.285 N 
ATOM      9  C   UNL     1      -0.605  -2.224  -0.005  0.00  0.00    +0.173 A 
ATOM     10  N   UNL     1      -0.932  -0.947   0.005  0.00  0.00    -0.216 NA
ATOM     11  C   UNL     1       2.456   3.394  -0.004  0.00  0.00    +0.052 C 
ENDROOT
BRANCH   1  13
ATOM     12  C   UNL     1       4.249   0.592  -1.479  0.00  0.00    +0.009 C 
ATOM     13  C   UNL     1       3.757   0.648  -0.031  0.00  0.00    +0.033 C 
ENDBRANCH   1  13
BRANCH   9  14
ATOM     14  S   UNL     1      -1.873  -3.446   0.000  0.00  0.00    -0.078 S 
BRANCH  14  15
ATOM     15  C   UNL     1      -3.337  -2.381   0.020  0.00  0.00    +0.173 C 
BRANCH  15  16
ATOM     16  C   UNL     1      -4.579  -3.234   0.027  0.00  0.00    +0.231 C 
ATOM     17  O   UNL     1      -4.484  -4.443   0.019  0.00  0.00    -0.274 OA
ATOM     18  N   UNL     1      -5.795  -2.653   0.042  0.00  0.00    -0.239 N 
ATOM     19  C   UNL     1      -6.906  -3.416   0.048  0.00  0.00    +0.306 C 
ATOM     20  O   UNL     1      -6.811  -4.628   0.040  0.00  0.00    -0.252 OA
ATOM     21  N   UNL     1      -8.122  -2.836   0.063  0.00  0.00    -0.296 N 
ATOM     22  H   UNL     1      -5.870  -1.686   0.048  0.00  0.00    +0.159 HD
ATOM     23  H   UNL     1      -8.198  -1.869   0.069  0.00  0.00    +0.151 HD
BRANCH  21  24
ATOM     24  C   UNL     1      -9.330  -3.665   0.070  0.00  0.00    +0.132 C 
BRANCH  24  25
ATOM     25  C   UNL     1     -10.548  -2.778   0.086  0.00  0.00    -0.016 C 
ATOM     26  C   UNL     1     -11.469  -2.913  -0.835  0.00  0.00    +0.005 C 
ENDBRANCH  24  25
ENDBRANCH  21  24
ENDBRANCH  15  16
ENDBRANCH  14  15
ENDBRANCH   9  14
BRANCH   8  27
ATOM     27  C   UNL     1       1.030  -4.039  -0.032  0.00  0.00    +0.159 C 
BRANCH  27  28
ATOM     28  C   UNL     1       1.130  -4.527  -1.479  0.00  0.00    +0.138 C 
ATOM     29  C   UNL     1       1.405  -6.052  -1.514  0.00  0.00    +0.035 C 
ATOM     30  C   UNL     1       0.837  -6.421  -2.912  0.00  0.00    +0.031 C 
ATOM     31  C   UNL     1      -0.355  -5.450  -3.048  0.00  0.00    +0.160 C 
ATOM     32  O   UNL     1      -0.128  -4.357  -2.150  0.00  0.00    -0.375 OA
ENDBRANCH  27  28
ENDBRANCH   8  27
TORSDOF 8
