REMARK  Name = ZINC38728207
REMARK  8 active torsions:
REMARK  status: ('A' for Active; 'I' for Inactive)
REMARK    1  A    between atoms: C_1  and  C_2
REMARK    2  A    between atoms: C_2  and  C_3
REMARK    3  A    between atoms: N_16  and  C_26
REMARK    4  A    between atoms: C_17  and  C_19
REMARK    5  A    between atoms: C_26  and  C_27
REMARK    6  A    between atoms: C_27  and  N_28
REMARK    7  A    between atoms: N_28  and  C_29
REMARK    8  A    between atoms: N_28  and  C_30
REMARK                            x       y       z     vdW  Elec       q    Type
REMARK                         _______ _______ _______ _____ _____    ______ ____
ROOT
ATOM      1  C   UNL     1      -0.015  -0.784  -1.908  0.00  0.00    -0.047 A 
ATOM      2  C   UNL     1      -0.612  -1.045  -3.133  0.00  0.00    +0.007 A 
ATOM      3  C   UNL     1       0.140  -1.451  -4.212  0.00  0.00    +0.047 A 
ATOM      4  C   UNL     1       1.521  -1.605  -4.083  0.00  0.00    +0.139 A 
ATOM      5  C   UNL     1       2.115  -1.333  -2.840  0.00  0.00    +0.065 A 
ATOM      6  C   UNL     1       1.337  -0.921  -1.758  0.00  0.00    +0.019 A 
ATOM      7  C   UNL     1       3.586  -1.479  -2.698  0.00  0.00    +0.199 A 
ATOM      8  O   UNL     1       4.160  -1.428  -1.625  0.00  0.00    -0.287 OA
ATOM      9  C   UNL     1       4.280  -1.691  -3.972  0.00  0.00    +0.072 A 
ATOM     10  C   UNL     1       3.584  -1.939  -5.121  0.00  0.00    +0.199 A 
ATOM     11  O   UNL     1       2.239  -2.013  -5.154  0.00  0.00    -0.450 OA
ATOM     12  C   UNL     1       4.551  -2.097  -6.222  0.00  0.00    +0.283 C 
ATOM     13  O   UNL     1       4.257  -2.323  -7.379  0.00  0.00    -0.267 OA
ATOM     14  N   UNL     1       5.809  -1.953  -5.758  0.00  0.00    -0.285 N 
ATOM     15  C   UNL     1       5.735  -1.689  -4.312  0.00  0.00    +0.147 C 
ENDROOT
BRANCH  15  16
ATOM     16  C   UNL     1       6.341  -0.346  -3.996  0.00  0.00    +0.013 A 
ATOM     17  C   UNL     1       6.404   0.630  -4.972  0.00  0.00    +0.008 A 
ATOM     18  C   UNL     1       6.961   1.862  -4.683  0.00  0.00    +0.001 A 
ATOM     19  C   UNL     1       7.455   2.119  -3.417  0.00  0.00    +0.003 A 
ATOM     20  C   UNL     1       7.392   1.144  -2.440  0.00  0.00    +0.039 A 
ATOM     21  C   UNL     1       6.830  -0.088  -2.727  0.00  0.00    +0.129 A 
ATOM     22  F   UNL     1       6.764  -1.041  -1.771  0.00  0.00    -0.205 F 
ENDBRANCH  15  16
BRANCH   1  24
ATOM     23  C   UNL     1      -0.962   1.183  -0.732  0.00  0.00    +0.009 C 
ATOM     24  C   UNL     1      -0.858  -0.344  -0.739  0.00  0.00    +0.032 C 
ENDBRANCH   1  24
BRANCH  14  25
ATOM     25  C   UNL     1       7.035  -2.044  -6.555  0.00  0.00    +0.090 C 
BRANCH  25  26
ATOM     26  C   UNL     1       7.508  -3.498  -6.600  0.00  0.00    -0.060 C 
BRANCH  26  27
ATOM     27  N   UNL     1       8.666  -3.610  -7.496  0.00  0.00    +0.377 N 
ATOM     28  C   UNL     1       9.793  -2.852  -6.936  0.00  0.00    -0.097 C 
ATOM     29  C   UNL     1       9.046  -5.022  -7.633  0.00  0.00    -0.097 C 
ATOM     30  H   UNL     1       8.428  -3.236  -8.402  0.00  0.00    -0.083 HD
ENDBRANCH  26  27
ENDBRANCH  25  26
ENDBRANCH  14  25
TORSDOF 5
