REMARK  Name = ZINC36026378
REMARK  6 active torsions:
REMARK  status: ('A' for Active; 'I' for Inactive)
REMARK    1  A    between atoms: C_4  and  C_7
REMARK    2  A    between atoms: C_7  and  C_8
REMARK    3  A    between atoms: N_12  and  C_29
REMARK    4  A    between atoms: C_20  and  C_22
REMARK    5  A    between atoms: C_29  and  C_30
REMARK    6  A    between atoms: C_30  and  C_31
REMARK                            x       y       z     vdW  Elec       q    Type
REMARK                         _______ _______ _______ _____ _____    ______ ____
ROOT
ATOM      1  C   UNL     1       4.163  -0.315   0.861  0.00  0.00    +0.023 C 
ATOM      2  C   UNL     1       5.306  -1.282   1.081  0.00  0.00    +0.201 C 
ATOM      3  O   UNL     1       5.492  -2.311   0.467  0.00  0.00    -0.277 OA
ATOM      4  N   UNL     1       6.083  -0.806   2.076  0.00  0.00    -0.313 N 
ATOM      5  C   UNL     1       5.527   0.457   2.570  0.00  0.00    +0.006 C 
ATOM      6  N   UNL     1       4.589   0.937   1.531  0.00  0.00    +0.401 N 
ATOM      7  C   UNL     1       4.772   0.226   3.877  0.00  0.00    +0.025 C 
ATOM      8  C   UNL     1       5.742  -0.309   4.936  0.00  0.00    +0.108 C 
ATOM      9  N   UNL     1       6.882   0.612   5.041  0.00  0.00    -0.298 N 
ATOM     10  C   UNL     1       7.628   0.956   3.823  0.00  0.00    +0.108 C 
ATOM     11  C   UNL     1       6.642   1.481   2.774  0.00  0.00    +0.025 C 
ATOM     12  C   UNL     1       7.237   1.131   6.233  0.00  0.00    +0.247 C 
ATOM     13  O   UNL     1       8.116   1.968   6.294  0.00  0.00    -0.270 OA
ATOM     14  H   UNL     1       5.060   1.548   0.880  0.00  0.00    -0.082 HD
ATOM     15  H   UNL     1       3.798   1.403   1.951  0.00  0.00    -0.082 HD
ENDROOT
BRANCH  12  16
ATOM     16  C   UNL     1       6.559   0.681   7.467  0.00  0.00    +0.037 A 
ATOM     17  C   UNL     1       6.263  -0.671   7.651  0.00  0.00    +0.014 A 
ATOM     18  C   UNL     1       5.630  -1.084   8.804  0.00  0.00    +0.021 A 
ATOM     19  C   UNL     1       5.287  -0.161   9.778  0.00  0.00    +0.041 A 
ATOM     20  C   UNL     1       5.577   1.182   9.601  0.00  0.00    +0.021 A 
ATOM     21  C   UNL     1       6.215   1.606   8.454  0.00  0.00    +0.014 A 
ATOM     22 CL   UNL     1       4.489  -0.689  11.227  0.00  0.00    -0.084 Cl
ENDBRANCH  12  16
BRANCH   1  23
ATOM     23  C   UNL     1       3.951  -0.073  -0.635  0.00  0.00    +0.028 C 
BRANCH  23  27
ATOM     24  C   UNL     1       0.626   2.550  -1.198  0.00  0.00    +0.000 A 
ATOM     25  C   UNL     1       1.900   3.069  -1.058  0.00  0.00    +0.000 A 
ATOM     26  C   UNL     1       2.976   2.220  -0.875  0.00  0.00    +0.003 A 
ATOM     27  C   UNL     1       2.778   0.853  -0.833  0.00  0.00    -0.048 A 
ATOM     28  C   UNL     1       1.504   0.334  -0.973  0.00  0.00    +0.003 A 
ATOM     29  C   UNL     1       0.429   1.182  -1.157  0.00  0.00    +0.000 A 
ENDBRANCH  23  27
ENDBRANCH   1  23
BRANCH   4  30
ATOM     30  C   UNL     1       7.295  -1.453   2.585  0.00  0.00    +0.112 C 
BRANCH  30  31
ATOM     31  C   UNL     1       8.502  -0.993   1.764  0.00  0.00    +0.074 C 
BRANCH  31  32
ATOM     32  C   UNL     1       9.763  -1.557   2.366  0.00  0.00    +0.043 A 
ATOM     33  C   UNL     1      10.626  -2.294   1.577  0.00  0.00    +0.023 A 
ATOM     34  C   UNL     1      11.783  -2.808   2.140  0.00  0.00    +0.003 A 
ATOM     35  C   UNL     1      12.031  -2.560   3.482  0.00  0.00    +0.020 A 
ATOM     36  C   UNL     1      11.123  -1.814   4.207  0.00  0.00    +0.111 A 
ATOM     37  N   UNL     1      10.034  -1.336   3.637  0.00  0.00    -0.260 NA
ENDBRANCH  31  32
ENDBRANCH  30  31
ENDBRANCH   4  30
TORSDOF 6
