REMARK  Name = ZINC15226910
REMARK  6 active torsions:
REMARK  status: ('A' for Active; 'I' for Inactive)
REMARK    1  A    between atoms: C_1  and  O_2
REMARK    2  A    between atoms: O_2  and  C_3
REMARK    3  A    between atoms: C_6  and  C_9
REMARK    4  A    between atoms: C_12  and  C_14
REMARK    5  A    between atoms: C_12  and  O_18
REMARK    6  A    between atoms: C_22  and  N_23
REMARK                            x       y       z     vdW  Elec       q    Type
REMARK                         _______ _______ _______ _____ _____    ______ ____
ROOT
ATOM      1  C   UNL     1       2.491  -2.491  -4.360  0.00  0.00    +0.071 C 
ATOM      2  N   UNL     1       3.053  -1.877  -5.345  0.00  0.00    -0.178 NA
ATOM      3  N   UNL     1       3.600  -2.725  -6.305  0.00  0.00    -0.150 N 
ATOM      4  C   UNL     1       3.368  -4.120  -5.897  0.00  0.00    +0.257 C 
ATOM      5  C   UNL     1       2.613  -3.985  -4.560  0.00  0.00    +0.124 C 
ATOM      6  C   UNL     1       4.255  -2.323  -7.454  0.00  0.00    +0.243 C 
ATOM      7  N   UNL     1       4.715  -3.216  -8.271  0.00  0.00    -0.145 NA
ATOM      8  N   UNL     1       5.412  -2.864  -9.427  0.00  0.00    -0.223 N 
ATOM      9  C   UNL     1       6.624  -2.212  -9.347  0.00  0.00    +0.089 C 
ATOM     10  C   UNL     1       6.707  -0.993  -8.794  0.00  0.00    +0.087 C 
ATOM     11  C   UNL     1       5.488  -0.338  -8.298  0.00  0.00    +0.166 A 
ATOM     12  N   UNL     1       4.405  -0.957  -7.716  0.00  0.00    -0.251 N 
ATOM     13  C   UNL     1       3.509   0.037  -7.436  0.00  0.00    +0.232 A 
ATOM     14  N   UNL     1       4.044   1.162  -7.828  0.00  0.00    -0.137 NA
ATOM     15  N   UNL     1       5.219   0.949  -8.331  0.00  0.00    -0.130 NA
ATOM     16  H   UNL     1       5.041  -3.082 -10.296  0.00  0.00    +0.176 HD
ENDROOT
BRANCH   1  20
ATOM     17  C   UNL     1       0.606  -0.607  -1.056  0.00  0.00    +0.120 A 
ATOM     18  C   UNL     1       1.172   0.165  -2.062  0.00  0.00    +0.046 A 
ATOM     19  C   UNL     1       1.786  -0.442  -3.136  0.00  0.00    +0.013 A 
ATOM     20  C   UNL     1       1.837  -1.837  -3.212  0.00  0.00    -0.002 A 
ATOM     21  C   UNL     1       1.265  -2.609  -2.198  0.00  0.00    +0.013 A 
ATOM     22  C   UNL     1       0.659  -1.993  -1.124  0.00  0.00    +0.046 A 
BRANCH  17  24
ATOM     23  C   UNL     1      -0.017   1.425   0.010  0.00  0.00    +0.277 C 
ATOM     24  O   UNL     1       0.002  -0.004   0.002  0.00  0.00    -0.495 OA
ENDBRANCH  17  24
ENDBRANCH   1  20
BRANCH   4  25
ATOM     25  C   UNL     1       2.511  -4.849  -6.934  0.00  0.00    +0.438 C 
ATOM     26  F   UNL     1       3.182  -4.870  -8.161  0.00  0.00    -0.166 F 
ATOM     27  F   UNL     1       2.277  -6.160  -6.507  0.00  0.00    -0.166 F 
ATOM     28  F   UNL     1       1.290  -4.181  -7.082  0.00  0.00    -0.166 F 
ENDBRANCH   4  25
BRANCH   9  29
ATOM     29  N   UNL     1       7.776  -2.826  -9.848  0.00  0.00    -0.404 NA
ATOM     30  H   UNL     1       7.537  -3.731 -10.226  0.00  0.00    +0.122 HD
ATOM     31  H   UNL     1       8.174  -2.251 -10.576  0.00  0.00    +0.122 HD
ATOM     32  H   UNL     1       8.447  -2.939  -9.104  0.00  0.00    +0.122 HD
ENDBRANCH   9  29
BRANCH   4  33
ATOM     33  O   UNL     1       4.609  -4.800  -5.701  0.00  0.00    -0.363 OA
ATOM     34  H   UNL     1       5.158  -4.854  -6.496  0.00  0.00    +0.212 HD
ENDBRANCH   4  33
TORSDOF 5
