REMARK  Name = ZINC64131396
REMARK  6 active torsions:
REMARK  status: ('A' for Active; 'I' for Inactive)
REMARK    1  A    between atoms: C_2  and  C_3
REMARK    2  A    between atoms: C_3  and  N_4
REMARK    3  A    between atoms: N_4  and  C_5
REMARK    4  A    between atoms: N_4  and  S_12
REMARK    5  A    between atoms: C_5  and  C_6
REMARK    6  A    between atoms: S_12  and  C_15
REMARK                            x       y       z     vdW  Elec       q    Type
REMARK                         _______ _______ _______ _____ _____    ______ ____
ROOT
ATOM      1  S   UNL     1       2.089  -1.224   2.532  0.00  0.00    +0.061 S 
ATOM      2  O   UNL     1       2.484  -2.422   3.186  0.00  0.00    -0.153 OA
ATOM      3  O   UNL     1       3.012  -0.193   2.209  0.00  0.00    -0.153 OA
ENDROOT
BRANCH   1   4
ATOM      4  C   UNL     1       0.844  -0.488   3.538  0.00  0.00    +0.107 A 
ATOM      5  C   UNL     1       0.611   0.948   3.437  0.00  0.00    +0.030 A 
ATOM      6  C   UNL     1      -0.328   1.574   4.179  0.00  0.00    +0.027 A 
ATOM      7  C   UNL     1      -1.142   0.801   5.115  0.00  0.00    +0.056 A 
ATOM      8  N   UNL     1      -2.104   1.086   5.956  0.00  0.00    -0.268 N 
ATOM      9  C   UNL     1      -2.493  -0.076   6.580  0.00  0.00    +0.308 C 
ATOM     10  O   UNL     1      -3.366  -0.159   7.418  0.00  0.00    -0.252 OA
ATOM     11  N   UNL     1      -1.744  -1.130   6.112  0.00  0.00    -0.267 N 
ATOM     12  C   UNL     1      -0.902  -0.674   5.219  0.00  0.00    +0.058 A 
ATOM     13  C   UNL     1       0.131  -1.272   4.375  0.00  0.00    +0.053 A 
ATOM     14  H   UNL     1      -1.826  -2.054   6.395  0.00  0.00    +0.156 HD
ATOM     15  H   UNL     1      -2.479   1.967   6.112  0.00  0.00    +0.156 HD
ENDBRANCH   1   4
BRANCH   1  16
ATOM     16  N   UNL     1       1.367  -1.676   1.111  0.00  0.00    -0.168 NA
BRANCH  16  17
ATOM     17  C   UNL     1       1.317  -0.740  -0.015  0.00  0.00    +0.136 C 
BRANCH  17  19
ATOM     18  C   UNL     1      -0.016   1.306   0.009  0.00  0.00    +0.005 C 
ATOM     19  C   UNL     1       0.002  -0.004   0.002  0.00  0.00    -0.018 C 
ENDBRANCH  17  19
ENDBRANCH  16  17
BRANCH  16  20
ATOM     20  C   UNL     1       0.779  -3.011   0.981  0.00  0.00    +0.152 C 
BRANCH  20  21
ATOM     21  C   UNL     1       1.782  -3.942   0.349  0.00  0.00    +0.007 A 
ATOM     22  C   UNL     1       2.711  -4.727   0.947  0.00  0.00    +0.014 A 
ATOM     23  C   UNL     1       3.534  -5.510   0.159  0.00  0.00    +0.028 A 
ATOM     24  C   UNL     1       3.388  -5.468  -1.189  0.00  0.00    +0.078 A 
ATOM     25  S   UNL     1       2.049  -4.302  -1.379  0.00  0.00    -0.080 S 
ATOM     26 CL   UNL     1       4.269  -6.329  -2.413  0.00  0.00    -0.076 Cl
ENDBRANCH  20  21
ENDBRANCH  16  20
ENDBRANCH   1  16
TORSDOF 6
