REMARK  Name = ZINC21084957
REMARK  9 active torsions:
REMARK  status: ('A' for Active; 'I' for Inactive)
REMARK    1  A    between atoms: C_1  and  C_2
REMARK    2  A    between atoms: C_9  and  C_12
REMARK    3  A    between atoms: C_12  and  S_13
REMARK    4  A    between atoms: S_13  and  C_14
REMARK    5  A    between atoms: N_19  and  N_20
REMARK    6  A    between atoms: C_21  and  C_22
REMARK    7  A    between atoms: C_27  and  O_28
REMARK    8  A    between atoms: O_28  and  C_29
REMARK    9  A    between atoms: C_29  and  C_30
REMARK                            x       y       z     vdW  Elec       q    Type
REMARK                         _______ _______ _______ _____ _____    ______ ____
ROOT
ATOM      1  C   UNL     1      -8.224   2.021   0.050  0.00  0.00    +0.210 A 
ATOM      2  N   UNL     1      -7.308   1.007   0.036  0.00  0.00    -0.186 NA
ATOM      3  C   UNL     1      -6.060   1.566   0.035  0.00  0.00    +0.232 A 
ATOM      4  N   UNL     1      -6.199   2.869   0.051  0.00  0.00    -0.245 N 
ATOM      5  N   UNL     1      -7.570   3.158   0.055  0.00  0.00    -0.144 NA
ATOM      6  N   UNL     1      -4.857   0.874   0.023  0.00  0.00    -0.205 N 
ATOM      7  H   UNL     1      -4.855  -0.226   0.015  0.00  0.00    +0.177 HD
ATOM      8  H   UNL     1      -5.311   3.517   0.059  0.00  0.00    +0.192 HD
ENDROOT
BRANCH   6   9
ATOM      9  N   UNL     1      -3.645   1.577   0.023  0.00  0.00    -0.187 NA
ATOM     10  C   UNL     1      -2.519   0.930   0.012  0.00  0.00    +0.142 C 
BRANCH  10  11
ATOM     11  C   UNL     1      -1.244   1.669   0.011  0.00  0.00    +0.036 A 
ATOM     12  C   UNL     1      -0.031   0.977   0.000  0.00  0.00    +0.013 A 
ATOM     13  C   UNL     1       1.158   1.675  -0.006  0.00  0.00    +0.001 A 
ATOM     14  C   UNL     1       1.155   3.059   0.005  0.00  0.00    +0.004 A 
ATOM     15  C   UNL     1      -0.039   3.756   0.022  0.00  0.00    +0.046 A 
ATOM     16  C   UNL     1      -1.242   3.071   0.028  0.00  0.00    +0.130 A 
BRANCH  16  17
ATOM     17  O   UNL     1      -2.416   3.754   0.044  0.00  0.00    -0.487 OA
BRANCH  17  18
ATOM     18  C   UNL     1      -2.336   5.181   0.054  0.00  0.00    +0.264 C 
BRANCH  18  19
ATOM     19  C   UNL     1      -3.726   5.762   0.072  0.00  0.00    -0.010 A 
ATOM     20  C   UNL     1      -4.373   6.043  -1.117  0.00  0.00    +0.008 A 
ATOM     21  C   UNL     1      -5.650   6.571  -1.102  0.00  0.00    +0.020 A 
ATOM     22  C   UNL     1      -6.277   6.829   0.104  0.00  0.00    +0.041 A 
ATOM     23  C   UNL     1      -5.627   6.553   1.294  0.00  0.00    +0.020 A 
ATOM     24  C   UNL     1      -4.352   6.019   1.277  0.00  0.00    +0.008 A 
ATOM     25 CL   UNL     1      -7.879   7.497   0.125  0.00  0.00    -0.084 Cl
ENDBRANCH  18  19
ENDBRANCH  17  18
ENDBRANCH  16  17
ENDBRANCH  10  11
ENDBRANCH   6   9
BRANCH   1  26
ATOM     26  S   UNL     1      -9.976   1.833   0.057  0.00  0.00    -0.077 S 
BRANCH  26  27
ATOM     27  C   UNL     1     -10.600   3.537   0.074  0.00  0.00    +0.151 C 
BRANCH  27  36
ATOM     28  C   UNL     1     -17.848   3.432  -1.438  0.00  0.00    +0.044 C 
ATOM     29  C   UNL     1     -16.556   3.451  -0.661  0.00  0.00    -0.048 A 
ATOM     30  C   UNL     1     -16.588   3.443   0.726  0.00  0.00    +0.005 A 
ATOM     31  C   UNL     1     -15.417   3.459   1.453  0.00  0.00    +0.030 A 
ATOM     32  C   UNL     1     -14.197   3.486   0.790  0.00  0.00    +0.089 A 
ATOM     33  C   UNL     1     -14.165   3.494  -0.615  0.00  0.00    +0.066 A 
ATOM     34  C   UNL     1     -15.365   3.476  -1.330  0.00  0.00    +0.031 A 
ATOM     35  N   UNL     1     -12.857   3.520  -0.980  0.00  0.00    -0.341 N 
ATOM     36  C   UNL     1     -12.107   3.520   0.082  0.00  0.00    +0.118 A 
ATOM     37  N   UNL     1     -12.880   3.507   1.201  0.00  0.00    -0.232 NA
ATOM     38  H   UNL     1     -12.397   3.539  -1.979  0.00  0.00    +0.167 HD
ENDBRANCH  27  36
ENDBRANCH  26  27
ENDBRANCH   1  26
TORSDOF 8
