REMARK  Name = ZINC09323308
REMARK  12 active torsions:
REMARK  status: ('A' for Active; 'I' for Inactive)
REMARK    1  A    between atoms: C_1  and  C_2
REMARK    2  A    between atoms: C_2  and  N_58
REMARK    3  A    between atoms: C_3  and  C_4
REMARK    4  A    between atoms: C_3  and  N_58
REMARK    5  A    between atoms: C_5  and  C_6
REMARK    6  A    between atoms: C_5  and  N_58
REMARK    7  A    between atoms: C_6  and  N_7
REMARK    8  A    between atoms: C_12  and  C_18
REMARK    9  A    between atoms: C_13  and  C_17
REMARK   10  A    between atoms: C_19  and  C_21
REMARK   11  A    between atoms: C_21  and  S_22
REMARK   12  A    between atoms: S_22  and  C_23
REMARK                            x       y       z     vdW  Elec       q    Type
REMARK                         _______ _______ _______ _____ _____    ______ ____
ROOT
ATOM      1  N   UNL     1      -5.315   3.992   6.314  0.00  0.00    -0.252 N 
ATOM      2  C   UNL     1      -4.191   3.713   5.553  0.00  0.00    +0.168 A 
ATOM      3  N   UNL     1      -2.931   3.705   5.920  0.00  0.00    -0.224 NA
ATOM      4  C   UNL     1      -1.928   3.411   5.064  0.00  0.00    +0.081 A 
ATOM      5  C   UNL     1      -0.539   3.367   5.328  0.00  0.00    +0.032 A 
ATOM      6  C   UNL     1       0.352   3.048   4.338  0.00  0.00    -0.045 A 
ATOM      7  C   UNL     1      -0.070   2.759   3.048  0.00  0.00    -0.046 A 
ATOM      8  C   UNL     1      -1.420   2.799   2.752  0.00  0.00    +0.021 A 
ATOM      9  C   UNL     1      -2.321   3.112   3.740  0.00  0.00    +0.041 A 
ATOM     10  S   UNL     1      -4.088   3.273   3.824  0.00  0.00    -0.052 S 
ATOM     11  C   UNL     1       0.933   2.412   1.978  0.00  0.00    +0.044 C 
ATOM     12  C   UNL     1       1.825   3.010   4.656  0.00  0.00    +0.044 C 
ATOM     13  C   UNL     1      -5.186   4.306   7.618  0.00  0.00    +0.231 C 
ATOM     14  O   UNL     1      -4.085   4.346   8.126  0.00  0.00    -0.274 OA
ENDROOT
BRANCH   1  15
ATOM     15  C   UNL     1      -6.645   3.944   5.700  0.00  0.00    +0.097 C 
BRANCH  15  16
ATOM     16  C   UNL     1      -7.218   2.532   5.834  0.00  0.00    -0.059 C 
BRANCH  16  17
ATOM     17  N   UNL     1      -8.567   2.506   5.230  0.00  0.00    +0.380 N 
ATOM     18  H   UNL     1      -9.125   3.271   5.627  0.00  0.00    -0.082 HD
BRANCH  17  20
ATOM     19  C   UNL     1      -7.641   1.569   3.138  0.00  0.00    -0.017 C 
ATOM     20  C   UNL     1      -8.469   2.692   3.767  0.00  0.00    -0.082 C 
ENDBRANCH  17  20
BRANCH  17  21
ATOM     21  C   UNL     1      -9.231   1.221   5.533  0.00  0.00    -0.082 C 
ATOM     22  C   UNL     1     -10.721   1.350   5.212  0.00  0.00    -0.017 C 
ENDBRANCH  17  21
ENDBRANCH  16  17
ENDBRANCH  15  16
ENDBRANCH   1  15
BRANCH  13  23
ATOM     23  C   UNL     1      -6.408   4.609   8.445  0.00  0.00    +0.170 C 
BRANCH  23  24
ATOM     24  S   UNL     1      -5.908   4.993  10.146  0.00  0.00    -0.116 S 
BRANCH  24  25
ATOM     25  C   UNL     1      -7.428   5.320  10.974  0.00  0.00    +0.009 A 
ATOM     26  C   UNL     1      -8.629   5.248  10.279  0.00  0.00    +0.017 A 
ATOM     27  C   UNL     1      -9.820   5.500  10.931  0.00  0.00    +0.039 A 
ATOM     28  C   UNL     1      -9.817   5.834  12.275  0.00  0.00    +0.123 A 
ATOM     29  C   UNL     1      -8.621   5.912  12.969  0.00  0.00    +0.039 A 
ATOM     30  C   UNL     1      -7.428   5.656  12.322  0.00  0.00    +0.017 A 
ATOM     31  F   UNL     1     -10.983   6.084  12.910  0.00  0.00    -0.205 F 
ENDBRANCH  24  25
ENDBRANCH  23  24
ENDBRANCH  13  23
TORSDOF 8
