REMARK  Name = ZINC21237626
REMARK  5 active torsions:
REMARK  status: ('A' for Active; 'I' for Inactive)
REMARK    1  A    between atoms: N_9  and  C_12
REMARK    2  A    between atoms: C_12  and  O_13
REMARK    3  A    between atoms: O_13  and  C_14
REMARK    4  A    between atoms: C_14  and  C_16
REMARK    5  A    between atoms: C_22  and  C_24
REMARK                            x       y       z     vdW  Elec       q    Type
REMARK                         _______ _______ _______ _____ _____    ______ ____
ROOT
ATOM      1  C   UNL     1       5.328   1.137  -1.289  0.00  0.00    +0.329 C 
ATOM      2  O   UNL     1       4.580   1.172  -2.236  0.00  0.00    -0.249 OA
ENDROOT
BRANCH   1   3
ATOM      3  C   UNL     1       4.993   1.903  -0.035  0.00  0.00    +0.185 C 
ATOM      4  C   UNL     1       5.772   3.235  -0.009  0.00  0.00    +0.035 C 
ATOM      5  C   UNL     1       4.742   4.229   0.590  0.00  0.00    +0.021 C 
ATOM      6  C   UNL     1       3.415   3.702  -0.017  0.00  0.00    +0.109 C 
ATOM      7  N   UNL     1       3.561   2.235  -0.020  0.00  0.00    -0.284 N 
ATOM      8  C   UNL     1       2.548   1.345  -0.015  0.00  0.00    +0.254 C 
ATOM      9  O   UNL     1       2.787   0.152  -0.023  0.00  0.00    -0.269 OA
BRANCH   8  10
ATOM     10  C   UNL     1       1.160   1.815   0.001  0.00  0.00    +0.074 A 
ATOM     11  C   UNL     1      -0.013   1.076   0.008  0.00  0.00    +0.021 A 
ATOM     12  C   UNL     1      -1.193   1.776   0.017  0.00  0.00    +0.008 A 
ATOM     13  C   UNL     1      -1.159   3.135   0.030  0.00  0.00    +0.046 A 
ATOM     14  S   UNL     1       0.539   3.487   0.016  0.00  0.00    -0.092 S 
ENDBRANCH   8  10
ENDBRANCH   1   3
BRANCH   1  15
ATOM     15  O   UNL     1       6.459   0.416  -1.353  0.00  0.00    -0.443 OA
BRANCH  15  16
ATOM     16  C   UNL     1       6.718  -0.295  -2.591  0.00  0.00    +0.352 C 
BRANCH  16  25
ATOM     17  C   UNL     1       9.598   3.264  -6.598  0.00  0.00    +0.001 A 
ATOM     18  C   UNL     1       8.340   3.809  -6.779  0.00  0.00    +0.001 A 
ATOM     19  C   UNL     1       7.256   3.329  -6.061  0.00  0.00    +0.014 A 
ATOM     20  C   UNL     1       7.435   2.295  -5.156  0.00  0.00    +0.049 A 
ATOM     21  C   UNL     1       8.717   1.739  -4.971  0.00  0.00    +0.049 A 
ATOM     22  C   UNL     1       9.792   2.230  -5.696  0.00  0.00    +0.014 A 
ATOM     23  C   UNL     1       8.556   0.679  -3.954  0.00  0.00    +0.256 C 
ATOM     24  O   UNL     1       9.441  -0.033  -3.525  0.00  0.00    -0.269 OA
ATOM     25  N   UNL     1       7.263   0.634  -3.584  0.00  0.00    -0.199 N 
ATOM     26  C   UNL     1       6.537   1.550  -4.249  0.00  0.00    +0.256 C 
ATOM     27  O   UNL     1       5.343   1.736  -4.123  0.00  0.00    -0.269 OA
ENDBRANCH  16  25
ENDBRANCH  15  16
ENDBRANCH   1  15
TORSDOF 5
