REMARK  Name = ZINC35795122
REMARK  15 active torsions:
REMARK  status: ('A' for Active; 'I' for Inactive)
REMARK    1  A    between atoms: C_1  and  C_2
REMARK    2  A    between atoms: C_2  and  C_3
REMARK    3  A    between atoms: C_3  and  C_5
REMARK    4  A    between atoms: C_3  and  C_6
REMARK    5  A    between atoms: C_6  and  N_7
REMARK    6  A    between atoms: N_7  and  C_8
REMARK    7  A    between atoms: C_8  and  C_9
REMARK    8  A    between atoms: N_11  and  C_12
REMARK    9  A    between atoms: N_11  and  C_19
REMARK   10  A    between atoms: C_12  and  C_13
REMARK   11  A    between atoms: C_19  and  C_20
REMARK   12  A    between atoms: C_25  and  C_27
REMARK   13  A    between atoms: C_27  and  O_28
REMARK   14  A    between atoms: O_28  and  C_29
REMARK   15  A    between atoms: C_29  and  C_30
REMARK                            x       y       z     vdW  Elec       q    Type
REMARK                         _______ _______ _______ _____ _____    ______ ____
ROOT
ATOM      1  N   UNL     1       1.210  -2.487  -2.591  0.00  0.00    -0.291 N 
ATOM      2  C   UNL     1       0.432  -2.616  -3.684  0.00  0.00    +0.242 C 
ATOM      3  O   UNL     1       0.912  -3.000  -4.729  0.00  0.00    -0.273 OA
ENDROOT
BRANCH   1   4
ATOM      4  C   UNL     1       0.630  -2.023  -1.329  0.00  0.00    +0.111 C 
BRANCH   4   5
ATOM      5  C   UNL     1       0.718  -0.497  -1.257  0.00  0.00    +0.003 C 
ATOM      6  C   UNL     1       2.187  -0.073  -1.207  0.00  0.00    +0.009 C 
BRANCH   5   8
ATOM      7  C   UNL     1      -0.019   1.526   0.010  0.00  0.00    +0.004 C 
ATOM      8  C   UNL     1       0.002  -0.004   0.002  0.00  0.00    +0.001 C 
ENDBRANCH   5   8
ENDBRANCH   4   5
ENDBRANCH   1   4
BRANCH   1   9
ATOM      9  C   UNL     1       2.637  -2.810  -2.667  0.00  0.00    +0.203 C 
BRANCH   9  10
ATOM     10  C   UNL     1       2.841  -4.265  -2.330  0.00  0.00    +0.234 C 
ATOM     11  O   UNL     1       1.888  -4.963  -2.055  0.00  0.00    -0.274 OA
ATOM     12  N   UNL     1       4.082  -4.791  -2.336  0.00  0.00    -0.291 N 
BRANCH  12  13
ATOM     13  C   UNL     1       4.280  -6.205  -2.009  0.00  0.00    +0.143 C 
BRANCH  13  14
ATOM     14  C   UNL     1       4.199  -7.028  -3.269  0.00  0.00    -0.030 A 
ATOM     15  C   UNL     1       2.981  -7.529  -3.690  0.00  0.00    +0.005 A 
ATOM     16  C   UNL     1       2.907  -8.284  -4.845  0.00  0.00    +0.000 A 
ATOM     17  C   UNL     1       4.050  -8.538  -5.580  0.00  0.00    +0.000 A 
ATOM     18  C   UNL     1       5.267  -8.036  -5.160  0.00  0.00    +0.000 A 
ATOM     19  C   UNL     1       5.341  -7.277  -4.006  0.00  0.00    +0.005 A 
ENDBRANCH  13  14
ENDBRANCH  12  13
BRANCH  12  20
ATOM     20  C   UNL     1       5.233  -3.948  -2.669  0.00  0.00    +0.150 C 
BRANCH  20  21
ATOM     21  C   UNL     1       5.777  -3.321  -1.411  0.00  0.00    +0.007 A 
ATOM     22  C   UNL     1       6.731  -3.787  -0.569  0.00  0.00    +0.013 A 
ATOM     23  C   UNL     1       7.075  -3.032   0.537  0.00  0.00    +0.008 A 
ATOM     24  C   UNL     1       6.449  -1.849   0.747  0.00  0.00    +0.045 A 
ATOM     25  S   UNL     1       5.338  -1.767  -0.649  0.00  0.00    -0.100 S 
ENDBRANCH  20  21
ENDBRANCH  12  20
ENDBRANCH   9  10
ENDBRANCH   1   9
BRANCH   2  26
ATOM     26  C   UNL     1      -1.036  -2.283  -3.606  0.00  0.00    +0.256 C 
BRANCH  26  27
ATOM     27  O   UNL     1      -1.642  -2.499  -4.882  0.00  0.00    -0.366 OA
BRANCH  27  28
ATOM     28  C   UNL     1      -3.041  -2.211  -4.918  0.00  0.00    +0.195 C 
BRANCH  28  29
ATOM     29  C   UNL     1      -3.572  -2.472  -6.304  0.00  0.00    -0.022 A 
ATOM     30  C   UNL     1      -3.570  -1.460  -7.246  0.00  0.00    +0.006 A 
ATOM     31  C   UNL     1      -4.058  -1.700  -8.518  0.00  0.00    +0.000 A 
ATOM     32  C   UNL     1      -4.547  -2.950  -8.847  0.00  0.00    +0.000 A 
ATOM     33  C   UNL     1      -4.548  -3.962  -7.904  0.00  0.00    +0.000 A 
ATOM     34  C   UNL     1      -4.057  -3.724  -6.634  0.00  0.00    +0.006 A 
ENDBRANCH  28  29
ENDBRANCH  27  28
ENDBRANCH  26  27
ENDBRANCH   2  26
TORSDOF 13
