REMARK  Name = ZINC24641228
REMARK  11 active torsions:
REMARK  status: ('A' for Active; 'I' for Inactive)
REMARK    1  A    between atoms: C_1  and  C_2
REMARK    2  A    between atoms: C_6  and  C_33
REMARK    3  A    between atoms: C_7  and  N_8
REMARK    4  A    between atoms: C_9  and  C_11
REMARK    5  A    between atoms: C_11  and  N_12
REMARK    6  A    between atoms: C_13  and  C_15
REMARK    7  A    between atoms: C_15  and  C_17
REMARK    8  A    between atoms: C_15  and  O_18
REMARK    9  A    between atoms: O_18  and  C_19
REMARK   10  A    between atoms: C_19  and  C_21
REMARK   11  A    between atoms: C_22  and  C_23
REMARK                            x       y       z     vdW  Elec       q    Type
REMARK                         _______ _______ _______ _____ _____    ______ ____
ROOT
ATOM      1  N   UNL     1     -11.474   0.282   0.241  0.00  0.00    -0.304 N 
ATOM      2  C   UNL     1     -10.295   0.895   0.466  0.00  0.00    +0.254 C 
ATOM      3  O   UNL     1      -9.766   1.536  -0.418  0.00  0.00    -0.272 OA
ATOM      4  H   UNL     1     -11.954  -0.299   1.043  0.00  0.00    +0.149 HD
ENDROOT
BRANCH   2   5
ATOM      5  C   UNL     1      -9.634   0.785   1.816  0.00  0.00    +0.259 C 
ATOM      6  C   UNL     1     -10.561   1.363   2.887  0.00  0.00    +0.062 C 
BRANCH   5   7
ATOM      7  O   UNL     1      -8.405   1.515   1.805  0.00  0.00    -0.449 OA
BRANCH   7   8
ATOM      8  C   UNL     1      -7.419   1.066   2.610  0.00  0.00    +0.333 C 
ATOM      9  O   UNL     1      -7.599   0.081   3.301  0.00  0.00    -0.246 OA
BRANCH   8  10
ATOM     10  C   UNL     1      -6.173   1.742   2.649  0.00  0.00    +0.092 C 
ATOM     11  C   UNL     1      -5.186   1.292   3.454  0.00  0.00    +0.015 C 
BRANCH  11  12
ATOM     12  C   UNL     1      -3.895   1.993   3.495  0.00  0.00    -0.021 A 
ATOM     13  C   UNL     1      -3.685   3.126   2.701  0.00  0.00    +0.012 A 
ATOM     14  C   UNL     1      -2.473   3.777   2.739  0.00  0.00    +0.050 A 
ATOM     15  C   UNL     1      -1.456   3.318   3.568  0.00  0.00    +0.162 A 
ATOM     16  C   UNL     1      -1.658   2.192   4.363  0.00  0.00    +0.163 A 
ATOM     17  C   UNL     1      -2.871   1.530   4.328  0.00  0.00    +0.057 A 
ATOM     18  O   UNL     1      -0.671   1.730   5.181  0.00  0.00    -0.485 OA
ATOM     19  C   UNL     1       0.656   2.195   4.913  0.00  0.00    +0.270 C 
ATOM     20  C   UNL     1       0.599   3.713   4.697  0.00  0.00    +0.270 C 
ATOM     21  O   UNL     1      -0.266   3.977   3.587  0.00  0.00    -0.485 OA
ENDBRANCH  11  12
ENDBRANCH   8  10
ENDBRANCH   7   8
ENDBRANCH   5   7
ENDBRANCH   2   5
BRANCH   1  22
ATOM     22  C   UNL     1     -12.117   0.389  -1.071  0.00  0.00    +0.200 C 
BRANCH  22  24
ATOM     23  N   UNL     1     -14.180  -0.423  -2.166  0.00  0.00    -0.284 N 
ATOM     24  C   UNL     1     -13.412  -0.381  -1.060  0.00  0.00    +0.234 C 
ATOM     25  O   UNL     1     -13.764  -0.961  -0.055  0.00  0.00    -0.274 OA
ATOM     26  H   UNL     1     -13.903   0.168  -3.052  0.00  0.00    +0.155 HD
BRANCH  23  33
ATOM     27  C   UNL     1     -16.634   0.783  -2.954  0.00  0.00    +0.045 C 
ATOM     28  C   UNL     1     -16.549  -0.671  -2.568  0.00  0.00    -0.029 A 
ATOM     29  C   UNL     1     -17.682  -1.461  -2.594  0.00  0.00    +0.005 A 
ATOM     30  C   UNL     1     -17.606  -2.794  -2.235  0.00  0.00    +0.001 A 
ATOM     31  C   UNL     1     -16.395  -3.342  -1.852  0.00  0.00    +0.005 A 
ATOM     32  C   UNL     1     -15.258  -2.558  -1.829  0.00  0.00    -0.029 A 
ATOM     33  C   UNL     1     -15.331  -1.220  -2.189  0.00  0.00    +0.039 A 
ATOM     34  C   UNL     1     -13.939  -3.156  -1.412  0.00  0.00    +0.045 C 
ENDBRANCH  23  33
ENDBRANCH  22  24
ENDBRANCH   1  22
TORSDOF 8
