REMARK  Name = ZINC31936307
REMARK  3 active torsions:
REMARK  status: ('A' for Active; 'I' for Inactive)
REMARK    1  A    between atoms: N_11  and  C_14
REMARK    2  A    between atoms: C_14  and  C_15
REMARK    3  A    between atoms: C_17  and  C_20
REMARK                            x       y       z     vdW  Elec       q    Type
REMARK                         _______ _______ _______ _____ _____    ______ ____
ROOT
ATOM      1  C   UNK     1      -0.911   8.175   4.505  0.00  0.00    +0.079 A 
ATOM      2  C   UNK     1      -1.312   7.325   3.470  0.00  0.00    +0.093 A 
ATOM      3  C   UNK     1      -0.640   7.368   2.238  0.00  0.00    +0.073 A 
ATOM      4  C   UNK     1       0.418   8.248   2.055  0.00  0.00    +0.077 A 
ATOM      5  C   UNK     1       0.812   9.080   3.087  0.00  0.00    +0.164 A 
ATOM      6  C   UNK     1       0.148   9.041   4.314  0.00  0.00    +0.164 A 
ATOM      7  O   UNK     1       0.525   9.860   5.335  0.00  0.00    -0.485 OA
ATOM      8  C   UNK     1       1.822  10.457   5.236  0.00  0.00    +0.270 C 
ATOM      9  C   UNK     1       1.987  11.015   3.816  0.00  0.00    +0.270 C 
ATOM     10  O   UNK     1       1.856   9.932   2.890  0.00  0.00    -0.485 OA
ATOM     11  N   UNK     1      -1.260   6.432   1.433  0.00  0.00    -0.324 N 
ATOM     12  C   UNK     1      -2.251   5.858   2.169  0.00  0.00    +0.200 A 
ATOM     13  N   UNK     1      -2.282   6.380   3.360  0.00  0.00    -0.236 NA
ENDROOT
BRANCH  11  14
ATOM     14  C   UNK     1      -0.912   6.112   0.046  0.00  0.00    +0.186 C 
BRANCH  14  15
ATOM     15  C   UNK     1       0.205   5.102   0.028  0.00  0.00    +0.099 A 
ATOM     16  N   UNK     1       0.126   3.797   0.022  0.00  0.00    -0.235 NA
ATOM     17  C   UNK     1       1.239   3.061   0.007  0.00  0.00    +0.159 A 
ATOM     18  C   UNK     1       2.439   3.727   0.004  0.00  0.00    +0.082 A 
ATOM     19  S   UNK     1       1.917   5.382   0.013  0.00  0.00    -0.078 S 
BRANCH  17  20
ATOM     20  C   UNK     1       1.182   1.591  -0.001  0.00  0.00    +0.405 C 
ATOM     21  O   UNK     1       2.210   0.943  -0.014  0.00  0.00    -0.239 OA
ATOM     22  O   UNK     1      -0.011   0.963   0.007  0.00  0.00    -0.239 OA
ENDBRANCH  17  20
ENDBRANCH  14  15
ENDBRANCH  11  14
TORSDOF 3
