REMARK  Name = ZINC55994191
REMARK  7 active torsions:
REMARK  status: ('A' for Active; 'I' for Inactive)
REMARK    1  A    between atoms: C_1  and  C_2
REMARK    2  A    between atoms: C_5  and  C_28
REMARK    3  A    between atoms: C_10  and  C_12
REMARK    4  A    between atoms: C_17  and  N_18
REMARK    5  A    between atoms: C_19  and  C_21
REMARK    6  A    between atoms: C_21  and  C_23
REMARK    7  A    between atoms: C_21  and  N_24
REMARK                            x       y       z     vdW  Elec       q    Type
REMARK                         _______ _______ _______ _____ _____    ______ ____
ROOT
ATOM      1  C   UNL     1       3.141  -2.188   1.347  0.00  0.00    +0.058 A 
ATOM      2  C   UNL     1       3.362  -0.809   1.325  0.00  0.00    +0.015 A 
ATOM      3  C   UNL     1       4.649  -0.319   1.383  0.00  0.00    +0.001 A 
ATOM      4  C   UNL     1       5.726  -1.187   1.463  0.00  0.00    +0.002 A 
ATOM      5  C   UNL     1       5.522  -2.552   1.485  0.00  0.00    +0.024 A 
ATOM      6  C   UNL     1       4.233  -3.064   1.433  0.00  0.00    +0.046 A 
ENDROOT
BRANCH   1  14
ATOM      7  C   UNL     1       1.479  -0.816  -3.132  0.00  0.00    +0.009 C 
ATOM      8  C   UNL     1       1.169  -1.898  -2.096  0.00  0.00    +0.004 C 
ATOM      9  C   UNL     1      -0.280  -2.361  -2.259  0.00  0.00    +0.009 C 
ATOM     10  C   UNL     1      -0.581  -3.467  -1.244  0.00  0.00    +0.004 C 
ATOM     11  C   UNL     1      -0.407  -2.914   0.174  0.00  0.00    +0.111 C 
ATOM     12  N   UNL     1       0.938  -2.335   0.294  0.00  0.00    -0.297 N 
ATOM     13  C   UNL     1       1.364  -1.328  -0.688  0.00  0.00    +0.111 C 
ATOM     14  C   UNL     1       1.766  -2.720   1.285  0.00  0.00    +0.248 C 
ATOM     15  O   UNL     1       1.380  -3.506   2.129  0.00  0.00    -0.270 OA
ATOM     16  C   UNL     1       0.383  -4.635  -1.459  0.00  0.00    +0.009 C 
ENDBRANCH   1  14
BRANCH   6  17
ATOM     17  N   UNL     1       4.025  -4.441   1.461  0.00  0.00    -0.283 N 
ATOM     18  C   UNL     1       4.866  -5.236   2.152  0.00  0.00    +0.237 C 
ATOM     19  O   UNL     1       5.843  -4.761   2.692  0.00  0.00    -0.273 OA
ATOM     20  H   UNL     1       3.275  -4.828   0.983  0.00  0.00    +0.155 HD
BRANCH  18  21
ATOM     21  C   UNL     1       4.593  -6.714   2.255  0.00  0.00    +0.158 C 
ATOM     22  C   UNL     1       4.573  -7.328   0.853  0.00  0.00    +0.038 C 
BRANCH  21  23
ATOM     23  N   UNL     1       5.644  -7.351   3.051  0.00  0.00    -0.289 N 
ATOM     24  C   UNL     1       5.392  -8.505   3.701  0.00  0.00    +0.298 C 
ATOM     25  O   UNL     1       4.292  -9.018   3.625  0.00  0.00    -0.253 OA
ATOM     26  N   UNL     1       6.359  -9.091   4.434  0.00  0.00    -0.313 N 
ATOM     27  H   UNL     1       6.522  -6.943   3.112  0.00  0.00    +0.151 HD
ATOM     28  H   UNL     1       7.237  -8.683   4.494  0.00  0.00    +0.146 HD
ATOM     29  H   UNL     1       6.178  -9.922   4.901  0.00  0.00    +0.146 HD
ENDBRANCH  21  23
ENDBRANCH  18  21
ENDBRANCH   6  17
TORSDOF 4
