REMARK  Name = ZINC17885941
REMARK  6 active torsions:
REMARK  status: ('A' for Active; 'I' for Inactive)
REMARK    1  A    between atoms: C_1  and  O_2
REMARK    2  A    between atoms: O_2  and  C_3
REMARK    3  A    between atoms: C_7  and  C_10
REMARK    4  A    between atoms: C_8  and  O_9
REMARK    5  A    between atoms: N_18  and  C_21
REMARK    6  A    between atoms: N_29  and  C_30
REMARK                            x       y       z     vdW  Elec       q    Type
REMARK                         _______ _______ _______ _____ _____    ______ ____
ROOT
ATOM      1  C   UNL     1       1.394  -4.134   2.219  0.00  0.00    +0.161 C 
ATOM      2  C   UNL     1       0.103  -4.707   2.788  0.00  0.00    +0.146 C 
ATOM      3  C   UNL     1       0.511  -4.648   4.310  0.00  0.00    +0.249 C 
ATOM      4  C   UNL     1      -0.779  -4.750   4.960  0.00  0.00    +0.259 C 
ATOM      5  O   UNL     1      -1.029  -5.284   6.020  0.00  0.00    -0.272 OA
ATOM      6  N   UNL     1      -1.658  -4.112   4.124  0.00  0.00    -0.208 N 
ATOM      7  C   UNL     1      -1.132  -3.866   2.874  0.00  0.00    +0.235 C 
ATOM      8  O   UNL     1      -1.568  -3.123   2.021  0.00  0.00    -0.274 OA
ATOM      9  O   UNL     1       1.752  -5.223   4.313  0.00  0.00    -0.257 OA
ATOM     10  N   UNL     1       2.435  -4.572   3.194  0.00  0.00    -0.244 N 
ENDROOT
BRANCH   6  11
ATOM     11  C   UNL     1      -2.963  -3.758   4.493  0.00  0.00    +0.044 A 
ATOM     12  C   UNL     1      -3.795  -3.118   3.583  0.00  0.00    +0.025 A 
ATOM     13  C   UNL     1      -5.080  -2.770   3.950  0.00  0.00    +0.017 A 
ATOM     14  C   UNL     1      -5.539  -3.058   5.223  0.00  0.00    +0.018 A 
ATOM     15  C   UNL     1      -4.713  -3.695   6.132  0.00  0.00    +0.017 A 
ATOM     16  C   UNL     1      -3.429  -4.050   5.768  0.00  0.00    +0.025 A 
ATOM     17 BR   UNL     1      -7.299  -2.579   5.721  0.00  0.00    -0.050 Br
ENDBRANCH   6  11
BRANCH   1  22
ATOM     18  C   UNL     1       0.626  -0.619   1.042  0.00  0.00    +0.162 A 
ATOM     19  C   UNL     1       1.202   0.137   2.051  0.00  0.00    +0.049 A 
ATOM     20  C   UNL     1       1.836  -0.490   3.108  0.00  0.00    +0.004 A 
ATOM     21  C   UNL     1       1.897  -1.870   3.161  0.00  0.00    +0.009 A 
ATOM     22  C   UNL     1       1.325  -2.630   2.158  0.00  0.00    +0.023 A 
ATOM     23  C   UNL     1       0.683  -2.008   1.099  0.00  0.00    +0.164 A 
BRANCH  18  25
ATOM     24  C   UNL     1      -0.017   1.425   0.010  0.00  0.00    +0.277 C 
ATOM     25  O   UNL     1       0.002  -0.004   0.002  0.00  0.00    -0.491 OA
ENDBRANCH  18  25
BRANCH  23  26
ATOM     26  O   UNL     1       0.115  -2.754   0.114  0.00  0.00    -0.503 OA
ATOM     27  H   UNL     1       0.711  -2.957  -0.620  0.00  0.00    +0.292 HD
ENDBRANCH  23  26
ENDBRANCH   1  22
BRANCH  10  28
ATOM     28  C   UNL     1       3.814  -4.399   3.056  0.00  0.00    +0.065 A 
ATOM     29  C   UNL     1       4.327  -3.764   1.933  0.00  0.00    +0.028 A 
ATOM     30  C   UNL     1       5.691  -3.594   1.800  0.00  0.00    +0.002 A 
ATOM     31  C   UNL     1       6.546  -4.057   2.783  0.00  0.00    +0.000 A 
ATOM     32  C   UNL     1       6.039  -4.690   3.902  0.00  0.00    +0.002 A 
ATOM     33  C   UNL     1       4.675  -4.858   4.045  0.00  0.00    +0.028 A 
ENDBRANCH  10  28
TORSDOF 5
