REMARK  Name = ZINC63141340
REMARK  8 active torsions:
REMARK  status: ('A' for Active; 'I' for Inactive)
REMARK    1  A    between atoms: C_1  and  C_2
REMARK    2  A    between atoms: C_2  and  O_3
REMARK    3  A    between atoms: O_3  and  C_4
REMARK    4  A    between atoms: C_4  and  C_5
REMARK    5  A    between atoms: C_5  and  C_6
REMARK    6  A    between atoms: C_6  and  N_7
REMARK    7  A    between atoms: C_27  and  C_29
REMARK    8  A    between atoms: C_32  and  N_35
REMARK                            x       y       z     vdW  Elec       q    Type
REMARK                         _______ _______ _______ _____ _____    ______ ____
ROOT
ATOM      1  N   UNL     1      -4.415  -4.263   0.021  0.00  0.00    -0.291 N 
ATOM      2  C   UNL     1      -5.150  -4.473   1.282  0.00  0.00    +0.203 C 
ATOM      3  C   UNL     1      -6.492  -3.781   1.178  0.00  0.00    +0.234 C 
ATOM      4  O   UNL     1      -6.937  -3.118   2.090  0.00  0.00    -0.274 OA
ATOM      5  N   UNL     1      -7.183  -3.940   0.001  0.00  0.00    -0.279 N 
ATOM      6  C   UNL     1      -6.567  -4.823  -0.967  0.00  0.00    +0.167 C 
ATOM      7  C   UNL     1      -5.116  -4.451  -1.136  0.00  0.00    +0.237 C 
ATOM      8  O   UNL     1      -4.604  -4.330  -2.228  0.00  0.00    -0.274 OA
ATOM      9  C   UNL     1      -7.263  -5.032  -2.287  0.00  0.00    +0.065 C 
ATOM     10  C   UNL     1      -8.403  -4.061  -2.425  0.00  0.00    -0.034 C 
ATOM     11  C   UNL     1      -8.843  -3.345  -3.450  0.00  0.00    -0.001 A 
ATOM     12  C   UNL     1      -8.403  -3.267  -4.852  0.00  0.00    +0.010 A 
ATOM     13  C   UNL     1      -9.085  -2.402  -5.648  0.00  0.00    +0.001 A 
ATOM     14  C   UNL     1     -10.149  -1.615  -5.195  0.00  0.00    +0.002 A 
ATOM     15  C   UNL     1     -10.623  -1.626  -3.924  0.00  0.00    +0.026 A 
ATOM     16  C   UNL     1      -9.989  -2.500  -2.994  0.00  0.00    +0.043 A 
ATOM     17  N   UNL     1     -10.240  -2.715  -1.738  0.00  0.00    -0.375 N 
ATOM     18  C   UNL     1      -9.312  -3.738  -1.240  0.00  0.00    +0.131 C 
ATOM     19  C   UNL     1      -8.411  -3.173  -0.153  0.00  0.00    +0.133 C 
ATOM     20  H   UNL     1     -10.928  -2.273  -1.215  0.00  0.00    +0.160 HD
ENDROOT
BRANCH  19  21
ATOM     21  C   UNL     1      -9.142  -3.148   1.165  0.00  0.00    -0.025 A 
ATOM     22  C   UNL     1      -9.183  -4.282   1.954  0.00  0.00    +0.008 A 
ATOM     23  C   UNL     1      -9.854  -4.259   3.163  0.00  0.00    +0.033 A 
ATOM     24  C   UNL     1     -10.482  -3.101   3.582  0.00  0.00    +0.126 A 
ATOM     25  C   UNL     1     -10.440  -1.967   2.794  0.00  0.00    +0.033 A 
ATOM     26  C   UNL     1      -9.766  -1.989   1.587  0.00  0.00    +0.008 A 
BRANCH  24  27
ATOM     27  N   UNL     1     -11.201  -3.077   4.876  0.00  0.00    +0.056 N 
ATOM     28  O   UNL     1     -11.238  -4.069   5.566  0.00  0.00    -0.126 OA
ATOM     29  O   UNL     1     -11.750  -2.064   5.243  0.00  0.00    -0.126 OA
ENDBRANCH  24  27
ENDBRANCH  19  21
BRANCH   1  30
ATOM     30  C   UNL     1      -3.005  -3.866   0.010  0.00  0.00    +0.110 C 
BRANCH  30  31
ATOM     31  C   UNL     1      -2.905  -2.339   0.017  0.00  0.00    +0.047 C 
BRANCH  31  32
ATOM     32  C   UNL     1      -1.432  -1.925   0.005  0.00  0.00    +0.161 C 
BRANCH  32  33
ATOM     33  O   UNL     1      -1.339  -0.499   0.012  0.00  0.00    -0.380 OA
BRANCH  33  35
ATOM     34  C   UNL     1      -0.019   1.526   0.010  0.00  0.00    +0.034 C 
ATOM     35  C   UNL     1       0.002  -0.004   0.002  0.00  0.00    +0.156 C 
ENDBRANCH  33  35
ENDBRANCH  32  33
ENDBRANCH  31  32
ENDBRANCH  30  31
ENDBRANCH   1  30
TORSDOF 7
