REMARK  Name = ZINC37072615
REMARK  8 active torsions:
REMARK  status: ('A' for Active; 'I' for Inactive)
REMARK    1  A    between atoms: C_1  and  C_2
REMARK    2  A    between atoms: C_2  and  C_3
REMARK    3  A    between atoms: C_2  and  C_4
REMARK    4  A    between atoms: C_4  and  C_6
REMARK    5  A    between atoms: C_4  and  N_11
REMARK    6  A    between atoms: N_11  and  C_12
REMARK    7  A    between atoms: C_12  and  C_13
REMARK    8  A    between atoms: C_15  and  N_20
REMARK                            x       y       z     vdW  Elec       q    Type
REMARK                         _______ _______ _______ _____ _____    ______ ____
ROOT
ATOM      1  N   UNL     1      -2.269  -0.161   0.855  0.00  0.00    +0.387 N 
ATOM      2  H   UNL     1      -1.843  -0.162   1.770  0.00  0.00    -0.085 HD
ATOM      3  H   UNL     1      -2.517   0.783   0.601  0.00  0.00    -0.085 HD
ENDROOT
BRANCH   1   4
ATOM      4  C   UNL     1      -1.319  -0.699  -0.128  0.00  0.00    -0.031 C 
BRANCH   4   5
ATOM      5  C   UNL     1      -1.902  -0.570  -1.512  0.00  0.00    -0.024 A 
ATOM      6  C   UNL     1      -1.856  -1.449  -2.543  0.00  0.00    +0.009 A 
ATOM      7  C   UNL     1      -2.469  -1.116  -3.736  0.00  0.00    +0.008 A 
ATOM      8  C   UNL     1      -3.098   0.081  -3.840  0.00  0.00    +0.045 A 
ATOM      9  S   UNL     1      -2.839   0.776  -2.216  0.00  0.00    -0.103 S 
ENDBRANCH   4   5
BRANCH   4  11
ATOM     10  C   UNL     1       0.610  -0.087   1.337  0.00  0.00    +0.006 C 
ATOM     11  C   UNL     1      -0.007   0.085  -0.052  0.00  0.00    -0.027 C 
ATOM     12  C   UNL     1       0.964  -0.442  -1.110  0.00  0.00    +0.006 C 
ENDBRANCH   4  11
ENDBRANCH   1   4
BRANCH   1  13
ATOM     13  C   UNL     1      -3.477  -0.996   0.876  0.00  0.00    -0.044 C 
BRANCH  13  14
ATOM     14  C   UNL     1      -4.393  -0.527   1.978  0.00  0.00    -0.044 A 
ATOM     15  C   UNL     1      -5.534   0.189   1.669  0.00  0.00    +0.036 A 
ATOM     16  C   UNL     1      -6.374   0.620   2.679  0.00  0.00    +0.126 A 
ATOM     17  C   UNL     1      -6.072   0.336   3.998  0.00  0.00    +0.034 A 
ATOM     18  C   UNL     1      -4.931  -0.380   4.308  0.00  0.00    +0.022 A 
ATOM     19  C   UNL     1      -4.093  -0.817   3.297  0.00  0.00    +0.042 A 
ATOM     20 CL   UNL     1      -2.664  -1.722   3.684  0.00  0.00    -0.083 Cl
BRANCH  16  21
ATOM     21  N   UNL     1      -7.596   1.387   2.349  0.00  0.00    +0.056 N 
ATOM     22  O   UNL     1      -7.859   1.636   1.195  0.00  0.00    -0.126 OA
ATOM     23  O   UNL     1      -8.330   1.764   3.232  0.00  0.00    -0.126 OA
ENDBRANCH  16  21
ENDBRANCH  13  14
ENDBRANCH   1  13
TORSDOF 6
