REMARK  Name = ZINC08837142
REMARK  9 active torsions:
REMARK  status: ('A' for Active; 'I' for Inactive)
REMARK    1  A    between atoms: C_1  and  C_2
REMARK    2  A    between atoms: C_5  and  N_8
REMARK    3  A    between atoms: C_12  and  C_13
REMARK    4  A    between atoms: C_13  and  O_15
REMARK    5  A    between atoms: O_15  and  C_16
REMARK    6  A    between atoms: C_18  and  N_19
REMARK    7  A    between atoms: N_19  and  C_20
REMARK    8  A    between atoms: C_22  and  C_27
REMARK    9  A    between atoms: C_24  and  C_26
REMARK                            x       y       z     vdW  Elec       q    Type
REMARK                         _______ _______ _______ _____ _____    ______ ____
ROOT
ATOM      1  N   UNL     1       0.057  -4.172  -0.021  0.00  0.00    -0.205 N 
ATOM      2  C   UNL     1       0.068  -4.960  -1.120  0.00  0.00    +0.276 C 
ATOM      3  O   UNL     1       0.064  -4.605  -2.281  0.00  0.00    -0.268 OA
ATOM      4  C   UNL     1       0.086  -6.357  -0.600  0.00  0.00    +0.136 C 
ATOM      5  C   UNL     1       0.102  -7.508  -1.335  0.00  0.00    +0.124 C 
ATOM      6  N   UNL     1       0.085  -6.252   0.745  0.00  0.00    -0.211 NA
ATOM      7  C   UNL     1       0.073  -4.984   1.086  0.00  0.00    +0.222 C 
ENDROOT
BRANCH   1  12
ATOM      8  C   UNL     1      -0.018   1.503   0.010  0.00  0.00    +0.044 C 
ATOM      9  C   UNL     1       0.002  -0.004   0.002  0.00  0.00    -0.050 A 
ATOM     10  C   UNL     1       0.006  -0.688  -1.200  0.00  0.00    +0.005 A 
ATOM     11  C   UNL     1       0.024  -2.068  -1.211  0.00  0.00    +0.024 A 
ATOM     12  C   UNL     1       0.039  -2.771  -0.013  0.00  0.00    +0.044 A 
ATOM     13  C   UNL     1       0.036  -2.082   1.192  0.00  0.00    +0.024 A 
ATOM     14  C   UNL     1       0.023  -0.700   1.196  0.00  0.00    +0.005 A 
ENDBRANCH   1  12
BRANCH   5  15
ATOM     15  C   UNL     1       0.119  -8.805  -0.662  0.00  0.00    +0.334 C 
ATOM     16  O   UNL     1       0.119  -8.859   0.553  0.00  0.00    -0.246 OA
BRANCH  15  17
ATOM     17  O   UNL     1       0.135  -9.942  -1.388  0.00  0.00    -0.465 OA
ATOM     18  C   UNL     1       0.151 -11.174  -0.664  0.00  0.00    +0.280 C 
ENDBRANCH  15  17
ENDBRANCH   5  15
BRANCH   7  19
ATOM     19  N   UNL     1       0.074  -4.531   2.379  0.00  0.00    -0.145 NA
BRANCH  19  20
ATOM     20  C   UNL     1       0.091  -5.435   3.431  0.00  0.00    +0.242 A 
ATOM     21  N   UNL     1       0.112  -6.733   3.168  0.00  0.00    -0.218 NA
ATOM     22  C   UNL     1       0.129  -7.621   4.148  0.00  0.00    +0.044 A 
ATOM     23  C   UNL     1       0.124  -7.179   5.461  0.00  0.00    +0.046 A 
ATOM     24  C   UNL     1       0.101  -5.814   5.701  0.00  0.00    +0.044 A 
ATOM     25  N   UNL     1       0.091  -4.979   4.675  0.00  0.00    -0.218 NA
ATOM     26  C   UNL     1       0.095  -5.287   7.113  0.00  0.00    +0.066 C 
ATOM     27  C   UNL     1       0.153  -9.096   3.839  0.00  0.00    +0.066 C 
ENDBRANCH  19  20
ENDBRANCH   7  19
TORSDOF 5
