REMARK  Name = ZINC50360686
REMARK  4 active torsions:
REMARK  status: ('A' for Active; 'I' for Inactive)
REMARK    1  A    between atoms: C_2  and  C_8
REMARK    2  A    between atoms: C_8  and  N_9
REMARK    3  A    between atoms: N_9  and  C_10
REMARK    4  A    between atoms: C_15  and  O_18
REMARK                            x       y       z     vdW  Elec       q    Type
REMARK                         _______ _______ _______ _____ _____    ______ ____
ROOT
ATOM      1  N   UNL     1       1.899   3.708   1.388  0.00  0.00    +0.386 N 
ATOM      2  H   UNL     1       1.016   3.643   1.872  0.00  0.00    -0.085 HD
ATOM      3  H   UNL     1       2.582   3.130   1.855  0.00  0.00    -0.085 HD
ENDROOT
BRANCH   1   4
ATOM      4  C   UNL     1       2.357   5.104   1.391  0.00  0.00    -0.069 C 
ATOM      5  C   UNL     1       3.752   5.185   0.769  0.00  0.00    -0.016 C 
ATOM      6  C   UNL     1       4.229   6.639   0.771  0.00  0.00    +0.001 C 
ATOM      7  C   UNL     1       4.281   7.155   2.211  0.00  0.00    +0.031 C 
ATOM      8  C   UNL     1       2.886   7.075   2.833  0.00  0.00    +0.113 C 
ATOM      9  C   UNL     1       2.410   5.621   2.830  0.00  0.00    +0.015 C 
BRANCH   8  10
ATOM     10  O   UNL     1       2.935   7.557   4.177  0.00  0.00    -0.392 OA
ATOM     11  H   UNL     1       3.230   8.475   4.255  0.00  0.00    +0.210 HD
ENDBRANCH   8  10
ENDBRANCH   1   4
BRANCH   1  12
ATOM     12  C   UNL     1       1.734   3.250   0.003  0.00  0.00    -0.006 C 
BRANCH  12  14
ATOM     13  C   UNL     1      -0.017   1.410   0.010  0.00  0.00    +0.059 A 
ATOM     14  C   UNL     1       1.265   1.818  -0.000  0.00  0.00    +0.091 A 
ATOM     15  O   UNL     1       2.056   0.732  -0.014  0.00  0.00    -0.454 OA
ATOM     16  C   UNL     1       1.296  -0.376  -0.012  0.00  0.00    +0.184 A 
ATOM     17  C   UNL     1       0.002  -0.004   0.002  0.00  0.00    +0.070 A 
ATOM     18 BR   UNL     1      -1.501  -1.152   0.011  0.00  0.00    -0.046 Br
ATOM     19 BR   UNL     1       1.936  -2.156  -0.029  0.00  0.00    -0.007 Br
ENDBRANCH  12  14
ENDBRANCH   1  12
TORSDOF 4
