REMARK  Name = ZINC03363165
REMARK  11 active torsions:
REMARK  status: ('A' for Active; 'I' for Inactive)
REMARK    1  A    between atoms: C_1  and  C_2
REMARK    2  A    between atoms: C_2  and  C_3
REMARK    3  A    between atoms: C_2  and  C_4
REMARK    4  A    between atoms: C_4  and  C_5
REMARK    5  A    between atoms: C_4  and  C_6
REMARK    6  A    between atoms: C_4  and  N_8
REMARK    7  A    between atoms: C_9  and  C_11
REMARK    8  A    between atoms: C_11  and  S_12
REMARK    9  A    between atoms: S_12  and  C_13
REMARK   10  A    between atoms: N_23  and  C_24
REMARK   11  A    between atoms: C_24  and  C_25
REMARK                            x       y       z     vdW  Elec       q    Type
REMARK                         _______ _______ _______ _____ _____    ______ ____
ROOT
ATOM      1  C   UNL     1       0.002  -0.004   0.002  0.00  0.00    +0.173 A 
ATOM      2  N   UNL     1       1.110  -0.704  -0.012  0.00  0.00    -0.223 NA
ATOM      3  C   UNL     1       2.324  -0.106  -0.021  0.00  0.00    +0.080 A 
ATOM      4  C   UNL     1       3.507  -0.850  -0.036  0.00  0.00    +0.048 A 
ATOM      5  C   UNL     1       4.720  -0.198  -0.043  0.00  0.00    +0.043 A 
ATOM      6  C   UNL     1       4.782   1.191  -0.037  0.00  0.00    +0.021 A 
ATOM      7  C   UNL     1       3.639   1.941  -0.022  0.00  0.00    +0.017 A 
ATOM      8  C   UNL     1       2.397   1.306  -0.014  0.00  0.00    +0.065 A 
ATOM      9  C   UNL     1       1.139   2.065   0.002  0.00  0.00    +0.263 A 
ATOM     10  O   UNL     1       1.137   3.282   0.009  0.00  0.00    -0.267 OA
ATOM     11  N   UNL     1      -0.016   1.361   0.009  0.00  0.00    -0.280 N 
ATOM     12 CL   UNL     1       6.190  -1.121  -0.062  0.00  0.00    -0.083 Cl
ENDROOT
BRANCH   1  13
ATOM     13  S   UNL     1      -1.535  -0.865   0.011  0.00  0.00    -0.078 S 
BRANCH  13  14
ATOM     14  C   UNL     1      -0.938  -2.574  -0.003  0.00  0.00    +0.173 C 
BRANCH  14  16
ATOM     15  N   UNL     1      -1.910  -4.849  -0.006  0.00  0.00    -0.297 N 
ATOM     16  C   UNL     1      -2.114  -3.517   0.003  0.00  0.00    +0.224 C 
ATOM     17  O   UNL     1      -3.244  -3.077   0.015  0.00  0.00    -0.275 OA
ATOM     18  H   UNL     1      -1.006  -5.201  -0.017  0.00  0.00    +0.150 HD
BRANCH  15  19
ATOM     19  C   UNL     1      -3.053  -5.765  -0.001  0.00  0.00    +0.121 C 
ATOM     20  C   UNL     1      -3.913  -5.515  -1.241  0.00  0.00    +0.048 C 
BRANCH  19  22
ATOM     21  C   UNL     1      -1.792  -7.497   1.286  0.00  0.00    +0.010 C 
ATOM     22  C   UNL     1      -2.548  -7.210  -0.013  0.00  0.00    +0.020 C 
ATOM     23  C   UNL     1      -3.738  -8.164  -0.133  0.00  0.00    +0.010 C 
ENDBRANCH  19  22
BRANCH  19  24
ATOM     24  C   UNL     1      -3.858  -5.537   1.210  0.00  0.00    +0.088 C 
ATOM     25  N   UNL     1      -4.480  -5.362   2.144  0.00  0.00    -0.194 NA
ENDBRANCH  19  24
ENDBRANCH  15  19
ENDBRANCH  14  16
ENDBRANCH  13  14
ENDBRANCH   1  13
BRANCH  11  26
ATOM     26  C   UNL     1      -1.298   2.071   0.019  0.00  0.00    +0.201 C 
BRANCH  26  27
ATOM     27  C   UNL     1      -1.731   2.306   1.444  0.00  0.00    +0.125 A 
ATOM     28  C   UNL     1      -1.425   3.381   2.192  0.00  0.00    +0.046 A 
ATOM     29  C   UNL     1      -2.035   3.191   3.453  0.00  0.00    +0.041 A 
ATOM     30  C   UNL     1      -2.671   2.006   3.402  0.00  0.00    +0.195 A 
ATOM     31  O   UNL     1      -2.484   1.475   2.183  0.00  0.00    -0.466 OA
ENDBRANCH  26  27
ENDBRANCH  11  26
TORSDOF 8
