REMARK  Name = ZINC13297903
REMARK  9 active torsions:
REMARK  status: ('A' for Active; 'I' for Inactive)
REMARK    1  A    between atoms: C_1  and  C_2
REMARK    2  A    between atoms: C_7  and  N_8
REMARK    3  A    between atoms: C_9  and  C_11
REMARK    4  A    between atoms: C_11  and  S_12
REMARK    5  A    between atoms: S_12  and  C_13
REMARK    6  A    between atoms: C_14  and  C_34
REMARK    7  A    between atoms: C_15  and  C_27
REMARK    8  A    between atoms: C_21  and  C_25
REMARK    9  A    between atoms: C_21  and  C_26
REMARK                            x       y       z     vdW  Elec       q    Type
REMARK                         _______ _______ _______ _____ _____    ______ ____
ROOT
ATOM      1  C   UNL     1      -0.384  -0.118   7.687  0.00  0.00    +0.080 C 
ATOM      2  C   UNL     1      -0.467  -0.690   8.918  0.00  0.00    +0.069 C 
ATOM      3  C   UNL     1      -0.583   0.150  10.156  0.00  0.00    +0.097 C 
ATOM      4  C   UNL     1      -0.166   1.574   9.889  0.00  0.00    +0.024 C 
ATOM      5  C   UNL     1      -0.092   2.051   8.628  0.00  0.00    +0.016 C 
ATOM      6  N   UNL     1      -0.392   1.252   7.561  0.00  0.00    -0.311 N 
ATOM      7  C   UNL     1       0.331   3.474   8.358  0.00  0.00    +0.058 C 
ATOM      8  C   UNL     1      -0.094   4.367   9.526  0.00  0.00    -0.023 C 
ATOM      9  C   UNL     1       0.548   3.827  10.809  0.00  0.00    +0.086 C 
ATOM     10  C   UNL     1       0.143   2.390  10.991  0.00  0.00    +0.162 C 
ATOM     11  O   UNL     1       0.081   1.926  12.112  0.00  0.00    -0.292 OA
ATOM     12  C   UNL     1      -1.618   4.342   9.664  0.00  0.00    +0.011 C 
ATOM     13  C   UNL     1       0.380   5.800   9.277  0.00  0.00    +0.011 C 
ATOM     14  H   UNL     1      -0.616   1.655   6.707  0.00  0.00    +0.152 HD
ENDROOT
BRANCH   3  15
ATOM     15  C   UNL     1      -2.014   0.137  10.629  0.00  0.00    -0.035 A 
ATOM     16  C   UNL     1      -3.020   0.601   9.802  0.00  0.00    +0.006 A 
ATOM     17  C   UNL     1      -4.332   0.589  10.236  0.00  0.00    +0.020 A 
ATOM     18  C   UNL     1      -4.639   0.112  11.497  0.00  0.00    +0.041 A 
ATOM     19  C   UNL     1      -3.632  -0.353  12.325  0.00  0.00    +0.020 A 
ATOM     20  C   UNL     1      -2.321  -0.345  11.888  0.00  0.00    +0.006 A 
ATOM     21 CL   UNL     1      -6.287   0.097  12.043  0.00  0.00    -0.084 Cl
ENDBRANCH   3  15
BRANCH   2  22
ATOM     22  C   UNL     1      -0.443  -2.117   9.035  0.00  0.00    +0.098 C 
ATOM     23  N   UNL     1      -0.423  -3.249   9.128  0.00  0.00    -0.191 NA
ENDBRANCH   2  22
BRANCH   1  24
ATOM     24  S   UNL     1      -0.259  -1.133   6.252  0.00  0.00    -0.100 S 
BRANCH  24  25
ATOM     25  C   UNL     1      -0.168   0.052   4.882  0.00  0.00    +0.171 C 
BRANCH  25  27
ATOM     26  N   UNL     1       0.025  -0.015   2.417  0.00  0.00    -0.285 N 
ATOM     27  C   UNL     1      -0.056  -0.694   3.578  0.00  0.00    +0.227 C 
ATOM     28  O   UNL     1      -0.040  -1.907   3.573  0.00  0.00    -0.275 OA
ATOM     29  H   UNL     1       0.078   0.954   2.425  0.00  0.00    +0.155 HD
BRANCH  26  36
ATOM     30  C   UNL     1      -1.264   1.184   0.181  0.00  0.00    +0.045 C 
ATOM     31  C   UNL     1      -0.584  -0.158   0.084  0.00  0.00    -0.029 A 
ATOM     32  C   UNL     1      -0.568  -0.840  -1.117  0.00  0.00    +0.005 A 
ATOM     33  C   UNL     1       0.055  -2.071  -1.206  0.00  0.00    +0.000 A 
ATOM     34  C   UNL     1       0.666  -2.622  -0.095  0.00  0.00    +0.002 A 
ATOM     35  C   UNL     1       0.655  -1.945   1.108  0.00  0.00    +0.023 A 
ATOM     36  C   UNL     1       0.034  -0.706   1.201  0.00  0.00    +0.036 A 
ENDBRANCH  26  36
ENDBRANCH  25  27
ENDBRANCH  24  25
ENDBRANCH   1  24
TORSDOF 6
