REMARK  Name = ZINC36316549
REMARK  14 active torsions:
REMARK  status: ('A' for Active; 'I' for Inactive)
REMARK    1  A    between atoms: C_1  and  C_2
REMARK    2  A    between atoms: C_2  and  C_3
REMARK    3  A    between atoms: C_3  and  C_5
REMARK    4  A    between atoms: C_3  and  O_31
REMARK    5  A    between atoms: C_5  and  N_6
REMARK    6  A    between atoms: N_6  and  C_7
REMARK    7  A    between atoms: N_6  and  C_28
REMARK    8  A    between atoms: C_7  and  C_8
REMARK    9  A    between atoms: C_9  and  C_22
REMARK   10  A    between atoms: N_11  and  C_21
REMARK   11  A    between atoms: C_12  and  O_13
REMARK   12  A    between atoms: O_13  and  C_14
REMARK   13  A    between atoms: C_28  and  C_29
REMARK   14  A    between atoms: C_28  and  C_30
REMARK                            x       y       z     vdW  Elec       q    Type
REMARK                         _______ _______ _______ _____ _____    ______ ____
ROOT
ATOM      1  C   UNL     1       3.418  -3.372  -2.615  0.00  0.00    +0.025 A 
ATOM      2  C   UNL     1       3.874  -4.240  -3.625  0.00  0.00    +0.098 A 
ATOM      3  N   UNL     1       5.189  -4.259  -3.586  0.00  0.00    -0.168 NA
ATOM      4  N   UNL     1       5.611  -3.409  -2.556  0.00  0.00    -0.235 N 
ATOM      5  C   UNL     1       4.507  -2.871  -1.976  0.00  0.00    +0.221 A 
ATOM      6  C   UNL     1       7.000  -3.142  -2.174  0.00  0.00    +0.176 C 
ENDROOT
BRANCH   2   7
ATOM      7  C   UNL     1       3.019  -5.002  -4.569  0.00  0.00    +0.002 A 
ATOM      8  C   UNL     1       1.836  -5.588  -4.125  0.00  0.00    +0.010 A 
ATOM      9  C   UNL     1       1.045  -6.295  -5.007  0.00  0.00    +0.001 A 
ATOM     10  C   UNL     1       1.426  -6.424  -6.331  0.00  0.00    +0.000 A 
ATOM     11  C   UNL     1       2.600  -5.845  -6.777  0.00  0.00    +0.001 A 
ATOM     12  C   UNL     1       3.395  -5.130  -5.905  0.00  0.00    +0.010 A 
ENDBRANCH   2   7
BRANCH   1  13
ATOM     13  C   UNL     1       1.980  -3.051  -2.302  0.00  0.00    -0.035 C 
BRANCH  13  14
ATOM     14  N   UNL     1       1.727  -1.628  -2.562  0.00  0.00    +0.386 N 
ATOM     15  H   UNL     1       2.428  -1.071  -2.096  0.00  0.00    -0.081 HD
BRANCH  14  16
ATOM     16  C   UNL     1       1.786  -1.377  -4.008  0.00  0.00    -0.074 C 
ATOM     17  C   UNL     1       3.221  -1.569  -4.502  0.00  0.00    -0.014 C 
ATOM     18  C   UNL     1       0.862  -2.357  -4.734  0.00  0.00    -0.014 C 
ENDBRANCH  14  16
BRANCH  14  19
ATOM     19  C   UNL     1       0.397  -1.266  -2.056  0.00  0.00    -0.046 C 
BRANCH  19  20
ATOM     20  C   UNL     1       0.190   0.244  -2.198  0.00  0.00    +0.098 C 
BRANCH  20  22
ATOM     21  C   UNL     1      -1.470   2.099  -1.992  0.00  0.00    +0.006 C 
ATOM     22  C   UNL     1      -1.220   0.612  -1.733  0.00  0.00    +0.026 C 
ENDBRANCH  20  22
BRANCH  20  23
ATOM     23  O   UNL     1       1.151   0.933  -1.396  0.00  0.00    -0.394 OA
ATOM     24  H   UNL     1       1.098   0.726  -0.453  0.00  0.00    +0.210 HD
ENDBRANCH  20  23
ENDBRANCH  19  20
ENDBRANCH  14  19
ENDBRANCH  13  14
ENDBRANCH   1  13
BRANCH   5  25
ATOM     25  O   UNL     1       4.493  -1.992  -0.942  0.00  0.00    -0.437 OA
BRANCH  25  26
ATOM     26  C   UNL     1       4.501  -2.492   0.321  0.00  0.00    +0.149 A 
ATOM     27  C   UNL     1       4.626  -3.859   0.526  0.00  0.00    +0.048 A 
ATOM     28  C   UNL     1       4.634  -4.365   1.812  0.00  0.00    +0.004 A 
ATOM     29  C   UNL     1       4.515  -3.512   2.893  0.00  0.00    +0.002 A 
ATOM     30  C   UNL     1       4.390  -2.150   2.693  0.00  0.00    +0.024 A 
ATOM     31  C   UNL     1       4.388  -1.637   1.409  0.00  0.00    +0.083 A 
ATOM     32 CL   UNL     1       4.238   0.074   1.157  0.00  0.00    -0.080 Cl
ENDBRANCH  25  26
ENDBRANCH   5  25
TORSDOF 10
