REMARK  Name = ZINC09377794
REMARK  5 active torsions:
REMARK  status: ('A' for Active; 'I' for Inactive)
REMARK    1  A    between atoms: C_4  and  N_7
REMARK    2  A    between atoms: C_10  and  S_17
REMARK    3  A    between atoms: S_17  and  C_18
REMARK    4  A    between atoms: C_18  and  C_19
REMARK    5  A    between atoms: N_24  and  C_25
REMARK                            x       y       z     vdW  Elec       q    Type
REMARK                         _______ _______ _______ _____ _____    ______ ____
ROOT
ATOM      1  C   UNL     1       3.863  -6.219   3.221  0.00  0.00    +0.173 C 
ENDROOT
BRANCH   1   2
ATOM      2  C   UNL     1       3.138  -7.225   4.078  0.00  0.00    +0.231 C 
ATOM      3  O   UNL     1       1.976  -7.043   4.374  0.00  0.00    -0.274 OA
ATOM      4  N   UNL     1       3.780  -8.326   4.515  0.00  0.00    -0.239 N 
ATOM      5  C   UNL     1       3.131  -9.225   5.281  0.00  0.00    +0.306 C 
ATOM      6  O   UNL     1       1.967  -9.043   5.578  0.00  0.00    -0.252 OA
ATOM      7  N   UNL     1       3.774 -10.326   5.718  0.00  0.00    -0.294 N 
ATOM      8  H   UNL     1       4.710  -8.472   4.278  0.00  0.00    +0.159 HD
ATOM      9  H   UNL     1       4.703 -10.472   5.481  0.00  0.00    +0.151 HD
BRANCH   7  10
ATOM     10  C   UNL     1       3.068 -11.304   6.551  0.00  0.00    +0.037 C 
ATOM     11  C   UNL     1       2.584 -10.625   7.834  0.00  0.00    +0.029 C 
ATOM     12  C   UNL     1       1.847 -11.646   8.704  0.00  0.00    -0.008 C 
ATOM     13  C   UNL     1       2.797 -12.791   9.060  0.00  0.00    +0.007 C 
ATOM     14  C   UNL     1       3.281 -13.470   7.777  0.00  0.00    -0.008 C 
ATOM     15  C   UNL     1       4.018 -12.449   6.907  0.00  0.00    +0.029 C 
ATOM     16  C   UNL     1       2.080 -14.023   7.008  0.00  0.00    +0.007 C 
ATOM     17  C   UNL     1       1.131 -12.878   6.652  0.00  0.00    -0.008 C 
ATOM     18  C   UNL     1       0.646 -12.199   7.934  0.00  0.00    +0.007 C 
ATOM     19  C   UNL     1       1.867 -11.857   5.782  0.00  0.00    +0.029 C 
ENDBRANCH   7  10
ENDBRANCH   1   2
BRANCH   1  20
ATOM     20  S   UNL     1       2.738  -4.861   2.798  0.00  0.00    -0.077 S 
BRANCH  20  24
ATOM     21  N   UNL     1       3.623  -0.651  -0.037  0.00  0.00    -0.214 N 
ATOM     22  C   UNL     1       3.885  -1.839   0.584  0.00  0.00    +0.171 A 
ATOM     23  N   UNL     1       3.175  -2.677   1.335  0.00  0.00    -0.202 NA
ATOM     24  C   UNL     1       3.721  -3.785   1.809  0.00  0.00    +0.194 A 
ATOM     25  N   UNL     1       4.986  -4.115   1.566  0.00  0.00    -0.183 NA
ATOM     26  C   UNL     1       5.767  -3.340   0.828  0.00  0.00    +0.285 A 
ATOM     27  O   UNL     1       7.054  -3.684   0.587  0.00  0.00    -0.265 OA
ATOM     28  C   UNL     1       5.231  -2.150   0.302  0.00  0.00    +0.105 A 
ATOM     29  C   UNL     1       5.737  -1.105  -0.502  0.00  0.00    +0.150 A 
ATOM     30  N   UNL     1       4.786  -0.236  -0.698  0.00  0.00    -0.172 NA
BRANCH  21  34
ATOM     31  C   UNL     1      -0.017   1.379   0.010  0.00  0.00    +0.000 A 
ATOM     32  C   UNL     1       1.170   2.089   0.002  0.00  0.00    +0.002 A 
ATOM     33  C   UNL     1       2.377   1.419  -0.013  0.00  0.00    +0.028 A 
ATOM     34  C   UNL     1       2.400   0.031  -0.021  0.00  0.00    +0.068 A 
ATOM     35  C   UNL     1       1.206  -0.680  -0.013  0.00  0.00    +0.028 A 
ATOM     36  C   UNL     1       0.002  -0.004   0.002  0.00  0.00    +0.002 A 
ENDBRANCH  21  34
ENDBRANCH  20  24
ENDBRANCH   1  20
TORSDOF 5
