REMARK  Name = ZINC47088539
REMARK  4 active torsions:
REMARK  status: ('A' for Active; 'I' for Inactive)
REMARK    1  A    between atoms: N_10  and  C_11
REMARK    2  A    between atoms: C_11  and  C_12
REMARK    3  A    between atoms: C_12  and  N_13
REMARK    4  A    between atoms: C_14  and  C_16
REMARK                            x       y       z     vdW  Elec       q    Type
REMARK                         _______ _______ _______ _____ _____    ______ ____
ROOT
ATOM      1  N   UNL     1       5.893  -6.231  -0.090  0.00  0.00    -0.310 N 
ATOM      2  C   UNL     1       6.232  -7.535  -0.100  0.00  0.00    +0.244 C 
ATOM      3  O   UNL     1       5.366  -8.388  -0.097  0.00  0.00    -0.270 OA
ATOM      4  H   UNL     1       6.585  -5.551  -0.093  0.00  0.00    +0.149 HD
ENDROOT
BRANCH   2   5
ATOM      5  C   UNL     1       7.659  -7.930  -0.116  0.00  0.00    +0.039 A 
ATOM      6  C   UNL     1       8.655  -6.940  -0.115  0.00  0.00    +0.014 A 
ATOM      7  C   UNL     1       9.973  -7.278  -0.129  0.00  0.00    +0.016 A 
ATOM      8  C   UNL     1      10.349  -8.629  -0.146  0.00  0.00    +0.065 A 
ATOM      9  C   UNL     1       9.353  -9.641  -0.148  0.00  0.00    +0.080 A 
ATOM     10  C   UNL     1       8.000  -9.273  -0.127  0.00  0.00    +0.041 A 
ATOM     11  N   UNL     1       9.729 -10.927  -0.164  0.00  0.00    -0.223 NA
ATOM     12  C   UNL     1      11.011 -11.258  -0.178  0.00  0.00    +0.180 A 
ATOM     13  N   UNL     1      11.991 -10.339  -0.176  0.00  0.00    -0.301 N 
ATOM     14  H   UNL     1      12.917 -10.628  -0.186  0.00  0.00    +0.171 HD
ATOM     15  C   UNL     1      11.705  -9.019  -0.161  0.00  0.00    +0.260 A 
ATOM     16  O   UNL     1      12.687  -8.101  -0.160  0.00  0.00    -0.267 OA
ATOM     17  S   UNL     1      11.435 -12.916  -0.198  0.00  0.00    -0.011 S 
ENDBRANCH   2   5
BRANCH   1  18
ATOM     18  C   UNL     1       4.481  -5.840  -0.074  0.00  0.00    +0.123 C 
BRANCH  18  19
ATOM     19  C   UNL     1       4.375  -4.314  -0.064  0.00  0.00    +0.122 C 
BRANCH  19  29
ATOM     20  C   UNL     1      -0.017   1.366   0.010  0.00  0.00    +0.002 A 
ATOM     21  C   UNL     1       1.156   2.107   0.002  0.00  0.00    +0.001 A 
ATOM     22  C   UNL     1       2.373   1.449  -0.013  0.00  0.00    +0.017 A 
ATOM     23  C   UNL     1       2.401   0.077  -0.020  0.00  0.00    +0.041 A 
ATOM     24  C   UNL     1       1.227  -0.710  -0.013  0.00  0.00    +0.080 A 
ATOM     25  C   UNL     1       0.002  -0.004   0.002  0.00  0.00    +0.029 A 
ATOM     26  N   UNL     1       1.419  -2.047  -0.023  0.00  0.00    -0.225 NA
ATOM     27  C   UNL     1       2.616  -2.588  -0.037  0.00  0.00    +0.159 A 
ATOM     28  S   UNL     1       3.682  -1.153  -0.040  0.00  0.00    -0.052 S 
ATOM     29  N   UNL     1       2.963  -3.924  -0.048  0.00  0.00    -0.322 N 
ATOM     30  H   UNL     1       2.271  -4.604  -0.045  0.00  0.00    +0.148 HD
ENDBRANCH  19  29
ENDBRANCH  18  19
ENDBRANCH   1  18
TORSDOF 4
