REMARK  Name = ZINC34733053
REMARK  11 active torsions:
REMARK  status: ('A' for Active; 'I' for Inactive)
REMARK    1  A    between atoms: C_1  and  C_2
REMARK    2  A    between atoms: C_2  and  C_3
REMARK    3  A    between atoms: C_4  and  C_34
REMARK    4  A    between atoms: N_11  and  C_26
REMARK    5  A    between atoms: N_14  and  C_17
REMARK    6  A    between atoms: C_17  and  C_18
REMARK    7  A    between atoms: C_26  and  C_27
REMARK    8  A    between atoms: N_29  and  C_30
REMARK    9  A    between atoms: N_29  and  C_32
REMARK   10  A    between atoms: C_30  and  C_31
REMARK   11  A    between atoms: C_32  and  C_33
REMARK                            x       y       z     vdW  Elec       q    Type
REMARK                         _______ _______ _______ _____ _____    ______ ____
ROOT
ATOM      1  C   UNL     1      -1.412  -0.526   0.013  0.00  0.00    -0.040 C 
ATOM      2  C   UNL     1      -2.083  -0.871  -1.070  0.00  0.00    -0.064 C 
ATOM      3  C   UNL     1      -3.451  -1.337  -0.625  0.00  0.00    +0.073 C 
ATOM      4  C   UNL     1      -3.438  -1.198   0.867  0.00  0.00    +0.004 A 
ATOM      5  C   UNL     1      -2.223  -0.721   1.248  0.00  0.00    +0.003 A 
ATOM      6  C   UNL     1      -2.026  -0.525   2.700  0.00  0.00    +0.078 A 
ATOM      7  C   UNL     1      -0.824  -0.022   3.397  0.00  0.00    +0.266 A 
ATOM      8  O   UNL     1       0.169   0.292   2.767  0.00  0.00    -0.267 OA
ATOM      9  N   UNL     1      -0.842   0.085   4.738  0.00  0.00    -0.251 N 
ATOM     10  C   UNL     1      -1.922  -0.253   5.463  0.00  0.00    +0.334 A 
ATOM     11  O   UNL     1      -1.887  -0.138   6.673  0.00  0.00    -0.246 OA
ATOM     12  N   UNL     1      -3.042  -0.717   4.874  0.00  0.00    -0.278 N 
ATOM     13  C   UNL     1      -3.104  -0.855   3.515  0.00  0.00    +0.098 A 
ATOM     14  S   UNL     1      -4.348  -1.398   2.375  0.00  0.00    -0.074 S 
ATOM     15  C   UNL     1      -1.579  -0.812  -2.489  0.00  0.00    +0.039 C 
ENDROOT
BRANCH   1  17
ATOM     16  C   UNL     1      -0.019   1.526   0.010  0.00  0.00    +0.009 C 
ATOM     17  C   UNL     1       0.002  -0.004   0.002  0.00  0.00    +0.032 C 
ENDBRANCH   1  17
BRANCH  12  18
ATOM     18  C   UNL     1      -4.201  -1.076   5.696  0.00  0.00    +0.223 C 
BRANCH  18  19
ATOM     19  C   UNL     1      -5.089   0.130   5.866  0.00  0.00    +0.236 C 
ATOM     20  O   UNL     1      -4.785   1.185   5.351  0.00  0.00    -0.274 OA
ATOM     21  N   UNL     1      -6.222   0.035   6.589  0.00  0.00    -0.296 N 
ATOM     22  C   UNL     1      -6.610  -1.233   7.228  0.00  0.00    +0.136 C 
ATOM     23  C   UNL     1      -6.931  -0.954   8.701  0.00  0.00    +0.179 C 
ATOM     24  O   UNL     1      -7.878   0.114   8.782  0.00  0.00    -0.377 OA
ATOM     25  C   UNL     1      -7.405   1.358   8.260  0.00  0.00    +0.179 C 
ATOM     26  C   UNL     1      -7.106   1.198   6.769  0.00  0.00    +0.136 C 
ENDBRANCH  18  19
ENDBRANCH  12  18
BRANCH   9  27
ATOM     27  C   UNL     1       0.350   0.585   5.428  0.00  0.00    +0.225 C 
BRANCH  27  28
ATOM     28  C   UNL     1       0.267   2.084   5.552  0.00  0.00    +0.236 C 
ATOM     29  O   UNL     1      -0.693   2.678   5.107  0.00  0.00    -0.274 OA
ATOM     30  N   UNL     1       1.260   2.766   6.156  0.00  0.00    -0.301 N 
BRANCH  30  31
ATOM     31  C   UNL     1       1.180   4.224   6.277  0.00  0.00    +0.104 C 
ATOM     32  C   UNL     1       0.478   4.590   7.586  0.00  0.00    +0.024 C 
ENDBRANCH  30  31
BRANCH  30  33
ATOM     33  C   UNL     1       2.420   2.050   6.693  0.00  0.00    +0.104 C 
ATOM     34  C   UNL     1       3.498   1.942   5.613  0.00  0.00    +0.024 C 
ENDBRANCH  30  33
ENDBRANCH  27  28
ENDBRANCH   9  27
TORSDOF 7
