REMARK  Name = ZINC19345578
REMARK  5 active torsions:
REMARK  status: ('A' for Active; 'I' for Inactive)
REMARK    1  A    between atoms: C_6  and  C_7
REMARK    2  A    between atoms: C_7  and  C_9
REMARK    3  A    between atoms: C_7  and  O_28
REMARK    4  A    between atoms: C_9  and  N_10
REMARK    5  A    between atoms: C_17  and  O_27
REMARK                            x       y       z     vdW  Elec       q    Type
REMARK                         _______ _______ _______ _____ _____    ______ ____
ROOT
ATOM      1  N   UNL     1       5.305  -1.863  -1.595  0.00  0.00    +0.382 N 
ATOM      2  C   UNL     1       5.289  -2.985  -0.647  0.00  0.00    -0.075 C 
ATOM      3  C   UNL     1       6.642  -3.701  -0.679  0.00  0.00    +0.029 C 
ATOM      4  C   UNL     1       6.913  -4.206  -2.097  0.00  0.00    +0.110 C 
ATOM      5  C   UNL     1       6.873  -3.029  -3.073  0.00  0.00    +0.029 C 
ATOM      6  C   UNL     1       5.514  -2.333  -2.970  0.00  0.00    -0.075 C 
ATOM      7  C   UNL     1       8.295  -4.867  -2.148  0.00  0.00    +0.084 C 
ATOM      8  C   UNL     1       8.584  -5.271  -3.596  0.00  0.00    +0.152 C 
ATOM      9  C   UNL     1       7.395  -6.001  -4.166  0.00  0.00    +0.024 A 
ATOM     10  C   UNL     1       7.570  -6.772  -5.303  0.00  0.00    +0.029 A 
ATOM     11  C   UNL     1       6.500  -7.449  -5.859  0.00  0.00    +0.042 A 
ATOM     12  C   UNL     1       5.248  -7.356  -5.278  0.00  0.00    +0.023 A 
ATOM     13  C   UNL     1       5.069  -6.590  -4.145  0.00  0.00    +0.047 A 
ATOM     14  C   UNL     1       6.144  -5.911  -3.582  0.00  0.00    +0.127 A 
ATOM     15  O   UNL     1       5.929  -5.172  -2.461  0.00  0.00    -0.485 OA
ATOM     16 CL   UNL     1       6.728  -8.415  -7.283  0.00  0.00    -0.084 Cl
ATOM     17  H   UNL     1       6.153  -1.214  -1.330  0.00  0.00    -0.082 HD
ENDROOT
BRANCH   8  18
ATOM     18  O   UNL     1       9.729  -6.125  -3.632  0.00  0.00    -0.387 OA
ATOM     19  H   UNL     1      10.091  -6.518  -4.593  0.00  0.00    +0.210 HD
ENDBRANCH   8  18
BRANCH   1  20
ATOM     20  C   UNL     1       4.074  -1.069  -1.490  0.00  0.00    -0.042 C 
BRANCH  20  21
ATOM     21  C   UNL     1       4.232   0.224  -2.294  0.00  0.00    +0.128 C 
BRANCH  21  27
ATOM     22  C   UNL     1       2.805   1.893  -1.096  0.00  0.00    +0.010 A 
ATOM     23  C   UNL     1       1.653   2.649  -0.982  0.00  0.00    +0.050 A 
ATOM     24  C   UNL     1       0.664   2.558  -1.950  0.00  0.00    +0.162 A 
ATOM     25  C   UNL     1       0.836   1.708  -3.036  0.00  0.00    +0.162 A 
ATOM     26  C   UNL     1       1.994   0.953  -3.144  0.00  0.00    +0.055 A 
ATOM     27  C   UNL     1       2.975   1.046  -2.174  0.00  0.00    -0.017 A 
ATOM     28  O   UNL     1      -0.118   1.609  -4.002  0.00  0.00    -0.485 OA
ATOM     29  C   UNL     1      -1.423   2.097  -3.670  0.00  0.00    +0.270 C 
ATOM     30  C   UNL     1      -1.266   3.469  -2.998  0.00  0.00    +0.270 C 
ATOM     31  O   UNL     1      -0.469   3.302  -1.820  0.00  0.00    -0.485 OA
ENDBRANCH  21  27
BRANCH  21  32
ATOM     32  O   UNL     1       5.339   0.969  -1.784  0.00  0.00    -0.389 OA
ATOM     33  H   UNL     1       6.347   0.529  -1.788  0.00  0.00    +0.210 HD
ENDBRANCH  21  32
ENDBRANCH  20  21
ENDBRANCH   1  20
TORSDOF 5
