REMARK  Name = ZINC09819280
REMARK  7 active torsions:
REMARK  status: ('A' for Active; 'I' for Inactive)
REMARK    1  A    between atoms: C_1  and  C_2
REMARK    2  A    between atoms: C_3  and  N_14
REMARK    3  A    between atoms: C_4  and  C_13
REMARK    4  A    between atoms: N_5  and  C_7
REMARK    5  A    between atoms: C_15  and  C_17
REMARK    6  A    between atoms: C_17  and  N_59
REMARK    7  A    between atoms: C_20  and  C_23
REMARK                            x       y       z     vdW  Elec       q    Type
REMARK                         _______ _______ _______ _____ _____    ______ ____
ROOT
ATOM      1  N   UNL     1       4.815   8.977  -1.102  0.00  0.00    -0.284 N 
ATOM      2  C   UNL     1       4.219   7.778  -0.951  0.00  0.00    +0.201 C 
ATOM      3  O   UNL     1       4.326   6.934  -1.816  0.00  0.00    -0.278 OA
ATOM      4  H   UNL     1       4.659   9.681  -0.453  0.00  0.00    +0.155 HD
ENDROOT
BRANCH   1   7
ATOM      5  C   UNL     1       6.547   6.789  -2.486  0.00  0.00    +0.069 C 
ATOM      6  C   UNL     1       6.456   8.249  -2.849  0.00  0.00    +0.082 A 
ATOM      7  C   UNL     1       5.663   9.209  -2.201  0.00  0.00    +0.078 A 
ATOM      8  C   UNL     1       5.864  10.400  -2.819  0.00  0.00    +0.063 A 
ATOM      9  N   UNL     1       6.752  10.194  -3.829  0.00  0.00    -0.235 N 
ATOM     10  N   UNL     1       7.101   8.837  -3.824  0.00  0.00    -0.170 NA
ATOM     11  C   UNL     1       5.219  11.713  -2.454  0.00  0.00    +0.068 C 
BRANCH   9  12
ATOM     12  C   UNL     1       7.232  11.166  -4.718  0.00  0.00    +0.066 A 
ATOM     13  C   UNL     1       7.362  10.870  -6.068  0.00  0.00    +0.028 A 
ATOM     14  C   UNL     1       7.831  11.832  -6.942  0.00  0.00    +0.002 A 
ATOM     15  C   UNL     1       8.180  13.085  -6.471  0.00  0.00    +0.000 A 
ATOM     16  C   UNL     1       8.056  13.380  -5.126  0.00  0.00    +0.002 A 
ATOM     17  C   UNL     1       7.584  12.424  -4.248  0.00  0.00    +0.028 A 
ENDBRANCH   9  12
ENDBRANCH   1   7
BRANCH   2  18
ATOM     18  C   UNL     1       3.420   7.485   0.292  0.00  0.00    +0.019 C 
BRANCH  18  24
ATOM     19  C   UNL     1       2.295   5.714   1.501  0.00  0.00    -0.078 C 
ATOM     20  C   UNL     1       1.873   4.245   1.428  0.00  0.00    -0.009 C 
ATOM     21  C   UNL     1       0.849   4.069   0.303  0.00  0.00    +0.041 C 
ATOM     22  C   UNL     1       1.461   4.546  -1.016  0.00  0.00    -0.009 C 
ATOM     23  C   UNL     1       1.897   6.006  -0.872  0.00  0.00    -0.078 C 
ATOM     24  N   UNL     1       2.901   6.104   0.210  0.00  0.00    +0.385 N 
ATOM     25  H   UNL     1       3.678   5.467   0.001  0.00  0.00    -0.081 HD
BRANCH  21  26
ATOM     26  C   UNL     1       0.474   2.614   0.187  0.00  0.00    +0.082 A 
ATOM     27  N   UNL     1      -0.703   2.069   0.318  0.00  0.00    -0.244 NA
ATOM     28  C   UNL     1      -0.906   0.741   0.189  0.00  0.00    +0.078 A 
ATOM     29  C   UNL     1      -2.108   0.009   0.301  0.00  0.00    +0.029 A 
ATOM     30  C   UNL     1      -2.117  -1.341   0.135  0.00  0.00    +0.002 A 
ATOM     31  C   UNL     1      -0.956  -2.048  -0.148  0.00  0.00    +0.001 A 
ATOM     32  C   UNL     1       0.241  -1.368  -0.266  0.00  0.00    +0.017 A 
ATOM     33  C   UNL     1       0.260  -0.004  -0.100  0.00  0.00    +0.039 A 
ATOM     34  S   UNL     1       1.506   1.260  -0.154  0.00  0.00    -0.072 S 
ENDBRANCH  21  26
ENDBRANCH  18  24
ENDBRANCH   2  18
TORSDOF 5
