REMARK  Name = ZINC09222451
REMARK  9 active torsions:
REMARK  status: ('A' for Active; 'I' for Inactive)
REMARK    1  A    between atoms: C_1  and  O_2
REMARK    2  A    between atoms: O_2  and  C_3
REMARK    3  A    between atoms: C_5  and  C_23
REMARK    4  A    between atoms: C_7  and  S_11
REMARK    5  A    between atoms: C_8  and  O_9
REMARK    6  A    between atoms: O_9  and  C_10
REMARK    7  A    between atoms: S_11  and  N_14
REMARK    8  A    between atoms: C_24  and  C_25
REMARK    9  A    between atoms: C_32  and  C_34
REMARK                            x       y       z     vdW  Elec       q    Type
REMARK                         _______ _______ _______ _____ _____    ______ ____
ROOT
ATOM      1  C   UNL     1       9.358  -2.111  -3.700  0.00  0.00    +0.164 A 
ATOM      2  C   UNL     1       9.396  -0.794  -4.113  0.00  0.00    +0.057 A 
ATOM      3  C   UNL     1       9.640   0.222  -3.181  0.00  0.00    -0.019 A 
ATOM      4  C   UNL     1       9.843  -0.103  -1.835  0.00  0.00    +0.040 A 
ATOM      5  C   UNL     1       9.803  -1.420  -1.431  0.00  0.00    +0.154 A 
ATOM      6  C   UNL     1       9.567  -2.427  -2.358  0.00  0.00    +0.188 A 
ENDROOT
BRANCH   5   7
ATOM      7  S   UNL     1      10.058  -1.827   0.264  0.00  0.00    +0.078 S 
ATOM      8  O   UNL     1       9.011  -2.716   0.630  0.00  0.00    -0.150 OA
ATOM      9  O   UNL     1      10.292  -0.603   0.945  0.00  0.00    -0.150 OA
BRANCH   7  10
ATOM     10  N   UNL     1      11.467  -2.694   0.352  0.00  0.00    -0.202 N 
ATOM     11  C   UNL     1      11.553  -4.157   0.370  0.00  0.00    +0.136 C 
ATOM     12  C   UNL     1      13.055  -4.471   0.459  0.00  0.00    +0.058 C 
ATOM     13  C   UNL     1      13.726  -3.115   0.485  0.00  0.00    -0.023 A 
ATOM     14  C   UNL     1      12.745  -2.137   0.420  0.00  0.00    +0.054 A 
ATOM     15  C   UNL     1      13.126  -0.794   0.430  0.00  0.00    +0.025 A 
ATOM     16  C   UNL     1      14.459  -0.450   0.503  0.00  0.00    +0.002 A 
ATOM     17  C   UNL     1      15.429  -1.433   0.567  0.00  0.00    +0.000 A 
ATOM     18  C   UNL     1      15.060  -2.766   0.558  0.00  0.00    +0.005 A 
ENDBRANCH   7  10
ENDBRANCH   5   7
BRANCH   1  20
ATOM     19  C   UNL     1       8.923  -2.704  -5.961  0.00  0.00    +0.277 C 
ATOM     20  O   UNL     1       9.122  -3.100  -4.603  0.00  0.00    -0.491 OA
ENDBRANCH   1  20
BRANCH   6  21
ATOM     21  O   UNL     1       9.534  -3.724  -1.955  0.00  0.00    -0.490 OA
ATOM     22  C   UNL     1       8.248  -4.290  -1.696  0.00  0.00    +0.277 C 
ENDBRANCH   6  21
BRANCH   3  23
ATOM     23  C   UNL     1       9.681   1.626  -3.615  0.00  0.00    +0.013 C 
ATOM     24  C   UNL     1       9.485   1.937  -4.913  0.00  0.00    +0.068 C 
BRANCH  24  25
ATOM     25  C   UNL     1       9.527   3.334  -5.345  0.00  0.00    +0.240 C 
ATOM     26  O   UNL     1       9.835   4.206  -4.553  0.00  0.00    -0.271 OA
ATOM     27  N   UNL     1       9.224   3.655  -6.618  0.00  0.00    -0.286 N 
ATOM     28  C   UNL     1       8.742   2.631  -7.554  0.00  0.00    +0.109 C 
ATOM     29  C   UNL     1       7.422   3.107  -8.169  0.00  0.00    +0.019 C 
ATOM     30  C   UNL     1       7.626   4.487  -8.798  0.00  0.00    +0.004 C 
ATOM     31  C   UNL     1       8.043   5.486  -7.716  0.00  0.00    +0.032 C 
ATOM     32  C   UNL     1       9.364   5.038  -7.095  0.00  0.00    +0.162 C 
BRANCH  32  33
ATOM     33  C   UNL     1       9.707   5.939  -5.936  0.00  0.00    +0.231 C 
ATOM     34  O   UNL     1       9.010   5.943  -4.944  0.00  0.00    -0.274 OA
ATOM     35  N   UNL     1      10.787   6.742  -6.004  0.00  0.00    -0.328 N 
ATOM     36  H   UNL     1      11.344   6.740  -6.798  0.00  0.00    +0.145 HD
ATOM     37  H   UNL     1      11.008   7.322  -5.258  0.00  0.00    +0.145 HD
ENDBRANCH  32  33
ENDBRANCH  24  25
ENDBRANCH   3  23
TORSDOF 7
