REMARK  Name = ZINC66583261
REMARK  7 active torsions:
REMARK  status: ('A' for Active; 'I' for Inactive)
REMARK    1  A    between atoms: C_6  and  C_7
REMARK    2  A    between atoms: C_8  and  S_9
REMARK    3  A    between atoms: S_9  and  N_12
REMARK    4  A    between atoms: N_12  and  C_13
REMARK    5  A    between atoms: N_16  and  C_18
REMARK    6  A    between atoms: C_18  and  C_19
REMARK    7  A    between atoms: C_19  and  O_20
REMARK                            x       y       z     vdW  Elec       q    Type
REMARK                         _______ _______ _______ _____ _____    ______ ____
ROOT
ATOM      1  S   UNL     1      -2.757  -2.994   0.013  0.00  0.00    +0.066 S 
ATOM      2  O   UNL     1      -2.635  -3.977   1.032  0.00  0.00    -0.151 OA
ATOM      3  O   UNL     1      -3.805  -2.034   0.002  0.00  0.00    -0.151 OA
ENDROOT
BRANCH   1   5
ATOM      4  C   UNL     1      -1.266  -0.763   0.011  0.00  0.00    +0.028 C 
ATOM      5  C   UNL     1      -1.245  -2.089   0.003  0.00  0.00    +0.157 C 
BRANCH   4  11
ATOM      6  C   UNL     1      -0.017   1.391   0.010  0.00  0.00    +0.009 A 
ATOM      7  C   UNL     1       1.170   2.094   0.002  0.00  0.00    +0.016 A 
ATOM      8  C   UNL     1       2.378   1.419  -0.013  0.00  0.00    +0.018 A 
ATOM      9  C   UNL     1       2.403   0.034  -0.021  0.00  0.00    +0.016 A 
ATOM     10  C   UNL     1       1.223  -0.680  -0.014  0.00  0.00    +0.009 A 
ATOM     11  C   UNL     1       0.002  -0.004   0.002  0.00  0.00    -0.024 A 
ATOM     12 BR   UNL     1       4.000   2.390  -0.025  0.00  0.00    -0.050 Br
ENDBRANCH   4  11
ENDBRANCH   1   5
BRANCH   1  13
ATOM     13  N   UNL     1      -2.848  -3.811  -1.424  0.00  0.00    -0.214 N 
ATOM     14  H   UNL     1      -3.545  -3.594  -2.062  0.00  0.00    +0.174 HD
BRANCH  13  15
ATOM     15  C   UNL     1      -1.913  -4.822  -1.719  0.00  0.00    +0.085 A 
ATOM     16  C   UNL     1      -0.527  -4.749  -1.520  0.00  0.00    +0.158 A 
ATOM     17  N   UNL     1       0.006  -5.878  -1.911  0.00  0.00    -0.178 NA
ATOM     18  N   UNL     1      -1.019  -6.713  -2.374  0.00  0.00    -0.267 N 
ATOM     19  C   UNL     1      -2.195  -6.043  -2.241  0.00  0.00    +0.132 A 
BRANCH  18  20
ATOM     20  C   UNL     1      -0.855  -8.069  -2.903  0.00  0.00    +0.171 C 
BRANCH  20  21
ATOM     21  C   UNL     1       0.153  -8.049  -4.055  0.00  0.00    +0.179 C 
BRANCH  21  22
ATOM     22  O   UNL     1       0.313  -9.372  -4.571  0.00  0.00    -0.393 OA
ATOM     23  H   UNL     1       0.939  -9.434  -5.305  0.00  0.00    +0.209 HD
ENDBRANCH  21  22
ENDBRANCH  20  21
ENDBRANCH  18  20
ENDBRANCH  13  15
ENDBRANCH   1  13
TORSDOF 7
