REMARK  Name = ZINC52712389
REMARK  11 active torsions:
REMARK  status: ('A' for Active; 'I' for Inactive)
REMARK    1  A    between atoms: C_1  and  C_2
REMARK    2  A    between atoms: C_2  and  O_3
REMARK    3  A    between atoms: O_3  and  C_4
REMARK    4  A    between atoms: C_11  and  C_13
REMARK    5  A    between atoms: C_13  and  C_15
REMARK    6  A    between atoms: C_13  and  N_16
REMARK    7  A    between atoms: N_16  and  C_17
REMARK    8  A    between atoms: C_17  and  C_19
REMARK    9  A    between atoms: C_17  and  C_20
REMARK   10  A    between atoms: N_22  and  C_23
REMARK   11  A    between atoms: C_28  and  N_29
REMARK                            x       y       z     vdW  Elec       q    Type
REMARK                         _______ _______ _______ _____ _____    ______ ____
ROOT
ATOM      1  N   UNL     1       2.575  -1.307  -6.346  0.00  0.00    +0.393 N 
ATOM      2  H   UNL     1       1.591  -1.495  -6.466  0.00  0.00    -0.084 HD
ATOM      3  H   UNL     1       2.693  -0.471  -5.793  0.00  0.00    -0.084 HD
ENDROOT
BRANCH   1   4
ATOM      4  C   UNL     1       3.210  -2.440  -5.661  0.00  0.00    -0.006 C 
ATOM      5  C   UNL     1       4.674  -2.104  -5.368  0.00  0.00    -0.006 C 
BRANCH   4  13
ATOM      6  C   UNL     1       0.797  -1.806  -1.330  0.00  0.00    +0.163 A 
ATOM      7  C   UNL     1       0.261  -2.658  -0.383  0.00  0.00    +0.049 A 
ATOM      8  C   UNL     1       0.347  -4.034  -0.540  0.00  0.00    +0.004 A 
ATOM      9  C   UNL     1       0.970  -4.569  -1.646  0.00  0.00    +0.012 A 
ATOM     10  C   UNL     1       1.515  -3.722  -2.611  0.00  0.00    +0.024 A 
ATOM     11  C   UNL     1       1.425  -2.329  -2.458  0.00  0.00    +0.176 A 
ATOM     12  O   UNL     1       2.024  -1.770  -3.530  0.00  0.00    -0.458 OA
ATOM     13  C   UNL     1       2.488  -2.714  -4.367  0.00  0.00    +0.092 A 
ATOM     14  C   UNL     1       2.227  -3.933  -3.877  0.00  0.00    +0.051 A 
BRANCH   6  15
ATOM     15  O   UNL     1       0.707  -0.459  -1.164  0.00  0.00    -0.489 OA
BRANCH  15  17
ATOM     16  C   UNL     1       0.046   1.536   0.028  0.00  0.00    +0.048 C 
ATOM     17  C   UNL     1       0.050   0.006   0.016  0.00  0.00    +0.226 C 
ENDBRANCH  15  17
ENDBRANCH   6  15
ENDBRANCH   4  13
ENDBRANCH   1   4
BRANCH   1  18
ATOM     18  C   UNL     1       3.201  -1.116  -7.661  0.00  0.00    +0.014 C 
ATOM     19  C   UNL     1       2.916  -2.333  -8.543  0.00  0.00    -0.004 C 
BRANCH  18  20
ATOM     20  C   UNL     1       2.636   0.120  -8.312  0.00  0.00    +0.203 C 
ATOM     21  O   UNL     1       1.794   0.777  -7.737  0.00  0.00    -0.277 OA
ATOM     22  N   UNL     1       3.065   0.495  -9.533  0.00  0.00    -0.285 N 
ATOM     23  H   UNL     1       3.794   0.017  -9.959  0.00  0.00    +0.155 HD
BRANCH  22  24
ATOM     24  C   UNL     1       2.459   1.574 -10.187  0.00  0.00    +0.064 A 
ATOM     25  C   UNL     1       1.150   1.924  -9.885  0.00  0.00    +0.025 A 
ATOM     26  C   UNL     1       0.555   2.989 -10.533  0.00  0.00    +0.002 A 
ATOM     27  C   UNL     1       1.262   3.706 -11.481  0.00  0.00    +0.002 A 
ATOM     28  C   UNL     1       2.565   3.360 -11.784  0.00  0.00    +0.034 A 
ATOM     29  C   UNL     1       3.168   2.299 -11.135  0.00  0.00    +0.147 A 
BRANCH  29  30
ATOM     30  N   UNL     1       4.566   1.933 -11.456  0.00  0.00    +0.058 N 
ATOM     31  O   UNL     1       5.212   2.618 -12.214  0.00  0.00    -0.126 OA
ATOM     32  O   UNL     1       5.062   0.949 -10.958  0.00  0.00    -0.126 OA
ENDBRANCH  29  30
ENDBRANCH  22  24
ENDBRANCH  18  20
ENDBRANCH   1  18
TORSDOF 8
