REMARK  Name = ZINC59437528
REMARK  6 active torsions:
REMARK  status: ('A' for Active; 'I' for Inactive)
REMARK    1  A    between atoms: C_1  and  C_2
REMARK    2  A    between atoms: C_2  and  O_3
REMARK    3  A    between atoms: O_3  and  C_4
REMARK    4  A    between atoms: N_13  and  C_14
REMARK    5  A    between atoms: C_14  and  N_16
REMARK    6  A    between atoms: C_17  and  C_19
REMARK                            x       y       z     vdW  Elec       q    Type
REMARK                         _______ _______ _______ _____ _____    ______ ____
ROOT
ATOM      1  C   UNL     1       0.820  -1.825   1.294  0.00  0.00    +0.122 A 
ATOM      2  C   UNL     1       0.280  -2.683   0.344  0.00  0.00    +0.048 A 
ATOM      3  C   UNL     1       0.378  -4.047   0.479  0.00  0.00    +0.030 A 
ATOM      4  C   UNL     1       1.029  -4.619   1.586  0.00  0.00    +0.055 A 
ATOM      5  C   UNL     1       1.564  -3.729   2.528  0.00  0.00    +0.042 A 
ATOM      6  C   UNL     1       1.473  -2.364   2.393  0.00  0.00    +0.062 A 
ATOM      7  S   UNL     1       2.287  -4.802   3.745  0.00  0.00    -0.052 S 
ATOM      8  C   UNL     1       1.865  -6.360   2.982  0.00  0.00    +0.163 A 
ATOM      9  N   UNL     1       1.205  -5.966   1.856  0.00  0.00    -0.335 N 
ATOM     10  N   UNL     1       2.128  -7.591   3.404  0.00  0.00    -0.169 NA
ATOM     11  H   UNL     1       0.857  -6.632   1.242  0.00  0.00    +0.168 HD
ENDROOT
BRANCH  10  12
ATOM     12  C   UNL     1       1.641  -8.644   2.739  0.00  0.00    +0.163 C 
ATOM     13  S   UNL     1       2.154  -8.955   1.136  0.00  0.00    -0.016 S 
BRANCH  12  14
ATOM     14  N   UNL     1       0.747  -9.460   3.331  0.00  0.00    -0.262 N 
ATOM     15  C   UNL     1       0.257 -10.522   2.660  0.00  0.00    +0.250 C 
ATOM     16  O   UNL     1       0.621 -10.743   1.522  0.00  0.00    -0.270 OA
ATOM     17  H   UNL     1       0.456  -9.284   4.239  0.00  0.00    +0.157 HD
BRANCH  15  18
ATOM     18  C   UNL     1      -0.724 -11.416   3.309  0.00  0.00    +0.037 A 
ATOM     19  C   UNL     1      -1.149 -11.162   4.615  0.00  0.00    +0.014 A 
ATOM     20  C   UNL     1      -2.064 -12.001   5.215  0.00  0.00    +0.015 A 
ATOM     21  C   UNL     1      -2.562 -13.093   4.525  0.00  0.00    +0.013 A 
ATOM     22  C   UNL     1      -2.145 -13.351   3.231  0.00  0.00    +0.015 A 
ATOM     23  C   UNL     1      -1.234 -12.517   2.618  0.00  0.00    +0.014 A 
ATOM     24  I   UNL     1      -3.953 -14.362   5.445  0.00  0.00    -0.044 I 
ENDBRANCH  15  18
ENDBRANCH  12  14
ENDBRANCH  10  12
BRANCH   1  25
ATOM     25  O   UNL     1       0.714  -0.478   1.145  0.00  0.00    -0.492 OA
BRANCH  25  27
ATOM     26  C   UNL     1       0.009   1.525  -0.009  0.00  0.00    +0.048 C 
ATOM     27  C   UNL     1       0.027  -0.005  -0.015  0.00  0.00    +0.225 C 
ENDBRANCH  25  27
ENDBRANCH   1  25
TORSDOF 5
