REMARK  Name = ZINC66792216
REMARK  7 active torsions:
REMARK  status: ('A' for Active; 'I' for Inactive)
REMARK    1  A    between atoms: C_1  and  C_2
REMARK    2  A    between atoms: C_2  and  C_3
REMARK    3  A    between atoms: C_2  and  C_4
REMARK    4  A    between atoms: C_2  and  C_5
REMARK    5  A    between atoms: N_10  and  C_12
REMARK    6  A    between atoms: C_12  and  N_13
REMARK    7  A    between atoms: C_21  and  C_23
REMARK                            x       y       z     vdW  Elec       q    Type
REMARK                         _______ _______ _______ _____ _____    ______ ____
ROOT
ATOM      1  N   UNL     1       1.185   1.639  -4.816  0.00  0.00    +0.400 N 
ATOM      2  C   UNL     1       0.564   0.608  -5.658  0.00  0.00    -0.070 C 
ATOM      3  C   UNL     1      -0.788   1.133  -6.171  0.00  0.00    +0.024 C 
ATOM      4  C   UNL     1      -0.566   2.517  -6.688  0.00  0.00    -0.010 A 
ATOM      5  C   UNL     1       0.535   3.292  -6.479  0.00  0.00    -0.046 A 
ATOM      6  C   UNL     1       0.527   4.555  -7.065  0.00  0.00    +0.010 A 
ATOM      7  C   UNL     1      -0.541   4.956  -7.795  0.00  0.00    +0.045 A 
ATOM      8  S   UNL     1      -1.616   3.532  -7.688  0.00  0.00    -0.101 S 
ATOM      9  C   UNL     1       1.684   2.751  -5.635  0.00  0.00    -0.003 C 
ATOM     10  H   UNL     1       0.501   1.990  -4.162  0.00  0.00    -0.078 HD
ENDROOT
BRANCH   9  11
ATOM     11  C   UNL     1       2.211   3.842  -4.739  0.00  0.00    -0.057 A 
ATOM     12  C   UNL     1       1.541   4.162  -3.573  0.00  0.00    +0.002 A 
ATOM     13  C   UNL     1       2.025   5.163  -2.751  0.00  0.00    +0.000 A 
ATOM     14  C   UNL     1       3.178   5.843  -3.095  0.00  0.00    +0.000 A 
ATOM     15  C   UNL     1       3.848   5.522  -4.260  0.00  0.00    +0.000 A 
ATOM     16  C   UNL     1       3.367   4.518  -5.080  0.00  0.00    +0.002 A 
ENDBRANCH   9  11
BRANCH   1  17
ATOM     17  C   UNL     1       2.304   1.046  -4.072  0.00  0.00    +0.074 C 
BRANCH  17  23
ATOM     18  C   UNL     1       0.707  -0.490  -1.238  0.00  0.00    +0.067 A 
ATOM     19  C   UNL     1       0.845  -1.869  -1.467  0.00  0.00    +0.031 A 
ATOM     20  C   UNL     1       1.489  -2.277  -2.600  0.00  0.00    +0.073 A 
ATOM     21  C   UNL     1       1.978  -1.282  -3.474  0.00  0.00    +0.266 A 
ATOM     22  O   UNL     1       2.561  -1.594  -4.500  0.00  0.00    -0.266 OA
ATOM     23  N   UNL     1       1.795   0.016  -3.163  0.00  0.00    -0.246 N 
ATOM     24  N   UNL     1       1.181   0.373  -2.093  0.00  0.00    -0.174 NA
BRANCH  18  26
ATOM     25  C   UNL     1      -0.019   1.526   0.010  0.00  0.00    +0.017 C 
ATOM     26  C   UNL     1       0.002  -0.004   0.002  0.00  0.00    +0.006 C 
ATOM     27  C   UNL     1       0.742  -0.511   1.242  0.00  0.00    +0.017 C 
ATOM     28  C   UNL     1      -1.433  -0.534   0.013  0.00  0.00    +0.017 C 
ENDBRANCH  18  26
ENDBRANCH  17  23
ENDBRANCH   1  17
TORSDOF 4
