REMARK  Name = ZINC32094196
REMARK  3 active torsions:
REMARK  status: ('A' for Active; 'I' for Inactive)
REMARK    1  A    between atoms: C_1  and  C_2
REMARK    2  A    between atoms: C_17  and  C_19
REMARK    3  A    between atoms: C_19  and  C_21
REMARK                            x       y       z     vdW  Elec       q    Type
REMARK                         _______ _______ _______ _____ _____    ______ ____
ROOT
ATOM      1  C   UNL     1      -0.018   1.503   0.010  0.00  0.00    +0.068 C 
ATOM      2  C   UNL     1       0.002  -0.004   0.002  0.00  0.00    +0.066 A 
ATOM      3  C   UNL     1       0.008  -0.810  -1.127  0.00  0.00    +0.026 A 
ATOM      4  C   UNL     1       0.032  -2.116  -0.715  0.00  0.00    +0.136 A 
ATOM      5  N   UNL     1       0.032  -2.117   0.636  0.00  0.00    -0.183 N 
ATOM      6  N   UNL     1       0.023  -0.778   1.062  0.00  0.00    -0.167 NA
ATOM      7  C   UNL     1       0.044  -3.242   1.458  0.00  0.00    +0.253 A 
ATOM      8  N   UNL     1       0.063  -4.445   0.906  0.00  0.00    -0.219 NA
ATOM      9  C   UNL     1       0.075  -5.533   1.657  0.00  0.00    +0.116 A 
ATOM     10  C   UNL     1       0.068  -5.403   3.037  0.00  0.00    +0.039 A 
ATOM     11  C   UNL     1       0.048  -4.128   3.581  0.00  0.00    +0.116 A 
ATOM     12  N   UNL     1       0.043  -3.081   2.772  0.00  0.00    -0.219 NA
ATOM     13  N   UNL     1       0.064  -3.175  -1.620  0.00  0.00    -0.270 N 
ATOM     14  C   UNL     1       0.274  -2.891  -2.923  0.00  0.00    +0.219 C 
ATOM     15  O   UNL     1       0.118  -3.767  -3.748  0.00  0.00    -0.275 OA
ATOM     16  C   UNL     1       0.694  -1.524  -3.384  0.00  0.00    +0.112 C 
ATOM     17  C   UNL     1      -0.013  -0.426  -2.585  0.00  0.00    +0.104 C 
ATOM     18  H   UNL     1      -0.062  -4.089  -1.323  0.00  0.00    +0.156 HD
ENDROOT
BRANCH  17  19
ATOM     19  C   UNL     1      -1.439  -0.295  -3.055  0.00  0.00    +0.171 C 
ATOM     20  O   UNL     1      -2.323  -0.900  -2.486  0.00  0.00    -0.291 OA
BRANCH  19  21
ATOM     21  C   UNL     1      -1.759   0.567  -4.203  0.00  0.00    +0.019 A 
ATOM     22  C   UNL     1      -0.741   1.262  -4.866  0.00  0.00    +0.013 A 
ATOM     23  C   UNL     1      -1.048   2.067  -5.941  0.00  0.00    +0.022 A 
ATOM     24  C   UNL     1      -2.360   2.190  -6.368  0.00  0.00    +0.059 A 
ATOM     25  C   UNL     1      -3.374   1.505  -5.716  0.00  0.00    +0.060 A 
ATOM     26  C   UNL     1      -3.081   0.690  -4.642  0.00  0.00    +0.032 A 
ATOM     27 CL   UNL     1      -5.016   1.666  -6.259  0.00  0.00    -0.082 Cl
ATOM     28 CL   UNL     1      -2.736   3.207  -7.723  0.00  0.00    -0.082 Cl
ENDBRANCH  19  21
ENDBRANCH  17  19
TORSDOF 2
