REMARK  Name = ZINC20262087
REMARK  5 active torsions:
REMARK  status: ('A' for Active; 'I' for Inactive)
REMARK    1  A    between atoms: C_1  and  C_2
REMARK    2  A    between atoms: C_2  and  C_3
REMARK    3  A    between atoms: C_2  and  C_4
REMARK    4  A    between atoms: N_8  and  C_9
REMARK    5  A    between atoms: C_15  and  N_17
REMARK                            x       y       z     vdW  Elec       q    Type
REMARK                         _______ _______ _______ _____ _____    ______ ____
ROOT
ATOM      1  C   UNL     1      -0.013   1.086   0.008  0.00  0.00    +0.079 C 
ATOM      2  C   UNL     1       1.493   1.318   0.153  0.00  0.00    +0.088 C 
ATOM      3  C   UNL     1       1.762   2.813   0.335  0.00  0.00    +0.172 C 
ATOM      4  C   UNL     1       1.238   3.586  -0.877  0.00  0.00    +0.063 C 
ATOM      5  C   UNL     1      -0.267   3.349  -1.020  0.00  0.00    -0.009 C 
ATOM      6  C   UNL     1      -0.532   1.854  -1.209  0.00  0.00    -0.052 C 
ATOM      7  O   UNL     1       3.176   3.031   0.466  0.00  0.00    -0.346 OA
ATOM      8  C   UNL     1       3.296   4.115   1.419  0.00  0.00    +0.191 C 
ATOM      9  C   UNL     1       2.130   3.808   2.393  0.00  0.00    +0.191 C 
ATOM     10  O   UNL     1       1.109   3.279   1.522  0.00  0.00    -0.346 OA
ENDROOT
BRANCH   1  15
ATOM     11  C   UNL     1      -1.325   0.791   2.132  0.00  0.00    +0.090 A 
ATOM     12  N   UNL     1      -1.812   1.566   3.062  0.00  0.00    -0.349 N 
ATOM     13  C   UNL     1      -1.525   2.843   2.769  0.00  0.00    +0.101 A 
ATOM     14  C   UNL     1      -0.829   2.860   1.616  0.00  0.00    +0.105 A 
ATOM     15  N   UNL     1      -0.698   1.558   1.213  0.00  0.00    -0.334 N 
ATOM     16  H   UNL     1      -2.357   1.130   3.912  0.00  0.00    +0.166 HD
BRANCH  11  18
ATOM     17  C   UNL     1      -0.784  -1.306   3.339  0.00  0.00    +0.015 C 
ATOM     18  C   UNL     1      -1.439  -0.711   2.091  0.00  0.00    +0.047 C 
ATOM     19  C   UNL     1      -2.916  -1.109   2.050  0.00  0.00    +0.015 C 
ENDBRANCH  11  18
ENDBRANCH   1  15
BRANCH   6  20
ATOM     20  N   UNL     1      -1.977   1.628  -1.351  0.00  0.00    +0.381 N 
ATOM     21  H   UNL     1      -2.350   2.180  -2.225  0.00  0.00    -0.090 HD
ATOM     22  H   UNL     1      -2.494   1.980  -0.446  0.00  0.00    -0.090 HD
ATOM     23  H   UNL     1      -2.168   0.553  -1.487  0.00  0.00    -0.090 HD
ENDBRANCH   6  20
TORSDOF 3
