REMARK  Name = ZINC40291813
REMARK  6 active torsions:
REMARK  status: ('A' for Active; 'I' for Inactive)
REMARK    1  A    between atoms: C_1  and  C_2
REMARK    2  A    between atoms: C_2  and  C_3
REMARK    3  A    between atoms: C_11  and  C_18
REMARK    4  A    between atoms: C_12  and  C_17
REMARK    5  A    between atoms: C_13  and  C_16
REMARK    6  A    between atoms: N_19  and  O_20
REMARK                            x       y       z     vdW  Elec       q    Type
REMARK                         _______ _______ _______ _____ _____    ______ ____
ROOT
ATOM      1  C   UNL     1       1.247   0.515  -2.808  0.00  0.00    +0.075 C 
ATOM      2  C   UNL     1       2.150  -0.107  -1.738  0.00  0.00    +0.022 C 
ATOM      3  C   UNL     1       2.101  -1.632  -1.860  0.00  0.00    +0.003 C 
ATOM      4  C   UNL     1       0.669  -2.119  -1.627  0.00  0.00    +0.019 C 
ATOM      5  C   UNL     1      -0.250  -1.519  -2.695  0.00  0.00    +0.107 C 
ATOM      6  N   UNL     1      -0.100  -0.057  -2.686  0.00  0.00    -0.310 N 
ATOM      7  C   UNL     1      -1.209   0.766  -2.559  0.00  0.00    +0.153 A 
ATOM      8  C   UNL     1      -1.952   1.134  -3.695  0.00  0.00    +0.064 A 
ATOM      9  C   UNL     1      -3.059   1.967  -3.505  0.00  0.00    -0.016 A 
ATOM     10  C   UNL     1      -3.350   2.373  -2.212  0.00  0.00    +0.035 A 
ATOM     11  N   UNL     1      -2.595   1.976  -1.207  0.00  0.00    -0.280 N 
ATOM     12  N   UNL     1      -1.579   1.208  -1.366  0.00  0.00    -0.158 NA
ATOM     13  C   UNL     1      -4.533   3.271  -1.955  0.00  0.00    +0.065 C 
ATOM     14  C   UNL     1      -3.909   2.409  -4.668  0.00  0.00    +0.046 C 
ATOM     15  H   UNL     1      -2.818   2.274  -0.311  0.00  0.00    +0.189 HD
ENDROOT
BRANCH   8  16
ATOM     16  C   UNL     1      -1.575   0.658  -5.044  0.00  0.00    +0.166 C 
ATOM     17  N   UNL     1      -2.000  -0.496  -5.469  0.00  0.00    -0.071 NA
ATOM     18  N   UNL     1      -0.769   1.441  -5.855  0.00  0.00    -0.340 N 
ATOM     19  H   UNL     1      -0.452   2.301  -5.538  0.00  0.00    +0.144 HD
ATOM     20  H   UNL     1      -0.522   1.128  -6.739  0.00  0.00    +0.144 HD
BRANCH  17  21
ATOM     21  O   UNL     1      -1.639  -0.952  -6.760  0.00  0.00    -0.408 OA
ATOM     22  H   UNL     1      -2.002  -1.819  -6.987  0.00  0.00    +0.328 HD
ENDBRANCH  17  21
ENDBRANCH   8  16
BRANCH   1  24
ATOM     23  C   UNL     1       2.560   2.640  -2.868  0.00  0.00    +0.006 C 
ATOM     24  C   UNL     1       1.182   2.030  -2.605  0.00  0.00    +0.019 C 
ENDBRANCH   1  24
TORSDOF 3
