REMARK  Name = ZINC53074390
REMARK  4 active torsions:
REMARK  status: ('A' for Active; 'I' for Inactive)
REMARK    1  A    between atoms: C_4  and  C_7
REMARK    2  A    between atoms: C_4  and  N_9
REMARK    3  A    between atoms: C_7  and  O_8
REMARK    4  A    between atoms: C_10  and  C_12
REMARK                            x       y       z     vdW  Elec       q    Type
REMARK                         _______ _______ _______ _____ _____    ______ ____
ROOT
ATOM      1  N   UNL     1       2.660  -0.489  -0.145  0.00  0.00    -0.307 N 
ATOM      2  C   UNL     1       2.577  -1.794  -0.475  0.00  0.00    +0.218 C 
ATOM      3  O   UNL     1       2.031  -2.575   0.275  0.00  0.00    -0.275 OA
ATOM      4  H   UNL     1       3.029   0.148  -0.776  0.00  0.00    +0.149 HD
ENDROOT
BRANCH   2   5
ATOM      5  C   UNL     1       3.163  -2.281  -1.775  0.00  0.00    +0.092 C 
ATOM      6  C   UNL     1       2.934  -3.789  -1.905  0.00  0.00    +0.016 C 
ATOM      7  C   UNL     1       3.557  -4.290  -3.209  0.00  0.00    +0.020 C 
ATOM      8  C   UNL     1       2.880  -3.595  -4.395  0.00  0.00    +0.109 C 
ATOM      9  N   UNL     1       2.970  -2.141  -4.203  0.00  0.00    -0.285 N 
ATOM     10  C   UNL     1       2.482  -1.562  -2.944  0.00  0.00    +0.122 C 
ATOM     11  C   UNL     1       3.490  -1.352  -5.165  0.00  0.00    +0.300 C 
ATOM     12  O   UNL     1       3.472  -0.143  -5.035  0.00  0.00    -0.253 OA
ATOM     13  N   UNL     1       4.030  -1.904  -6.270  0.00  0.00    -0.313 N 
ATOM     14  H   UNL     1       3.983  -2.863  -6.405  0.00  0.00    +0.146 HD
ATOM     15  H   UNL     1       4.465  -1.341  -6.929  0.00  0.00    +0.146 HD
ENDBRANCH   2   5
BRANCH   1  19
ATOM     16  C   UNL     1       4.693   1.040   2.253  0.00  0.00    +0.000 C 
ATOM     17  C   UNL     1       4.460  -0.466   2.124  0.00  0.00    +0.002 C 
ATOM     18  C   UNL     1       2.967  -0.766   2.265  0.00  0.00    +0.028 C 
ATOM     19  C   UNL     1       2.193  -0.034   1.167  0.00  0.00    +0.058 C 
ATOM     20  C   UNL     1       2.426   1.472   1.296  0.00  0.00    +0.028 C 
ATOM     21  C   UNL     1       3.920   1.772   1.154  0.00  0.00    +0.002 C 
BRANCH  19  22
ATOM     22  C   UNL     1       0.700  -0.334   1.309  0.00  0.00    +0.181 C 
BRANCH  22  23
ATOM     23  O   UNL     1      -0.009   0.251   0.215  0.00  0.00    -0.393 OA
ATOM     24  H   UNL     1      -0.964   0.101   0.239  0.00  0.00    +0.209 HD
ENDBRANCH  22  23
ENDBRANCH  19  22
ENDBRANCH   1  19
TORSDOF 4
