REMARK  Name = ZINC13032300
REMARK  13 active torsions:
REMARK  status: ('A' for Active; 'I' for Inactive)
REMARK    1  A    between atoms: C_1  and  C_2
REMARK    2  A    between atoms: C_2  and  C_3
REMARK    3  A    between atoms: C_3  and  C_4
REMARK    4  A    between atoms: C_3  and  C_5
REMARK    5  A    between atoms: C_3  and  N_6
REMARK    6  A    between atoms: C_7  and  C_9
REMARK    7  A    between atoms: C_9  and  C_11
REMARK    8  A    between atoms: C_9  and  N_18
REMARK    9  A    between atoms: C_14  and  O_17
REMARK   10  A    between atoms: N_18  and  C_19
REMARK   11  A    between atoms: C_22  and  C_26
REMARK   12  A    between atoms: C_27  and  C_29
REMARK   13  A    between atoms: C_29  and  N_30
REMARK                            x       y       z     vdW  Elec       q    Type
REMARK                         _______ _______ _______ _____ _____    ______ ____
ROOT
ATOM      1  N   UNL     1      -5.277   3.693  -1.871  0.00  0.00    -0.254 N 
ATOM      2  C   UNL     1      -4.143   3.036  -1.557  0.00  0.00    +0.242 C 
ATOM      3  O   UNL     1      -3.817   2.052  -2.187  0.00  0.00    -0.273 OA
ENDROOT
BRANCH   1   4
ATOM      4  C   UNL     1      -5.599   4.886  -1.214  0.00  0.00    +0.040 A 
ATOM      5  C   UNL     1      -5.960   4.866   0.127  0.00  0.00    +0.024 A 
ATOM      6  C   UNL     1      -6.277   6.044   0.774  0.00  0.00    +0.008 A 
ATOM      7  C   UNL     1      -6.236   7.244   0.088  0.00  0.00    -0.015 A 
ATOM      8  C   UNL     1      -5.877   7.269  -1.249  0.00  0.00    +0.128 A 
ATOM      9  C   UNL     1      -5.554   6.091  -1.901  0.00  0.00    +0.062 A 
ATOM     10  F   UNL     1      -5.837   8.443  -1.916  0.00  0.00    -0.205 F 
ATOM     11  C   UNL     1      -6.583   8.528   0.797  0.00  0.00    +0.047 C 
ENDBRANCH   1   4
BRANCH   1  12
ATOM     12  C   UNL     1      -6.171   3.159  -2.901  0.00  0.00    +0.197 C 
BRANCH  12  13
ATOM     13  C   UNL     1      -7.284   4.142  -3.159  0.00  0.00    -0.018 A 
ATOM     14  C   UNL     1      -8.082   4.571  -2.115  0.00  0.00    +0.009 A 
ATOM     15  C   UNL     1      -9.099   5.476  -2.348  0.00  0.00    +0.046 A 
ATOM     16  C   UNL     1      -9.326   5.947  -3.633  0.00  0.00    +0.117 A 
ATOM     17  C   UNL     1      -8.528   5.510  -4.680  0.00  0.00    +0.046 A 
ATOM     18  C   UNL     1      -7.508   4.609  -4.441  0.00  0.00    +0.009 A 
BRANCH  16  19
ATOM     19  O   UNL     1     -10.330   6.832  -3.866  0.00  0.00    -0.507 OA
ATOM     20  H   UNL     1     -11.178   6.419  -4.079  0.00  0.00    +0.292 HD
ENDBRANCH  16  19
ENDBRANCH  12  13
BRANCH  12  22
ATOM     21  N   UNL     1      -7.612   1.174  -3.219  0.00  0.00    -0.308 N 
ATOM     22  C   UNL     1      -6.755   1.852  -2.430  0.00  0.00    +0.239 C 
ATOM     23  O   UNL     1      -6.454   1.410  -1.342  0.00  0.00    -0.273 OA
ATOM     24  H   UNL     1      -7.854   1.527  -4.089  0.00  0.00    +0.149 HD
BRANCH  21  25
ATOM     25  C   UNL     1      -8.180  -0.097  -2.761  0.00  0.00    +0.029 C 
ATOM     26  C   UNL     1      -7.051  -1.095  -2.499  0.00  0.00    +0.031 C 
ATOM     27  C   UNL     1      -8.968   0.132  -1.470  0.00  0.00    +0.031 C 
BRANCH  25  29
ATOM     28  C   UNL     1      -9.707  -1.982  -3.358  0.00  0.00    +0.006 C 
ATOM     29  C   UNL     1      -9.114  -0.655  -3.837  0.00  0.00    +0.022 C 
ENDBRANCH  25  29
ENDBRANCH  21  25
ENDBRANCH  12  22
ENDBRANCH   1  12
BRANCH   2  30
ATOM     30  C   UNL     1      -3.280   3.523  -0.421  0.00  0.00    +0.242 C 
BRANCH  30  31
ATOM     31  N   UNL     1      -2.175   2.584  -0.210  0.00  0.00    -0.235 N 
ATOM     32  C   UNL     1      -2.173   1.490   0.622  0.00  0.00    +0.090 A 
ATOM     33  C   UNL     1      -3.114   0.923   1.475  0.00  0.00    +0.029 A 
ATOM     34  C   UNL     1      -2.795  -0.198   2.190  0.00  0.00    +0.002 A 
ATOM     35  C   UNL     1      -1.541  -0.783   2.064  0.00  0.00    +0.002 A 
ATOM     36  C   UNL     1      -0.603  -0.249   1.230  0.00  0.00    +0.032 A 
ATOM     37  C   UNL     1      -0.903   0.902   0.490  0.00  0.00    +0.113 A 
ATOM     38  N   UNL     1      -0.200   1.641  -0.392  0.00  0.00    -0.129 NA
ATOM     39  N   UNL     1      -0.911   2.625  -0.817  0.00  0.00    -0.064 NA
ENDBRANCH  30  31
ENDBRANCH   2  30
TORSDOF 9
