REMARK  Name = ZINC67043080
REMARK  3 active torsions:
REMARK  status: ('A' for Active; 'I' for Inactive)
REMARK    1  A    between atoms: C_6  and  C_7
REMARK    2  A    between atoms: N_16  and  C_17
REMARK    3  A    between atoms: C_17  and  C_18
REMARK                            x       y       z     vdW  Elec       q    Type
REMARK                         _______ _______ _______ _____ _____    ______ ____
ROOT
ATOM      1  C   UNL     1      -1.295  -0.772   0.010  0.00  0.00    +0.166 C 
ATOM      2  C   UNL     1      -1.654  -1.153   1.450  0.00  0.00    +0.145 C 
ATOM      3  N   UNL     1      -2.814  -2.059   1.415  0.00  0.00    -0.281 N 
ATOM      4  C   UNL     1      -2.753  -3.225   0.519  0.00  0.00    +0.137 C 
ATOM      5  C   UNL     1      -2.341  -2.742  -0.876  0.00  0.00    +0.179 C 
ATOM      6  O   UNL     1      -1.148  -1.960  -0.771  0.00  0.00    -0.369 OA
ATOM      7  C   UNL     1      -3.898  -1.827   2.180  0.00  0.00    +0.302 C 
ATOM      8  O   UNL     1      -3.894  -0.912   2.980  0.00  0.00    -0.253 OA
ATOM      9  N   UNL     1      -4.989  -2.611   2.059  0.00  0.00    -0.299 N 
ATOM     10  H   UNL     1      -4.967  -3.385   1.475  0.00  0.00    +0.150 HD
ENDROOT
BRANCH   1  16
ATOM     11  C   UNL     1      -0.018   1.381   0.011  0.00  0.00    +0.009 A 
ATOM     12  C   UNL     1       1.168   2.090   0.003  0.00  0.00    +0.041 A 
ATOM     13  C   UNL     1       2.377   1.416  -0.014  0.00  0.00    +0.158 A 
ATOM     14  C   UNL     1       2.396   0.029  -0.023  0.00  0.00    +0.159 A 
ATOM     15  C   UNL     1       1.206  -0.677  -0.016  0.00  0.00    +0.047 A 
ATOM     16  C   UNL     1       0.000  -0.001   0.001  0.00  0.00    -0.015 A 
ATOM     17  F   UNL     1       3.574  -0.631  -0.040  0.00  0.00    -0.202 F 
ATOM     18  F   UNL     1       3.537   2.108  -0.022  0.00  0.00    -0.202 F 
ENDBRANCH   1  16
BRANCH   9  19
ATOM     19  C   UNL     1      -6.206  -2.293   2.809  0.00  0.00    +0.111 C 
BRANCH  19  20
ATOM     20  C   UNL     1      -7.285  -3.331   2.494  0.00  0.00    +0.029 C 
ATOM     21  C   UNL     1      -6.841  -4.705   3.023  0.00  0.00    +0.029 C 
ATOM     22  C   UNL     1      -8.066  -5.662   2.975  0.00  0.00    +0.166 C 
ATOM     23  S   UNL     1      -9.400  -4.529   3.551  0.00  0.00    -0.031 S 
ATOM     24  O   UNL     1     -10.541  -4.698   2.721  0.00  0.00    -0.174 OA
ATOM     25  O   UNL     1      -9.537  -4.654   4.960  0.00  0.00    -0.174 OA
ATOM     26  C   UNL     1      -8.614  -2.912   3.168  0.00  0.00    +0.171 C 
ENDBRANCH  19  20
ENDBRANCH   9  19
TORSDOF 3
