REMARK  Name = ZINC11858210
REMARK  8 active torsions:
REMARK  status: ('A' for Active; 'I' for Inactive)
REMARK    1  A    between atoms: C_1  and  C_2
REMARK    2  A    between atoms: N_8  and  C_11
REMARK    3  A    between atoms: C_14  and  S_17
REMARK    4  A    between atoms: S_17  and  N_20
REMARK    5  A    between atoms: N_20  and  C_21
REMARK    6  A    between atoms: C_26  and  C_27
REMARK    7  A    between atoms: C_27  and  C_28
REMARK    8  A    between atoms: C_27  and  C_29
REMARK                            x       y       z     vdW  Elec       q    Type
REMARK                         _______ _______ _______ _____ _____    ______ ____
ROOT
ATOM      1  C   UNL     1       0.909  -0.237   5.180  0.00  0.00    +0.059 A 
ATOM      2  C   UNL     1       0.282  -1.314   4.567  0.00  0.00    +0.027 A 
ATOM      3  C   UNL     1       0.392  -1.488   3.201  0.00  0.00    +0.030 A 
ATOM      4  C   UNL     1       1.125  -0.592   2.445  0.00  0.00    +0.109 A 
ATOM      5  C   UNL     1       1.754   0.478   3.053  0.00  0.00    +0.030 A 
ATOM      6  C   UNL     1       1.644   0.661   4.417  0.00  0.00    +0.027 A 
ENDROOT
BRANCH   1  13
ATOM      7  C   UNL     1      -1.113   0.981   9.095  0.00  0.00    +0.019 C 
ATOM      8  C   UNL     1      -0.162  -0.182   8.805  0.00  0.00    +0.097 C 
ATOM      9  C   UNL     1       1.286   0.218   9.191  0.00  0.00    +0.201 C 
ATOM     10  S   UNL     1       1.887   0.761   7.540  0.00  0.00    +0.053 S 
ATOM     11  O   UNL     1       3.160   0.198   7.253  0.00  0.00    -0.155 OA
ATOM     12  O   UNL     1       1.626   2.142   7.333  0.00  0.00    -0.155 OA
ATOM     13  N   UNL     1       0.799  -0.056   6.563  0.00  0.00    -0.144 N 
ATOM     14  C   UNL     1      -0.198  -0.503   7.341  0.00  0.00    +0.243 C 
ATOM     15  O   UNL     1      -1.107  -1.154   6.871  0.00  0.00    -0.273 OA
ENDBRANCH   1  13
BRANCH   4  16
ATOM     16  S   UNL     1       1.262  -0.819   0.703  0.00  0.00    +0.072 S 
ATOM     17  O   UNL     1       1.040  -2.200   0.454  0.00  0.00    -0.150 OA
ATOM     18  O   UNL     1       2.451  -0.153   0.299  0.00  0.00    -0.150 OA
BRANCH  16  19
ATOM     19  N   UNL     1       0.002  -0.004   0.002  0.00  0.00    -0.216 N 
ATOM     20  H   UNL     1      -0.650  -0.485  -0.532  0.00  0.00    +0.174 HD
BRANCH  19  21
ATOM     21  C   UNL     1      -0.122   1.376   0.180  0.00  0.00    +0.051 A 
ATOM     22  C   UNL     1       1.013   2.174   0.247  0.00  0.00    +0.025 A 
ATOM     23  C   UNL     1       0.886   3.538   0.422  0.00  0.00    +0.002 A 
ATOM     24  C   UNL     1      -0.369   4.109   0.531  0.00  0.00    +0.000 A 
ATOM     25  C   UNL     1      -1.500   3.318   0.464  0.00  0.00    +0.006 A 
ATOM     26  C   UNL     1      -1.381   1.953   0.284  0.00  0.00    -0.022 A 
BRANCH  26  27
ATOM     27  C   UNL     1      -2.615   1.092   0.206  0.00  0.00    +0.015 C 
ATOM     28  C   UNL     1      -3.415   1.229   1.503  0.00  0.00    +0.012 C 
ATOM     29  C   UNL     1      -3.477   1.542  -0.975  0.00  0.00    +0.012 C 
ENDBRANCH  26  27
ENDBRANCH  19  21
ENDBRANCH  16  19
ENDBRANCH   4  16
TORSDOF 5
