REMARK  Name = ZINC28814966
REMARK  10 active torsions:
REMARK  status: ('A' for Active; 'I' for Inactive)
REMARK    1  A    between atoms: C_1  and  C_2
REMARK    2  A    between atoms: C_2  and  O_3
REMARK    3  A    between atoms: O_3  and  C_4
REMARK    4  A    between atoms: C_7  and  C_10
REMARK    5  A    between atoms: N_16  and  C_17
REMARK    6  A    between atoms: C_17  and  C_18
REMARK    7  A    between atoms: C_18  and  C_19
REMARK    8  A    between atoms: N_21  and  C_22
REMARK    9  A    between atoms: C_22  and  C_23
REMARK   10  A    between atoms: C_23  and  C_24
REMARK                            x       y       z     vdW  Elec       q    Type
REMARK                         _______ _______ _______ _____ _____    ______ ____
ROOT
ATOM      1  C   UNL     1      -1.528   3.860   2.632  0.00  0.00    +0.117 C 
ENDROOT
BRANCH   1   2
ATOM      2  C   UNL     1      -0.815   3.404   1.385  0.00  0.00    +0.215 C 
ATOM      3  O   UNL     1      -0.374   4.222   0.605  0.00  0.00    -0.276 OA
ATOM      4  N   UNL     1      -0.668   2.088   1.136  0.00  0.00    -0.315 N 
ATOM      5  H   UNL     1      -1.067   1.346   1.844  0.00  0.00    +0.149 HD
BRANCH   4   6
ATOM      6  C   UNL     1       0.025   1.644  -0.076  0.00  0.00    +0.109 C 
BRANCH   6   7
ATOM      7  C   UNL     1       0.055   0.115  -0.116  0.00  0.00    +0.054 C 
BRANCH   7   8
ATOM      8  C   UNL     1       0.767  -0.341  -1.364  0.00  0.00    -0.041 A 
ATOM      9  C   UNL     1       2.134  -0.545  -1.342  0.00  0.00    +0.053 A 
ATOM     10  C   UNL     1       2.793  -0.966  -2.487  0.00  0.00    +0.164 A 
ATOM     11  C   UNL     1       2.075  -1.182  -3.657  0.00  0.00    +0.180 A 
ATOM     12  C   UNL     1       0.703  -0.974  -3.674  0.00  0.00    +0.086 A 
ATOM     13  C   UNL     1       0.052  -0.559  -2.526  0.00  0.00    +0.027 A 
ATOM     14 CL   UNL     1      -0.198  -1.241  -5.133  0.00  0.00    -0.080 Cl
ATOM     15  O   UNL     1       2.701  -1.599  -4.792  0.00  0.00    -0.483 OA
ATOM     16  C   UNL     1       4.122  -1.436  -4.839  0.00  0.00    +0.270 C 
ATOM     17  C   UNL     1       4.708  -1.935  -3.511  0.00  0.00    +0.270 C 
ATOM     18  O   UNL     1       4.140  -1.158  -2.451  0.00  0.00    -0.485 OA
ENDBRANCH   7   8
ENDBRANCH   6   7
ENDBRANCH   4   6
ENDBRANCH   1   2
BRANCH   1  19
ATOM     19  C   UNL     1      -1.557   5.389   2.673  0.00  0.00    +0.135 C 
BRANCH  19  26
ATOM     20  C   UNL     1      -3.589   6.157   3.979  0.00  0.00    +0.163 A 
ATOM     21  N   UNL     1      -3.846   6.502   5.210  0.00  0.00    -0.153 NA
ATOM     22  N   UNL     1      -2.655   6.414   5.943  0.00  0.00    -0.254 N 
ATOM     23  H   UNL     1      -2.648   6.669   7.013  0.00  0.00    +0.191 HD
ATOM     24  C   UNL     1      -1.688   5.999   5.099  0.00  0.00    +0.176 A 
ATOM     25  S   UNL     1      -0.045   5.731   5.498  0.00  0.00    -0.011 S 
ATOM     26  N   UNL     1      -2.250   5.832   3.885  0.00  0.00    -0.303 N 
BRANCH  20  30
ATOM     27  C   UNL     1      -6.401   6.040   0.795  0.00  0.00    +0.121 A 
ATOM     28  C   UNL     1      -6.654   6.821   1.914  0.00  0.00    +0.046 A 
ATOM     29  C   UNL     1      -5.744   6.862   2.949  0.00  0.00    +0.015 A 
ATOM     30  C   UNL     1      -4.567   6.116   2.871  0.00  0.00    +0.019 A 
ATOM     31  C   UNL     1      -4.313   5.337   1.741  0.00  0.00    +0.015 A 
ATOM     32  C   UNL     1      -5.230   5.297   0.713  0.00  0.00    +0.046 A 
BRANCH  27  33
ATOM     33  O   UNL     1      -7.299   6.003  -0.223  0.00  0.00    -0.492 OA
BRANCH  33  35
ATOM     34  C   UNL     1      -8.098   5.264  -2.381  0.00  0.00    +0.048 C 
ATOM     35  C   UNL     1      -6.975   5.178  -1.345  0.00  0.00    +0.225 C 
ENDBRANCH  33  35
ENDBRANCH  27  33
ENDBRANCH  20  30
ENDBRANCH  19  26
ENDBRANCH   1  19
TORSDOF 9
