REMARK  Name = ZINC67639120
REMARK  9 active torsions:
REMARK  status: ('A' for Active; 'I' for Inactive)
REMARK    1  A    between atoms: C_1  and  C_2
REMARK    2  A    between atoms: C_2  and  C_4
REMARK    3  A    between atoms: C_2  and  O_12
REMARK    4  A    between atoms: C_8  and  C_10
REMARK    5  A    between atoms: O_12  and  C_13
REMARK    6  A    between atoms: C_13  and  C_15
REMARK    7  A    between atoms: C_15  and  N_16
REMARK    8  A    between atoms: N_19  and  C_20
REMARK    9  A    between atoms: C_20  and  C_21
REMARK                            x       y       z     vdW  Elec       q    Type
REMARK                         _______ _______ _______ _____ _____    ______ ____
ROOT
ATOM      1  C   UNL     1      -3.310  -1.237   1.302  0.00  0.00    +0.226 C 
ENDROOT
BRANCH   1   2
ATOM      2  N   UNL     1      -3.686  -1.389   2.710  0.00  0.00    -0.289 N 
ATOM      3  C   UNL     1      -4.913  -1.844   3.034  0.00  0.00    +0.300 C 
ATOM      4  O   UNL     1      -5.707  -2.129   2.159  0.00  0.00    -0.253 OA
ATOM      5  N   UNL     1      -5.259  -1.983   4.329  0.00  0.00    -0.295 N 
ATOM      6  H   UNL     1      -3.053  -1.161   3.408  0.00  0.00    +0.151 HD
ATOM      7  H   UNL     1      -4.625  -1.756   5.028  0.00  0.00    +0.151 HD
BRANCH   5   8
ATOM      8  C   UNL     1      -6.592  -2.478   4.682  0.00  0.00    +0.141 C 
BRANCH   8   9
ATOM      9  C   UNL     1      -6.724  -2.540   6.182  0.00  0.00    -0.030 A 
ATOM     10  C   UNL     1      -6.365  -3.690   6.860  0.00  0.00    +0.006 A 
ATOM     11  C   UNL     1      -6.486  -3.747   8.236  0.00  0.00    +0.020 A 
ATOM     12  C   UNL     1      -6.966  -2.654   8.934  0.00  0.00    +0.041 A 
ATOM     13  C   UNL     1      -7.325  -1.504   8.255  0.00  0.00    +0.020 A 
ATOM     14  C   UNL     1      -7.199  -1.445   6.880  0.00  0.00    +0.006 A 
ATOM     15 CL   UNL     1      -7.119  -2.726  10.662  0.00  0.00    -0.084 Cl
ENDBRANCH   8   9
ENDBRANCH   5   8
ENDBRANCH   1   2
BRANCH   1  16
ATOM     16  C   UNL     1      -1.899  -0.716   1.212  0.00  0.00    +0.325 C 
ATOM     17  O   UNL     1      -1.272  -0.494   2.221  0.00  0.00    -0.249 OA
BRANCH  16  18
ATOM     18  O   UNL     1      -1.339  -0.499   0.012  0.00  0.00    -0.456 OA
BRANCH  18  20
ATOM     19  C   UNL     1      -0.019   1.526   0.010  0.00  0.00    +0.057 C 
ATOM     20  C   UNL     1       0.002  -0.004   0.002  0.00  0.00    +0.204 C 
BRANCH  20  21
ATOM     21  C   UNL     1       0.707  -0.490  -1.238  0.00  0.00    -0.006 A 
ATOM     22  C   UNL     1       0.035  -0.521  -2.447  0.00  0.00    +0.007 A 
ATOM     23  C   UNL     1       0.675  -0.966  -3.590  0.00  0.00    +0.002 A 
ATOM     24  C   UNL     1       1.990  -1.381  -3.532  0.00  0.00    +0.019 A 
ATOM     25  C   UNL     1       2.674  -1.352  -2.315  0.00  0.00    +0.052 A 
ATOM     26  C   UNL     1       2.023  -0.898  -1.166  0.00  0.00    +0.026 A 
BRANCH  25  27
ATOM     27  C   UNL     1       4.038  -1.782  -2.247  0.00  0.00    +0.099 C 
ATOM     28  N   UNL     1       5.120  -2.123  -2.192  0.00  0.00    -0.191 NA
ENDBRANCH  25  27
ENDBRANCH  20  21
ENDBRANCH  18  20
ENDBRANCH  16  18
ENDBRANCH   1  16
TORSDOF 8
