REMARK  Name = ZINC02724525
REMARK  3 active torsions:
REMARK  status: ('A' for Active; 'I' for Inactive)
REMARK    1  A    between atoms: C_4  and  C_7
REMARK    2  A    between atoms: C_8  and  C_9
REMARK    3  A    between atoms: C_22  and  C_24
REMARK                            x       y       z     vdW  Elec       q    Type
REMARK                         _______ _______ _______ _____ _____    ______ ____
ROOT
ATOM      1  C   UNL     1       3.145  -0.919   0.889  0.00  0.00    +0.241 C 
ATOM      2  O   UNL     1       2.743  -1.863   1.544  0.00  0.00    -0.271 OA
ATOM      3  N   UNL     1       2.350  -0.359  -0.045  0.00  0.00    -0.278 N 
ATOM      4  C   UNL     1       1.060  -0.972  -0.307  0.00  0.00    +0.205 C 
ATOM      5  C   UNL     1      -0.040  -0.091   0.192  0.00  0.00    +0.235 C 
ATOM      6  O   UNL     1      -1.022  -0.645   0.638  0.00  0.00    -0.274 OA
ATOM      7  N   UNL     1      -0.049   1.211   0.198  0.00  0.00    -0.284 N 
ATOM      8  C   UNL     1       0.882   2.220   0.126  0.00  0.00    +0.039 A 
ATOM      9  C   UNL     1       0.418   3.489   0.514  0.00  0.00    +0.025 A 
ATOM     10  C   UNL     1       1.239   4.590   0.494  0.00  0.00    +0.022 A 
ATOM     11  C   UNL     1       2.554   4.456   0.085  0.00  0.00    +0.041 A 
ATOM     12  C   UNL     1       3.020   3.218  -0.300  0.00  0.00    +0.027 A 
ATOM     13  C   UNL     1       2.194   2.096  -0.284  0.00  0.00    -0.000 A 
ATOM     14  C   UNL     1       2.825   0.813  -0.730  0.00  0.00    +0.139 C 
ATOM     15 CL   UNL     1       3.607   5.837   0.054  0.00  0.00    -0.084 Cl
ATOM     16  H   UNL     1      -0.951   1.561   0.268  0.00  0.00    +0.155 HD
ENDROOT
BRANCH  14  17
ATOM     17  C   UNL     1       2.566   0.642  -2.204  0.00  0.00    -0.022 A 
ATOM     18  C   UNL     1       1.268   0.570  -2.674  0.00  0.00    +0.008 A 
ATOM     19  C   UNL     1       1.030   0.418  -4.027  0.00  0.00    +0.038 A 
ATOM     20  C   UNL     1       2.092   0.326  -4.910  0.00  0.00    +0.123 A 
ATOM     21  C   UNL     1       3.392   0.393  -4.438  0.00  0.00    +0.038 A 
ATOM     22  C   UNL     1       3.628   0.551  -3.086  0.00  0.00    +0.008 A 
ATOM     23  F   UNL     1       1.860   0.171  -6.232  0.00  0.00    -0.205 F 
ENDBRANCH  14  17
BRANCH   1  25
ATOM     24  C   UNL     1       5.327  -1.019   1.968  0.00  0.00    +0.013 C 
ATOM     25  C   UNL     1       4.493  -0.393   1.115  0.00  0.00    +0.068 C 
BRANCH  24  29
ATOM     26  C   UNL     1       9.231   0.506   2.622  0.00  0.00    +0.000 A 
ATOM     27  C   UNL     1       8.817  -0.635   3.288  0.00  0.00    +0.001 A 
ATOM     28  C   UNL     1       7.550  -1.137   3.081  0.00  0.00    +0.008 A 
ATOM     29  C   UNL     1       6.681  -0.490   2.196  0.00  0.00    -0.025 A 
ATOM     30  C   UNL     1       7.109   0.659   1.523  0.00  0.00    +0.008 A 
ATOM     31  C   UNL     1       8.378   1.152   1.744  0.00  0.00    +0.001 A 
ENDBRANCH  24  29
ENDBRANCH   1  25
TORSDOF 3
