REMARK  Name = ZINC23159309
REMARK  6 active torsions:
REMARK  status: ('A' for Active; 'I' for Inactive)
REMARK    1  A    between atoms: C_2  and  C_17
REMARK    2  A    between atoms: N_5  and  C_6
REMARK    3  A    between atoms: N_9  and  C_12
REMARK    4  A    between atoms: C_17  and  N_18
REMARK    5  A    between atoms: C_22  and  C_24
REMARK    6  A    between atoms: C_24  and  O_25
REMARK                            x       y       z     vdW  Elec       q    Type
REMARK                         _______ _______ _______ _____ _____    ______ ____
ROOT
ATOM      1  C   UNL     1       4.017   3.708  -1.143  0.00  0.00    +0.132 A 
ATOM      2  C   UNL     1       2.997   3.759  -0.255  0.00  0.00    +0.066 A 
ATOM      3  N   UNL     1       3.496   4.291   0.866  0.00  0.00    -0.136 NA
ATOM      4  N   UNL     1       4.745   4.544   0.687  0.00  0.00    -0.065 NA
ATOM      5  N   UNL     1       5.098   4.213  -0.505  0.00  0.00    -0.249 N 
ENDROOT
BRANCH   5   6
ATOM      6  C   UNL     1       6.440   4.359  -1.074  0.00  0.00    +0.105 C 
ATOM      7  C   UNL     1       6.331   4.705  -2.562  0.00  0.00    +0.008 C 
ATOM      8  C   UNL     1       7.735   4.793  -3.164  0.00  0.00    -0.076 C 
ATOM      9  N   UNL     1       8.427   3.510  -2.990  0.00  0.00    +0.382 N 
ATOM     10  C   UNL     1       8.586   3.181  -1.567  0.00  0.00    -0.076 C 
ATOM     11  C   UNL     1       7.207   3.043  -0.918  0.00  0.00    +0.008 C 
ATOM     12  H   UNL     1       7.803   2.728  -3.447  0.00  0.00    -0.081 HD
BRANCH   9  13
ATOM     13  C   UNL     1       9.726   3.514  -3.677  0.00  0.00    -0.069 C 
ATOM     14  C   UNL     1      10.634   4.610  -3.083  0.00  0.00    -0.015 C 
ATOM     15  C   UNL     1      11.406   5.168  -4.305  0.00  0.00    -0.002 C 
ATOM     16  C   UNL     1      10.332   5.156  -5.421  0.00  0.00    -0.002 C 
ATOM     17  C   UNL     1       9.534   3.861  -5.164  0.00  0.00    -0.015 C 
ENDBRANCH   9  13
ENDBRANCH   5   6
BRANCH   2  18
ATOM     18  C   UNL     1       1.577   3.311  -0.486  0.00  0.00    -0.018 C 
BRANCH  18  19
ATOM     19  N   UNL     1       1.413   1.933  -0.001  0.00  0.00    +0.387 N 
ATOM     20  C   UNL     1       2.051   0.963  -0.928  0.00  0.00    -0.078 C 
ATOM     21  C   UNL     1       1.364  -0.383  -0.615  0.00  0.00    -0.020 C 
ATOM     22  C   UNL     1       0.002  -0.004   0.002  0.00  0.00    -0.015 C 
ATOM     23  C   UNL     1      -0.019   1.540   0.011  0.00  0.00    -0.042 C 
ATOM     24  H   UNL     1       1.865   1.924   1.002  0.00  0.00    -0.081 HD
BRANCH  23  25
ATOM     25  C   UNL     1      -0.704   2.057   1.277  0.00  0.00    +0.140 C 
BRANCH  25  26
ATOM     26  O   UNL     1      -0.085   1.475   2.425  0.00  0.00    -0.397 OA
ATOM     27  H   UNL     1      -0.445   1.730   3.433  0.00  0.00    +0.209 HD
ENDBRANCH  25  26
ENDBRANCH  23  25
ENDBRANCH  18  19
ENDBRANCH   2  18
TORSDOF 6
