REMARK  Name = ZINC24768271
REMARK  8 active torsions:
REMARK  status: ('A' for Active; 'I' for Inactive)
REMARK    1  A    between atoms: C_1  and  C_2
REMARK    2  A    between atoms: C_4  and  N_14
REMARK    3  A    between atoms: N_5  and  C_7
REMARK    4  A    between atoms: C_15  and  C_17
REMARK    5  A    between atoms: C_17  and  N_18
REMARK    6  A    between atoms: N_18  and  C_19
REMARK    7  A    between atoms: C_19  and  C_21
REMARK    8  A    between atoms: C_19  and  C_22
REMARK                            x       y       z     vdW  Elec       q    Type
REMARK                         _______ _______ _______ _____ _____    ______ ____
ROOT
ATOM      1  N   UNL     1       4.651   0.628   1.384  0.00  0.00    -0.272 N 
ATOM      2  C   UNL     1       3.657   1.271   0.738  0.00  0.00    +0.201 C 
ATOM      3  O   UNL     1       3.892   2.294   0.129  0.00  0.00    -0.278 OA
ATOM      4  H   UNL     1       4.438  -0.299   1.935  0.00  0.00    +0.156 HD
ENDROOT
BRANCH   1   8
ATOM      5  C   UNL     1       8.583   3.542   0.408  0.00  0.00    +0.067 C 
ATOM      6  C   UNL     1       7.724   2.421   0.934  0.00  0.00    +0.062 A 
ATOM      7  C   UNL     1       6.352   2.271   0.714  0.00  0.00    +0.068 A 
ATOM      8  C   UNL     1       5.947   1.139   1.353  0.00  0.00    +0.129 A 
ATOM      9  N   UNL     1       7.040   0.602   1.960  0.00  0.00    -0.218 N 
ATOM     10  N   UNL     1       8.137   1.424   1.675  0.00  0.00    -0.170 NA
BRANCH   9  11
ATOM     11  C   UNL     1       7.063  -0.569   2.733  0.00  0.00    +0.068 A 
ATOM     12  C   UNL     1       5.979  -0.892   3.537  0.00  0.00    +0.030 A 
ATOM     13  C   UNL     1       6.002  -2.047   4.294  0.00  0.00    +0.040 A 
ATOM     14  C   UNL     1       7.110  -2.877   4.258  0.00  0.00    +0.124 A 
ATOM     15  C   UNL     1       8.195  -2.554   3.460  0.00  0.00    +0.040 A 
ATOM     16  C   UNL     1       8.173  -1.402   2.699  0.00  0.00    +0.030 A 
ATOM     17  F   UNL     1       7.133  -4.004   5.004  0.00  0.00    -0.205 F 
ENDBRANCH   9  11
ENDBRANCH   1   8
BRANCH   2  18
ATOM     18  C   UNL     1       2.256   0.718   0.771  0.00  0.00    +0.016 C 
BRANCH  18  19
ATOM     19  N   UNL     1       1.365   1.594  -0.002  0.00  0.00    +0.389 N 
ATOM     20  H   UNL     1       1.372   2.603   0.436  0.00  0.00    -0.084 HD
ATOM     21  H   UNL     1       1.715   1.645  -1.044  0.00  0.00    -0.084 HD
BRANCH  19  22
ATOM     22  C   UNL     1      -0.013   1.086   0.008  0.00  0.00    -0.041 C 
ATOM     23  C   UNL     1      -0.729   1.579   1.267  0.00  0.00    -0.009 C 
BRANCH  22  24
ATOM     24  C   UNL     1      -0.742   1.585  -1.213  0.00  0.00    -0.026 A 
ATOM     25  C   UNL     1      -0.269   2.690  -1.896  0.00  0.00    +0.007 A 
ATOM     26  C   UNL     1      -0.937   3.150  -3.015  0.00  0.00    +0.039 A 
ATOM     27  C   UNL     1      -2.080   2.502  -3.454  0.00  0.00    +0.126 A 
ATOM     28  C   UNL     1      -2.554   1.396  -2.772  0.00  0.00    +0.076 A 
ATOM     29  C   UNL     1      -1.881   0.933  -1.654  0.00  0.00    +0.128 A 
ATOM     30  F   UNL     1      -2.339  -0.150  -0.989  0.00  0.00    -0.205 F 
ATOM     31  F   UNL     1      -2.733   2.952  -4.549  0.00  0.00    -0.205 F 
ENDBRANCH  22  24
ENDBRANCH  19  22
ENDBRANCH  18  19
ENDBRANCH   2  18
TORSDOF 6
