REMARK  Name = ZINC34710567
REMARK  8 active torsions:
REMARK  status: ('A' for Active; 'I' for Inactive)
REMARK    1  A    between atoms: C_1  and  C_2
REMARK    2  A    between atoms: C_2  and  N_3
REMARK    3  A    between atoms: C_4  and  C_6
REMARK    4  A    between atoms: C_9  and  C_20
REMARK    5  A    between atoms: N_16  and  C_17
REMARK    6  A    between atoms: C_17  and  C_18
REMARK    7  A    between atoms: C_17  and  C_19
REMARK    8  A    between atoms: C_24  and  C_26
REMARK                            x       y       z     vdW  Elec       q    Type
REMARK                         _______ _______ _______ _____ _____    ______ ____
ROOT
ATOM      1  C   UNL     1       1.585  -2.309   2.619  0.00  0.00    +0.093 C 
ATOM      2  C   UNL     1       1.603  -3.839   2.607  0.00  0.00    +0.024 C 
ATOM      3  C   UNL     1       2.285  -4.333   1.329  0.00  0.00    +0.037 C 
ATOM      4  C   UNL     1       3.732  -3.833   1.301  0.00  0.00    +0.117 C 
ATOM      5  N   UNL     1       3.730  -2.372   1.458  0.00  0.00    -0.284 N 
ATOM      6  C   UNL     1       3.024  -1.785   2.606  0.00  0.00    +0.122 C 
ATOM      7  C   UNL     1       4.364  -1.584   0.567  0.00  0.00    +0.302 C 
ATOM      8  O   UNL     1       4.276  -0.375   0.653  0.00  0.00    -0.253 OA
ATOM      9  N   UNL     1       5.096  -2.138  -0.421  0.00  0.00    -0.297 N 
ATOM     10  H   UNL     1       5.108  -3.101  -0.534  0.00  0.00    +0.150 HD
ENDROOT
BRANCH   3  11
ATOM     11  C   UNL     1       2.272  -5.840   1.303  0.00  0.00    -0.043 A 
ATOM     12  C   UNL     1       2.890  -6.554   2.313  0.00  0.00    +0.004 A 
ATOM     13  C   UNL     1       2.878  -7.936   2.289  0.00  0.00    +0.001 A 
ATOM     14  C   UNL     1       2.250  -8.604   1.254  0.00  0.00    +0.003 A 
ATOM     15  C   UNL     1       1.632  -7.890   0.245  0.00  0.00    -0.050 A 
ATOM     16  C   UNL     1       1.639  -6.508   0.271  0.00  0.00    +0.007 A 
ATOM     17  C   UNL     1       0.947  -8.619  -0.883  0.00  0.00    +0.044 C 
ENDBRANCH   3  11
BRANCH   1  19
ATOM     18  N   UNL     1       0.715  -0.480   1.199  0.00  0.00    -0.315 N 
ATOM     19  C   UNL     1       0.855  -1.805   1.401  0.00  0.00    +0.218 C 
ATOM     20  O   UNL     1       0.393  -2.592   0.602  0.00  0.00    -0.275 OA
ATOM     21  H   UNL     1       1.085   0.149   1.838  0.00  0.00    +0.149 HD
BRANCH  18  23
ATOM     22  C   UNL     1      -0.011   1.540   0.026  0.00  0.00    +0.024 C 
ATOM     23  C   UNL     1       0.005   0.010   0.015  0.00  0.00    +0.101 C 
ENDBRANCH  18  23
ENDBRANCH   1  19
BRANCH   9  24
ATOM     24  C   UNL     1       5.873  -1.285  -1.323  0.00  0.00    +0.068 C 
ATOM     25  C   UNL     1       7.041  -2.085  -1.903  0.00  0.00    +0.027 C 
ATOM     26  C   UNL     1       4.975  -0.796  -2.462  0.00  0.00    +0.027 C 
ENDBRANCH   9  24
TORSDOF 4
