REMARK  Name = ZINC39710520
REMARK  15 active torsions:
REMARK  status: ('A' for Active; 'I' for Inactive)
REMARK    1  A    between atoms: C_1  and  C_2
REMARK    2  A    between atoms: C_2  and  C_3
REMARK    3  A    between atoms: C_10  and  C_15
REMARK    4  A    between atoms: C_15  and  C_17
REMARK    5  A    between atoms: C_15  and  N_27
REMARK    6  A    between atoms: N_22  and  C_23
REMARK    7  A    between atoms: C_23  and  C_24
REMARK    8  A    between atoms: C_23  and  C_25
REMARK    9  A    between atoms: C_23  and  C_26
REMARK   10  A    between atoms: N_27  and  C_28
REMARK   11  A    between atoms: N_27  and  C_37
REMARK   12  A    between atoms: C_28  and  C_29
REMARK   13  A    between atoms: C_32  and  O_35
REMARK   14  A    between atoms: O_35  and  C_36
REMARK   15  A    between atoms: C_37  and  C_38
REMARK                            x       y       z     vdW  Elec       q    Type
REMARK                         _______ _______ _______ _____ _____    ______ ____
ROOT
ATOM      1  C   UNL     1      -6.003  -2.904  -2.695  0.00  0.00    -0.008 C 
ENDROOT
BRANCH   1   9
ATOM      2  C   UNL     1      -2.416   1.427  -1.137  0.00  0.00    -0.047 A 
ATOM      3  C   UNL     1      -2.748   1.283   0.210  0.00  0.00    +0.005 A 
ATOM      4  C   UNL     1      -3.800   0.532   0.628  0.00  0.00    +0.024 A 
ATOM      5  C   UNL     1      -4.612  -0.143  -0.302  0.00  0.00    +0.040 A 
ATOM      6  N   UNL     1      -5.642  -0.876   0.120  0.00  0.00    -0.285 N 
ATOM      7  C   UNL     1      -6.443  -1.535  -0.700  0.00  0.00    +0.223 C 
ATOM      8  O   UNL     1      -7.368  -2.189  -0.256  0.00  0.00    -0.275 OA
ATOM      9  C   UNL     1      -6.205  -1.473  -2.192  0.00  0.00    +0.088 C 
ATOM     10  C   UNL     1      -5.036  -0.639  -2.678  0.00  0.00    -0.006 C 
ATOM     11  C   UNL     1      -4.284  -0.007  -1.732  0.00  0.00    -0.007 A 
ATOM     12  C   UNL     1      -3.139   0.821  -2.114  0.00  0.00    +0.013 A 
ATOM     13  H   UNL     1      -5.811  -0.929   1.073  0.00  0.00    +0.155 HD
BRANCH   2  15
ATOM     14  C   UNL     1      -1.691   3.724  -1.728  0.00  0.00    +0.009 C 
ATOM     15  C   UNL     1      -1.232   2.280  -1.517  0.00  0.00    +0.032 C 
ENDBRANCH   2  15
ENDBRANCH   1   9
BRANCH   1  16
ATOM     16  C   UNL     1      -4.799  -3.528  -1.986  0.00  0.00    +0.205 C 
ATOM     17  N   UNL     1      -5.030  -3.580  -0.536  0.00  0.00    -0.152 NA
ATOM     18  N   UNL     1      -4.167  -2.905   0.030  0.00  0.00    -0.070 NA
ATOM     19  N   UNL     1      -3.267  -2.319  -0.860  0.00  0.00    -0.179 N 
ATOM     20  N   UNL     1      -3.606  -2.671  -2.143  0.00  0.00    -0.183 NA
ATOM     21  H   UNL     1      -2.520  -1.753  -0.611  0.00  0.00    +0.191 HD
BRANCH  20  22
ATOM     22  C   UNL     1      -2.513  -3.404  -2.796  0.00  0.00    +0.035 C 
ATOM     23  C   UNL     1      -2.991  -3.932  -4.150  0.00  0.00    +0.029 C 
ATOM     24  C   UNL     1      -1.323  -2.466  -3.005  0.00  0.00    +0.029 C 
ATOM     25  C   UNL     1      -2.088  -4.579  -1.912  0.00  0.00    +0.029 C 
ENDBRANCH  20  22
ENDBRANCH   1  16
BRANCH   1  26
ATOM     26  N   UNL     1      -7.205  -3.698  -2.411  0.00  0.00    +0.392 N 
ATOM     27  H   UNL     1      -7.318  -3.792  -1.413  0.00  0.00    -0.080 HD
BRANCH  26  28
ATOM     28  C   UNL     1      -8.382  -3.023  -2.975  0.00  0.00    -0.042 C 
BRANCH  28  29
ATOM     29  C   UNL     1      -9.629  -3.765  -2.567  0.00  0.00    -0.064 A 
ATOM     30  C   UNL     1     -10.115  -4.787  -3.362  0.00  0.00    +0.005 A 
ATOM     31  C   UNL     1     -11.258  -5.468  -2.990  0.00  0.00    +0.046 A 
ATOM     32  C   UNL     1     -11.919  -5.125  -1.820  0.00  0.00    +0.120 A 
ATOM     33  C   UNL     1     -11.429  -4.100  -1.024  0.00  0.00    +0.046 A 
ATOM     34  C   UNL     1     -10.282  -3.425  -1.397  0.00  0.00    +0.005 A 
BRANCH  32  35
ATOM     35  O   UNL     1     -13.044  -5.793  -1.453  0.00  0.00    -0.495 OA
ATOM     36  C   UNL     1     -13.671  -5.387  -0.235  0.00  0.00    +0.277 C 
ENDBRANCH  32  35
ENDBRANCH  28  29
ENDBRANCH  26  28
BRANCH  26  37
ATOM     37  C   UNL     1      -7.067  -5.029  -3.016  0.00  0.00    -0.002 C 
BRANCH  37  38
ATOM     38  C   UNL     1      -6.369  -5.951  -2.049  0.00  0.00    +0.089 A 
ATOM     39  C   UNL     1      -6.950  -6.603  -1.026  0.00  0.00    +0.042 A 
ATOM     40  C   UNL     1      -5.934  -7.349  -0.386  0.00  0.00    +0.041 A 
ATOM     41  C   UNL     1      -4.793  -7.107  -1.056  0.00  0.00    +0.195 A 
ATOM     42  O   UNL     1      -5.064  -6.265  -2.066  0.00  0.00    -0.470 OA
ENDBRANCH  37  38
ENDBRANCH  26  37
ENDBRANCH   1  26
TORSDOF 10
