REMARK  Name = ZINC41585544
REMARK  6 active torsions:
REMARK  status: ('A' for Active; 'I' for Inactive)
REMARK    1  A    between atoms: C_1  and  C_2
REMARK    2  A    between atoms: C_4  and  O_32
REMARK    3  A    between atoms: C_5  and  C_18
REMARK    4  A    between atoms: C_11  and  C_12
REMARK    5  A    between atoms: C_18  and  N_19
REMARK    6  A    between atoms: N_22  and  C_25
REMARK                            x       y       z     vdW  Elec       q    Type
REMARK                         _______ _______ _______ _____ _____    ______ ____
ROOT
ATOM      1  C   UNL     1       0.027   1.521   0.035  0.00  0.00    +0.045 C 
ATOM      2  C   UNL     1       0.037   0.014   0.017  0.00  0.00    -0.033 A 
ATOM      3  C   UNL     1       0.044  -0.656  -1.174  0.00  0.00    +0.050 A 
ATOM      4  C   UNL     1       0.054  -2.048  -1.194  0.00  0.00    +0.122 A 
ATOM      5  C   UNL     1       0.056  -2.770  -0.011  0.00  0.00    +0.020 A 
ATOM      6  C   UNL     1       0.049  -2.104   1.206  0.00  0.00    +0.145 A 
ATOM      7  C   UNL     1       0.045  -0.699   1.216  0.00  0.00    +0.071 A 
ATOM      8  C   UNL     1       0.045  -0.300   2.634  0.00  0.00    +0.232 C 
ATOM      9  O   UNL     1       0.037   0.833   3.085  0.00  0.00    -0.283 OA
ATOM     10  C   UNL     1       0.055  -1.520   3.363  0.00  0.00    +0.179 C 
ATOM     11  C   UNL     1       0.059  -1.636   4.723  0.00  0.00    +0.096 C 
ATOM     12  O   UNL     1       0.049  -2.548   2.482  0.00  0.00    -0.451 OA
ENDROOT
BRANCH  11  13
ATOM     13  C   UNL     1       0.069  -2.915   5.322  0.00  0.00    +0.131 A 
ATOM     14  C   UNL     1       0.068  -3.179   6.679  0.00  0.00    +0.049 A 
ATOM     15  C   UNL     1       0.081  -4.574   6.814  0.00  0.00    +0.042 A 
ATOM     16  C   UNL     1       0.089  -5.097   5.567  0.00  0.00    +0.195 A 
ATOM     17  O   UNL     1       0.076  -4.098   4.673  0.00  0.00    -0.463 OA
ENDBRANCH  11  13
BRANCH   4  18
ATOM     18  O   UNL     1       0.061  -2.704  -2.383  0.00  0.00    -0.506 OA
ATOM     19  H   UNL     1       0.946  -2.888  -2.725  0.00  0.00    +0.292 HD
ENDBRANCH   4  18
BRANCH   5  20
ATOM     20  C   UNL     1       0.065  -4.277  -0.047  0.00  0.00    -0.035 C 
BRANCH  20  21
ATOM     21  N   UNL     1       1.453  -4.758  -0.055  0.00  0.00    +0.385 N 
ATOM     22  C   UNL     1       2.111  -4.326  -1.295  0.00  0.00    -0.059 C 
ATOM     23  C   UNL     1       3.590  -4.728  -1.254  0.00  0.00    +0.086 C 
ATOM     24  N   UNL     1       3.673  -6.173  -0.995  0.00  0.00    -0.333 N 
ATOM     25  C   UNL     1       2.908  -6.719   0.137  0.00  0.00    +0.086 C 
ATOM     26  C   UNL     1       1.462  -6.224   0.031  0.00  0.00    -0.059 C 
ATOM     27  H   UNL     1       1.946  -4.373   0.736  0.00  0.00    -0.081 HD
BRANCH  24  28
ATOM     28  C   UNL     1       4.457  -7.004  -1.800  0.00  0.00    +0.030 A 
ATOM     29  C   UNL     1       5.082  -6.490  -2.929  0.00  0.00    +0.026 A 
ATOM     30  C   UNL     1       5.857  -7.313  -3.723  0.00  0.00    +0.040 A 
ATOM     31  C   UNL     1       6.010  -8.649  -3.395  0.00  0.00    +0.124 A 
ATOM     32  C   UNL     1       5.388  -9.164  -2.270  0.00  0.00    +0.040 A 
ATOM     33  C   UNL     1       4.617  -8.344  -1.470  0.00  0.00    +0.026 A 
ATOM     34  F   UNL     1       6.768  -9.452  -4.173  0.00  0.00    -0.205 F 
ENDBRANCH  24  28
ENDBRANCH  20  21
ENDBRANCH   5  20
TORSDOF 5
