REMARK  Name = ZINC54614222
REMARK  17 active torsions:
REMARK  status: ('A' for Active; 'I' for Inactive)
REMARK    1  A    between atoms: C_1  and  C_2
REMARK    2  A    between atoms: C_2  and  C_3
REMARK    3  A    between atoms: C_3  and  C_4
REMARK    4  A    between atoms: C_4  and  O_5
REMARK    5  A    between atoms: O_5  and  C_6
REMARK    6  A    between atoms: C_9  and  C_15
REMARK    7  A    between atoms: C_11  and  O_12
REMARK    8  A    between atoms: O_12  and  C_13
REMARK    9  A    between atoms: C_13  and  C_14
REMARK   10  A    between atoms: C_17  and  C_29
REMARK   11  A    between atoms: C_18  and  C_28
REMARK   12  A    between atoms: C_23  and  S_25
REMARK   13  A    between atoms: S_25  and  C_26
REMARK   14  A    between atoms: C_26  and  C_27
REMARK   15  A    between atoms: N_31  and  C_32
REMARK   16  A    between atoms: C_36  and  C_39
REMARK   17  A    between atoms: C_37  and  C_38
REMARK                            x       y       z     vdW  Elec       q    Type
REMARK                         _______ _______ _______ _____ _____    ______ ____
ROOT
ATOM      1  C   UNL     1       1.381  -8.604  -3.227  0.00  0.00    +0.177 C 
ATOM      2  C   UNL     1       2.027  -8.748  -1.875  0.00  0.00    +0.060 C 
ATOM      3  C   UNL     1       1.391  -9.260  -0.811  0.00  0.00    +0.018 C 
ATOM      4  N   UNL     1       0.093  -9.705  -0.878  0.00  0.00    -0.287 N 
ATOM      5  C   UNL     1      -0.465  -9.858  -2.140  0.00  0.00    +0.219 A 
ATOM      6  N   UNL     1       0.127  -9.353  -3.250  0.00  0.00    -0.220 N 
ATOM      7  N   UNL     1      -0.688  -9.693  -4.328  0.00  0.00    -0.141 NA
ATOM      8  C   UNL     1      -1.708 -10.363  -3.835  0.00  0.00    +0.210 A 
ATOM      9  N   UNL     1      -1.566 -10.457  -2.504  0.00  0.00    -0.187 NA
ATOM     10  C   UNL     1       2.125  -9.350   0.502  0.00  0.00    +0.061 C 
ATOM     11  H   UNL     1      -0.413  -9.905  -0.075  0.00  0.00    +0.155 HD
ENDROOT
BRANCH   1  15
ATOM     12  C   UNL     1       0.584  -4.471  -3.988  0.00  0.00    +0.162 A 
ATOM     13  C   UNL     1      -0.083  -5.132  -2.969  0.00  0.00    +0.050 A 
ATOM     14  C   UNL     1       0.177  -6.468  -2.726  0.00  0.00    +0.010 A 
ATOM     15  C   UNL     1       1.101  -7.148  -3.497  0.00  0.00    -0.015 A 
ATOM     16  C   UNL     1       1.770  -6.494  -4.516  0.00  0.00    +0.055 A 
ATOM     17  C   UNL     1       1.510  -5.157  -4.769  0.00  0.00    +0.162 A 
BRANCH  12  18
ATOM     18  O   UNL     1       0.329  -3.158  -4.229  0.00  0.00    -0.488 OA
BRANCH  18  19
ATOM     19  C   UNL     1      -0.634  -2.518  -3.389  0.00  0.00    +0.229 C 
BRANCH  19  20
ATOM     20  C   UNL     1      -0.785  -1.055  -3.808  0.00  0.00    +0.041 C 
BRANCH  20  22
ATOM     21  C   UNL     1      -1.968   1.093  -3.327  0.00  0.00    +0.004 C 
ATOM     22  C   UNL     1      -1.816  -0.371  -2.908  0.00  0.00    -0.000 C 
ENDBRANCH  20  22
ENDBRANCH  19  20
ENDBRANCH  18  19
ENDBRANCH  12  18
BRANCH  17  23
ATOM     23  O   UNL     1       2.162  -4.514  -5.774  0.00  0.00    -0.489 OA
BRANCH  23  24
ATOM     24  C   UNL     1       3.006  -5.307  -6.611  0.00  0.00    +0.226 C 
ATOM     25  C   UNL     1       3.598  -4.430  -7.716  0.00  0.00    +0.048 C 
ENDBRANCH  23  24
ENDBRANCH  17  23
ENDBRANCH   1  15
BRANCH   2  26
ATOM     26  C   UNL     1       3.368  -8.325  -1.720  0.00  0.00    +0.248 C 
ATOM     27  O   UNL     1       4.277  -9.011  -2.152  0.00  0.00    -0.270 OA
ATOM     28  N   UNL     1       3.640  -7.163  -1.094  0.00  0.00    -0.281 N 
ATOM     29  H   UNL     1       2.922  -6.652  -0.688  0.00  0.00    +0.155 HD
BRANCH  28  30
ATOM     30  C   UNL     1       4.956  -6.694  -1.030  0.00  0.00    +0.037 A 
ATOM     31  C   UNL     1       5.909  -7.174  -1.919  0.00  0.00    +0.023 A 
ATOM     32  C   UNL     1       7.208  -6.709  -1.853  0.00  0.00    +0.002 A 
ATOM     33  C   UNL     1       7.560  -5.767  -0.904  0.00  0.00    +0.004 A 
ATOM     34  C   UNL     1       6.613  -5.288  -0.018  0.00  0.00    -0.046 A 
ATOM     35  C   UNL     1       5.311  -5.744  -0.082  0.00  0.00    -0.026 A 
ATOM     36  C   UNL     1       4.278  -5.216   0.880  0.00  0.00    +0.046 C 
ATOM     37  C   UNL     1       7.001  -4.261   1.016  0.00  0.00    +0.044 C 
ENDBRANCH  28  30
ENDBRANCH   2  26
BRANCH   8  38
ATOM     38  S   UNL     1      -3.044 -11.029  -4.771  0.00  0.00    -0.085 S 
BRANCH  38  39
ATOM     39  C   UNL     1      -4.099 -11.822  -3.527  0.00  0.00    +0.074 C 
ATOM     40  C   UNL     1      -5.314 -12.449  -4.214  0.00  0.00    +0.016 C 
ENDBRANCH  38  39
ENDBRANCH   8  38
TORSDOF 11
