REMARK  Name = ZINC12978109
REMARK  4 active torsions:
REMARK  status: ('A' for Active; 'I' for Inactive)
REMARK    1  A    between atoms: C_1  and  C_2
REMARK    2  A    between atoms: C_11  and  C_12
REMARK    3  A    between atoms: C_11  and  O_27
REMARK    4  A    between atoms: C_20  and  C_22
REMARK                            x       y       z     vdW  Elec       q    Type
REMARK                         _______ _______ _______ _____ _____    ______ ____
ROOT
ATOM      1  C   UNL     1       1.810   6.913  -1.779  0.00  0.00    +0.288 C 
ATOM      2  O   UNL     1       0.804   7.223  -2.381  0.00  0.00    -0.268 OA
ATOM      3  N   UNL     1       2.982   6.808  -2.436  0.00  0.00    -0.293 N 
ATOM      4  C   UNL     1       4.211   6.439  -1.719  0.00  0.00    +0.127 C 
ATOM      5  C   UNL     1       4.823   5.206  -2.406  0.00  0.00    +0.127 C 
ATOM      6  N   UNL     1       4.896   5.463  -3.851  0.00  0.00    -0.292 N 
ATOM      7  C   UNL     1       3.668   5.837  -4.567  0.00  0.00    +0.127 C 
ATOM      8  C   UNL     1       3.055   7.065  -3.881  0.00  0.00    +0.127 C 
ATOM      9  C   UNL     1       6.068   5.357  -4.508  0.00  0.00    +0.282 C 
ATOM     10  O   UNL     1       7.100   5.182  -3.887  0.00  0.00    -0.267 OA
ENDROOT
BRANCH   1  20
ATOM     11  C   UNL     1       2.871   5.128   1.395  0.00  0.00    +0.020 C 
ATOM     12  C   UNL     1       2.199   5.201   0.022  0.00  0.00    +0.101 C 
ATOM     13  C   UNL     1       0.878   4.456   0.025  0.00  0.00    +0.007 A 
ATOM     14  C   UNL     1       0.574   3.114  -0.039  0.00  0.00    +0.046 A 
ATOM     15  C   UNL     1      -0.750   2.704  -0.037  0.00  0.00    +0.124 A 
ATOM     16  C   UNL     1      -1.761   3.648   0.024  0.00  0.00    +0.042 A 
ATOM     17  C   UNL     1      -1.456   4.991   0.098  0.00  0.00    +0.049 A 
ATOM     18  C   UNL     1      -0.128   5.410   0.100  0.00  0.00    +0.129 A 
ATOM     19  O   UNL     1       0.391   6.668   0.170  0.00  0.00    -0.452 OA
ATOM     20  C   UNL     1       1.750   6.646  -0.297  0.00  0.00    +0.294 C 
ATOM     21  F   UNL     1      -1.052   1.389  -0.100  0.00  0.00    -0.205 F 
BRANCH  20  22
ATOM     22  O   UNL     1       2.546   7.593   0.418  0.00  0.00    -0.348 OA
ATOM     23  H   UNL     1       2.255   8.510   0.315  0.00  0.00    +0.214 HD
ENDBRANCH  20  22
ENDBRANCH   1  20
BRANCH   9  24
ATOM     24  C   UNL     1       6.100   5.454  -5.971  0.00  0.00    +0.189 A 
ATOM     25  C   UNL     1       7.222   5.510  -6.747  0.00  0.00    +0.054 A 
ATOM     26  C   UNL     1       6.787   5.595  -8.079  0.00  0.00    +0.042 A 
ATOM     27  C   UNL     1       5.436   5.588  -8.058  0.00  0.00    +0.196 A 
ATOM     28  O   UNL     1       5.026   5.497  -6.786  0.00  0.00    -0.458 OA
ENDBRANCH   9  24
TORSDOF 3
