REMARK  Name = ZINC27754152
REMARK  8 active torsions:
REMARK  status: ('A' for Active; 'I' for Inactive)
REMARK    1  A    between atoms: C_1  and  O_2
REMARK    2  A    between atoms: O_2  and  C_3
REMARK    3  A    between atoms: C_5  and  C_10
REMARK    4  A    between atoms: C_8  and  O_9
REMARK    5  A    between atoms: C_12  and  C_27
REMARK    6  A    between atoms: C_14  and  C_19
REMARK    7  A    between atoms: C_14  and  O_26
REMARK    8  A    between atoms: C_27  and  C_29
REMARK                            x       y       z     vdW  Elec       q    Type
REMARK                         _______ _______ _______ _____ _____    ______ ____
ROOT
ATOM      1  C   UNL     1      -1.722   2.272   1.462  0.00  0.00    +0.120 C 
ATOM      2  C   UNL     1      -1.329   1.939   0.019  0.00  0.00    +0.144 C 
ATOM      3  C   UNL     1      -2.420   1.052  -0.591  0.00  0.00    +0.172 C 
ATOM      4  N   UNL     1      -3.712   1.729  -0.472  0.00  0.00    -0.267 N 
ATOM      5  C   UNL     1      -3.961   2.586   0.530  0.00  0.00    +0.302 C 
ATOM      6  O   UNL     1      -5.055   3.114   0.588  0.00  0.00    -0.253 OA
ATOM      7  N   UNL     1      -3.052   2.884   1.469  0.00  0.00    -0.292 N 
ATOM      8  H   UNL     1      -4.503   1.540  -1.213  0.00  0.00    +0.153 HD
ATOM      9  H   UNL     1      -3.322   3.603   2.256  0.00  0.00    +0.151 HD
ENDROOT
BRANCH   3  10
ATOM     10  C   UNL     1      -2.113   0.804  -2.045  0.00  0.00    +0.003 A 
ATOM     11  C   UNL     1      -2.604   1.663  -3.011  0.00  0.00    +0.009 A 
ATOM     12  C   UNL     1      -2.318   1.440  -4.345  0.00  0.00    +0.020 A 
ATOM     13  C   UNL     1      -1.550   0.350  -4.714  0.00  0.00    +0.041 A 
ATOM     14  C   UNL     1      -1.064  -0.512  -3.748  0.00  0.00    +0.020 A 
ATOM     15  C   UNL     1      -1.346  -0.285  -2.414  0.00  0.00    +0.009 A 
ATOM     16 CL   UNL     1      -1.197   0.065  -6.390  0.00  0.00    -0.084 Cl
ENDBRANCH   3  10
BRANCH   1  19
ATOM     17  C   UNL     1       1.200   3.656   3.417  0.00  0.00    +0.162 A 
ATOM     18  C   UNL     1       0.280   2.771   2.879  0.00  0.00    +0.055 A 
ATOM     19  C   UNL     1      -0.721   3.236   2.047  0.00  0.00    -0.023 A 
ATOM     20  C   UNL     1      -0.803   4.582   1.745  0.00  0.00    +0.009 A 
ATOM     21  C   UNL     1       0.108   5.471   2.283  0.00  0.00    +0.049 A 
ATOM     22  C   UNL     1       1.114   5.012   3.117  0.00  0.00    +0.158 A 
BRANCH  17  24
ATOM     23  C   UNL     1       2.212   1.796   4.500  0.00  0.00    +0.277 C 
ATOM     24  O   UNL     1       2.186   3.200   4.236  0.00  0.00    -0.491 OA
ENDBRANCH  17  24
BRANCH  22  25
ATOM     25  O   UNL     1       2.015   5.884   3.643  0.00  0.00    -0.503 OA
ATOM     26  H   UNL     1       1.946   6.956   3.406  0.00  0.00    +0.292 HD
ENDBRANCH  22  25
ENDBRANCH   1  19
BRANCH   3  27
ATOM     27  O   UNL     1      -2.467  -0.195   0.106  0.00  0.00    -0.367 OA
ATOM     28  H   UNL     1      -3.193  -0.965  -0.192  0.00  0.00    +0.212 HD
ENDBRANCH   3  27
BRANCH   2  29
ATOM     29  C   UNL     1      -0.014   1.203   0.009  0.00  0.00    +0.245 C 
ATOM     30  O   UNL     1       0.002  -0.004   0.002  0.00  0.00    -0.287 OA
BRANCH  29  31
ATOM     31  C   UNL     1       1.280   1.975   0.000  0.00  0.00    +0.451 C 
ATOM     32  F   UNL     1       2.008   1.653  -1.151  0.00  0.00    -0.163 F 
ATOM     33  F   UNL     1       1.006   3.346   0.010  0.00  0.00    -0.163 F 
ATOM     34  F   UNL     1       2.029   1.641   1.134  0.00  0.00    -0.163 F 
ENDBRANCH  29  31
ENDBRANCH   2  29
TORSDOF 7
