REMARK  Name = ZINC12501440
REMARK  4 active torsions:
REMARK  status: ('A' for Active; 'I' for Inactive)
REMARK    1  A    between atoms: C_4  and  C_7
REMARK    2  A    between atoms: C_7  and  C_8
REMARK    3  A    between atoms: C_16  and  C_30
REMARK    4  A    between atoms: C_17  and  C_20
REMARK                            x       y       z     vdW  Elec       q    Type
REMARK                         _______ _______ _______ _____ _____    ______ ____
ROOT
ATOM      1  C   UNL     1      -0.431  13.449  -0.837  0.00  0.00    -0.050 C 
ATOM      2  C   UNL     1      -0.306  11.924  -0.866  0.00  0.00    +0.091 C 
ATOM      3  N   UNL     1       0.860  11.515  -0.070  0.00  0.00    -0.317 N 
ATOM      4  C   UNL     1       2.092  12.114  -0.601  0.00  0.00    +0.087 C 
ATOM      5  C   UNL     1       1.968  13.639  -0.572  0.00  0.00    -0.063 C 
ATOM      6  C   UNL     1       0.963  10.130  -0.014  0.00  0.00    +0.144 A 
ATOM      7  C   UNL     1       2.007   9.537   0.695  0.00  0.00    +0.056 A 
ATOM      8  C   UNL     1       2.064   8.143   0.727  0.00  0.00    +0.013 A 
ATOM      9  C   UNL     1       1.069   7.429   0.030  0.00  0.00    +0.101 A 
ATOM     10  N   UNL     1       0.119   8.091  -0.615  0.00  0.00    -0.147 NA
ATOM     11  N   UNL     1       0.069   9.373  -0.635  0.00  0.00    -0.134 NA
ATOM     12  N   UNL     1       0.802  14.054  -1.375  0.00  0.00    +0.383 N 
ATOM     13  H   UNL     1       0.718  15.077  -1.347  0.00  0.00    -0.085 HD
ATOM     14  H   UNL     1       0.934  13.748  -2.347  0.00  0.00    -0.085 HD
ENDROOT
BRANCH   9  15
ATOM     15  C   UNL     1       1.082   5.948   0.022  0.00  0.00    +0.003 A 
ATOM     16  C   UNL     1       2.308   5.262   0.007  0.00  0.00    +0.011 A 
ATOM     17  C   UNL     1       2.347   3.905   0.000  0.00  0.00    +0.009 A 
ATOM     18  C   UNL     1       1.149   3.167   0.008  0.00  0.00    -0.018 A 
ATOM     19  C   UNL     1       1.163   1.762   0.000  0.00  0.00    +0.008 A 
ATOM     20  C   UNL     1      -0.013   1.076   0.008  0.00  0.00    +0.001 A 
ATOM     21  C   UNL     1      -1.235   1.745   0.018  0.00  0.00    +0.001 A 
ATOM     22  C   UNL     1      -1.288   3.105   0.031  0.00  0.00    +0.008 A 
ATOM     23  C   UNL     1      -0.094   3.849   0.024  0.00  0.00    -0.017 A 
ATOM     24  C   UNL     1      -0.113   5.252   0.030  0.00  0.00    +0.018 A 
ENDBRANCH   9  15
BRANCH   8  25
ATOM     25  C   UNL     1       3.140   7.438   1.465  0.00  0.00    -0.013 A 
ATOM     26  C   UNL     1       2.838   6.414   2.368  0.00  0.00    +0.028 A 
ATOM     27  C   UNL     1       3.870   5.780   3.030  0.00  0.00    +0.111 A 
ATOM     28  N   UNL     1       5.124   6.136   2.828  0.00  0.00    -0.263 NA
ATOM     29  C   UNL     1       5.451   7.100   1.989  0.00  0.00    +0.111 A 
ATOM     30  C   UNL     1       4.482   7.782   1.281  0.00  0.00    +0.028 A 
ENDBRANCH   8  25
BRANCH   1  31
ATOM     31  C   UNL     1      -1.620  13.881  -1.697  0.00  0.00    +0.021 C 
BRANCH  31  35
ATOM     32  C   UNL     1      -2.179  18.101  -1.339  0.00  0.00    +0.000 A 
ATOM     33  C   UNL     1      -1.353  17.594  -2.325  0.00  0.00    +0.000 A 
ATOM     34  C   UNL     1      -1.172  16.228  -2.441  0.00  0.00    +0.003 A 
ATOM     35  C   UNL     1      -1.817  15.370  -1.571  0.00  0.00    -0.049 A 
ATOM     36  C   UNL     1      -2.647  15.876  -0.588  0.00  0.00    +0.003 A 
ATOM     37  C   UNL     1      -2.825  17.242  -0.470  0.00  0.00    +0.000 A 
ENDBRANCH  31  35
ENDBRANCH   1  31
TORSDOF 4
