REMARK  Name = ZINC38597951
REMARK  8 active torsions:
REMARK  status: ('A' for Active; 'I' for Inactive)
REMARK    1  A    between atoms: C_1  and  C_2
REMARK    2  A    between atoms: C_3  and  N_9
REMARK    3  A    between atoms: C_10  and  C_12
REMARK    4  A    between atoms: N_14  and  C_15
REMARK    5  A    between atoms: C_15  and  C_16
REMARK    6  A    between atoms: C_16  and  C_18
REMARK    7  A    between atoms: C_16  and  N_23
REMARK    8  A    between atoms: N_26  and  C_29
REMARK                            x       y       z     vdW  Elec       q    Type
REMARK                         _______ _______ _______ _____ _____    ______ ____
ROOT
ATOM      1  C   UNL     1       0.496  -0.810  -8.460  0.00  0.00    +0.140 C 
ENDROOT
BRANCH   1   2
ATOM      2  N   UNL     1       1.630  -1.715  -8.228  0.00  0.00    -0.288 NA
ATOM      3  C   UNL     1       2.891  -0.968  -8.142  0.00  0.00    +0.104 C 
ATOM      4  C   UNL     1       4.017  -1.919  -7.721  0.00  0.00    +0.120 C 
ATOM      5  N   UNL     1       4.033  -3.062  -8.647  0.00  0.00    -0.327 N 
ATOM      6  C   UNL     1       2.771  -3.778  -8.890  0.00  0.00    +0.120 C 
ATOM      7  C   UNL     1       1.695  -2.754  -9.265  0.00  0.00    +0.104 C 
BRANCH   5   8
ATOM      8  C   UNL     1       5.216  -3.458  -9.279  0.00  0.00    +0.030 A 
ATOM      9  C   UNL     1       6.418  -2.843  -8.952  0.00  0.00    +0.026 A 
ATOM     10  C   UNL     1       7.585  -3.236  -9.577  0.00  0.00    +0.040 A 
ATOM     11  C   UNL     1       7.558  -4.241 -10.529  0.00  0.00    +0.124 A 
ATOM     12  C   UNL     1       6.361  -4.854 -10.857  0.00  0.00    +0.040 A 
ATOM     13  C   UNL     1       5.191  -4.469 -10.230  0.00  0.00    +0.026 A 
ATOM     14  F   UNL     1       8.701  -4.623 -11.140  0.00  0.00    -0.205 F 
ENDBRANCH   5   8
ENDBRANCH   1   2
BRANCH   1  15
ATOM     15  C   UNL     1       0.714  -0.052  -9.744  0.00  0.00    +0.123 A 
ATOM     16  C   UNL     1      -0.232   0.240 -10.655  0.00  0.00    +0.046 A 
ATOM     17  C   UNL     1       0.406   0.956 -11.694  0.00  0.00    +0.041 A 
ATOM     18  C   UNL     1       1.704   1.059 -11.355  0.00  0.00    +0.195 A 
ATOM     19  O   UNL     1       1.883   0.451 -10.171  0.00  0.00    -0.466 OA
ENDBRANCH   1  15
BRANCH   1  20
ATOM     20  C   UNL     1       0.387   0.178  -7.297  0.00  0.00    +0.131 C 
BRANCH  20  23
ATOM     21  C   UNL     1       0.190   0.107  -4.869  0.00  0.00    +0.299 C 
ATOM     22  O   UNL     1       0.171   1.321  -4.865  0.00  0.00    -0.265 OA
ATOM     23  N   UNL     1       0.295  -0.561  -6.035  0.00  0.00    -0.306 N 
ATOM     24  H   UNL     1       0.310  -1.530  -6.039  0.00  0.00    +0.149 HD
BRANCH  21  26
ATOM     25  N   UNL     1      -0.009   0.022  -2.417  0.00  0.00    -0.277 N 
ATOM     26  C   UNL     1       0.097  -0.646  -3.583  0.00  0.00    +0.303 C 
ATOM     27  O   UNL     1       0.116  -1.859  -3.588  0.00  0.00    -0.265 OA
ATOM     28  H   UNL     1      -0.105   0.987  -2.418  0.00  0.00    +0.155 HD
BRANCH  25  31
ATOM     29  C   UNL     1      -1.262   1.206  -0.153  0.00  0.00    +0.047 C 
ATOM     30  C   UNL     1      -0.578  -0.135  -0.077  0.00  0.00    -0.011 A 
ATOM     31  C   UNL     1       0.021  -0.676  -1.207  0.00  0.00    +0.038 A 
ATOM     32  C   UNL     1       0.650  -1.912  -1.132  0.00  0.00    +0.023 A 
ATOM     33  C   UNL     1       0.678  -2.600   0.065  0.00  0.00    +0.003 A 
ATOM     34  C   UNL     1       0.080  -2.060   1.189  0.00  0.00    +0.020 A 
ATOM     35  C   UNL     1      -0.542  -0.826   1.120  0.00  0.00    +0.046 A 
ATOM     36 CL   UNL     1      -1.285  -0.148   2.535  0.00  0.00    -0.083 Cl
ENDBRANCH  25  31
ENDBRANCH  21  26
ENDBRANCH  20  23
ENDBRANCH   1  20
TORSDOF 7
