REMARK  Name = ZINC13114330
REMARK  11 active torsions:
REMARK  status: ('A' for Active; 'I' for Inactive)
REMARK    1  A    between atoms: C_1  and  C_2
REMARK    2  A    between atoms: C_2  and  C_3
REMARK    3  A    between atoms: C_2  and  C_4
REMARK    4  A    between atoms: C_7  and  O_10
REMARK    5  A    between atoms: O_10  and  C_11
REMARK    6  A    between atoms: C_11  and  C_12
REMARK    7  A    between atoms: C_15  and  S_18
REMARK    8  A    between atoms: N_16  and  N_17
REMARK    9  A    between atoms: S_18  and  C_19
REMARK   10  A    between atoms: C_19  and  C_21
REMARK   11  A    between atoms: C_19  and  C_27
REMARK                            x       y       z     vdW  Elec       q    Type
REMARK                         _______ _______ _______ _____ _____    ______ ____
ROOT
ATOM      1  C   UNL     1       9.160   0.603   0.364  0.00  0.00    +0.189 A 
ATOM      2  N   UNL     1       8.406   1.550   0.848  0.00  0.00    -0.128 NA
ATOM      3  N   UNL     1       7.213   1.111   1.036  0.00  0.00    -0.121 NA
ATOM      4  C   UNL     1       7.141  -0.151   0.680  0.00  0.00    +0.209 A 
ATOM      5  N   UNL     1       8.383  -0.516   0.246  0.00  0.00    -0.225 N 
ENDROOT
BRANCH   5   6
ATOM      6  N   UNL     1       8.768  -1.742  -0.215  0.00  0.00    -0.295 N 
ATOM      7  H   UNL     1       8.639  -1.811  -1.213  0.00  0.00    +0.163 HD
ATOM      8  H   UNL     1       9.724  -1.941   0.041  0.00  0.00    +0.163 HD
ENDBRANCH   5   6
BRANCH   1   9
ATOM      9  C   UNL     1      10.620   0.719   0.008  0.00  0.00    +0.306 C 
BRANCH   9  10
ATOM     10  O   UNL     1      11.416   0.383   1.147  0.00  0.00    -0.484 OA
BRANCH  10  14
ATOM     11  C   UNL     1      15.512   0.547   0.681  0.00  0.00    -0.045 A 
ATOM     12  C   UNL     1      14.970   0.180   1.899  0.00  0.00    +0.007 A 
ATOM     13  C   UNL     1      13.599   0.124   2.058  0.00  0.00    +0.046 A 
ATOM     14  C   UNL     1      12.765   0.437   0.993  0.00  0.00    +0.121 A 
ATOM     15  C   UNL     1      13.312   0.800  -0.229  0.00  0.00    +0.046 A 
ATOM     16  C   UNL     1      14.684   0.860  -0.381  0.00  0.00    +0.007 A 
BRANCH  11  18
ATOM     17  C   UNL     1      17.436  -0.365  -0.590  0.00  0.00    +0.012 C 
ATOM     18  C   UNL     1      17.008   0.607   0.512  0.00  0.00    +0.013 C 
ATOM     19  C   UNL     1      17.421   2.028   0.125  0.00  0.00    +0.012 C 
ENDBRANCH  11  18
ENDBRANCH  10  14
ENDBRANCH   9  10
ENDBRANCH   1   9
BRANCH   4  20
ATOM     20  S   UNL     1       5.713  -1.181   0.756  0.00  0.00    -0.067 S 
BRANCH  20  21
ATOM     21  C   UNL     1       4.512  -0.004   1.427  0.00  0.00    +0.170 C 
BRANCH  21  22
ATOM     22  C   UNL     1       3.149  -0.645   1.467  0.00  0.00    +0.233 C 
ATOM     23  O   UNL     1       3.049  -1.852   1.544  0.00  0.00    -0.274 OA
ATOM     24  N   UNL     1       2.042   0.121   1.417  0.00  0.00    -0.300 N 
ATOM     25  C   UNL     1       2.145   1.587   1.435  0.00  0.00    +0.108 C 
ATOM     26  C   UNL     1       1.262   2.129   2.563  0.00  0.00    +0.019 C 
ATOM     27  C   UNL     1      -0.164   1.601   2.389  0.00  0.00    +0.003 C 
ATOM     28  C   UNL     1      -0.157   0.073   2.473  0.00  0.00    +0.019 C 
ATOM     29  C   UNL     1       0.709  -0.493   1.343  0.00  0.00    +0.108 C 
ENDBRANCH  21  22
BRANCH  21  30
ATOM     30  C   UNL     1       4.923   0.392   2.821  0.00  0.00    -0.025 A 
ATOM     31  C   UNL     1       5.029  -0.568   3.810  0.00  0.00    +0.005 A 
ATOM     32  C   UNL     1       5.410  -0.205   5.088  0.00  0.00    +0.000 A 
ATOM     33  C   UNL     1       5.674   1.119   5.381  0.00  0.00    +0.000 A 
ATOM     34  C   UNL     1       5.562   2.081   4.394  0.00  0.00    +0.000 A 
ATOM     35  C   UNL     1       5.186   1.717   3.114  0.00  0.00    +0.005 A 
ENDBRANCH  21  30
ENDBRANCH  20  21
ENDBRANCH   4  20
TORSDOF 9
