REMARK  Name = ZINC38917894
REMARK  9 active torsions:
REMARK  status: ('A' for Active; 'I' for Inactive)
REMARK    1  A    between atoms: C_1  and  O_2
REMARK    2  A    between atoms: O_2  and  C_3
REMARK    3  A    between atoms: C_5  and  C_13
REMARK    4  A    between atoms: C_6  and  O_11
REMARK    5  A    between atoms: C_8  and  O_9
REMARK    6  A    between atoms: O_9  and  C_10
REMARK    7  A    between atoms: O_11  and  C_12
REMARK    8  A    between atoms: N_14  and  N_15
REMARK    9  A    between atoms: C_16  and  C_22
REMARK                            x       y       z     vdW  Elec       q    Type
REMARK                         _______ _______ _______ _____ _____    ______ ____
ROOT
ATOM      1  C   UNL     1       2.589   0.351  -4.128  0.00  0.00    +0.142 C 
ATOM      2  N   UNL     1       2.970  -0.229  -5.226  0.00  0.00    -0.183 NA
ENDROOT
BRANCH   2   3
ATOM      3  N   UNL     1       3.450   0.539  -6.294  0.00  0.00    -0.172 N 
ATOM      4  C   UNL     1       4.029   0.059  -7.563  0.00  0.00    +0.264 C 
ATOM      5  N   UNL     1       4.351   1.295  -8.293  0.00  0.00    -0.189 NA
ATOM      6  N   UNL     1       4.025   2.253  -7.587  0.00  0.00    -0.219 N 
ATOM      7  C   UNL     1       3.481   1.886  -6.396  0.00  0.00    +0.174 C 
ATOM      8  S   UNL     1       2.922   2.973  -5.197  0.00  0.00    -0.015 S 
ATOM      9  H   UNL     1       4.141   3.178  -7.857  0.00  0.00    +0.176 HD
BRANCH   4  10
ATOM     10  C   UNL     1       3.022  -0.762  -8.326  0.00  0.00    +0.001 A 
ATOM     11  C   UNL     1       2.047  -1.489  -7.660  0.00  0.00    +0.025 A 
ATOM     12  C   UNL     1       1.141  -2.231  -8.394  0.00  0.00    +0.083 A 
ATOM     13  N   UNL     1       1.196  -2.252  -9.711  0.00  0.00    -0.367 N 
ATOM     14  C   UNL     1       2.110  -1.574 -10.378  0.00  0.00    +0.083 A 
ATOM     15  C   UNL     1       3.045  -0.805  -9.712  0.00  0.00    +0.025 A 
ATOM     16  H   UNL     1       0.549  -2.781 -10.203  0.00  0.00    +0.165 HD
ENDBRANCH   4  10
ENDBRANCH   2   3
BRANCH   1  19
ATOM     17  C   UNL     1       0.971  -0.566  -0.867  0.00  0.00    +0.162 A 
ATOM     18  C   UNL     1       1.555   0.181  -1.871  0.00  0.00    +0.062 A 
ATOM     19  C   UNL     1       1.966  -0.441  -3.054  0.00  0.00    +0.040 A 
ATOM     20  C   UNL     1       1.783  -1.822  -3.214  0.00  0.00    +0.132 A 
ATOM     21  C   UNL     1       1.196  -2.561  -2.202  0.00  0.00    +0.095 A 
ATOM     22  C   UNL     1       0.796  -1.939  -1.029  0.00  0.00    +0.165 A 
BRANCH  17  24
ATOM     23  C   UNL     1       0.779   1.448   0.383  0.00  0.00    +0.277 C 
ATOM     24  O   UNL     1       0.570   0.038   0.284  0.00  0.00    -0.491 OA
ENDBRANCH  17  24
BRANCH  22  25
ATOM     25  O   UNL     1       0.226  -2.671  -0.035  0.00  0.00    -0.491 OA
ATOM     26  C   UNL     1       0.077  -4.073  -0.266  0.00  0.00    +0.277 C 
ENDBRANCH  22  25
BRANCH  20  27
ATOM     27  O   UNL     1       2.180  -2.433  -4.361  0.00  0.00    -0.494 OA
ATOM     28  C   UNL     1       1.962  -3.842  -4.454  0.00  0.00    +0.277 C 
ENDBRANCH  20  27
ENDBRANCH   1  19
TORSDOF 6
