REMARK  Name = ZINC63980863
REMARK  9 active torsions:
REMARK  status: ('A' for Active; 'I' for Inactive)
REMARK    1  A    between atoms: C_1  and  C_2
REMARK    2  A    between atoms: C_2  and  C_3
REMARK    3  A    between atoms: C_2  and  C_4
REMARK    4  A    between atoms: C_4  and  C_5
REMARK    5  A    between atoms: C_5  and  N_6
REMARK    6  A    between atoms: N_9  and  C_28
REMARK    7  A    between atoms: N_15  and  C_18
REMARK    8  A    between atoms: C_18  and  C_19
REMARK    9  A    between atoms: C_28  and  C_29
REMARK                            x       y       z     vdW  Elec       q    Type
REMARK                         _______ _______ _______ _____ _____    ______ ____
ROOT
ATOM      1  N   UNL     1      -3.935  -0.291  -1.560  0.00  0.00    -0.271 N 
ATOM      2  C   UNL     1      -4.550  -1.395  -2.028  0.00  0.00    +0.312 C 
ATOM      3  O   UNL     1      -3.967  -2.323  -2.552  0.00  0.00    -0.252 OA
ATOM      4  N   UNL     1      -5.877  -1.354  -1.849  0.00  0.00    -0.215 N 
ATOM      5  C   UNL     1      -6.261  -0.212  -1.243  0.00  0.00    +0.247 C 
ATOM      6  O   UNL     1      -7.390   0.118  -0.946  0.00  0.00    -0.273 OA
ATOM      7  C   UNL     1      -4.989   0.568  -1.007  0.00  0.00    +0.112 C 
ATOM      8  C   UNL     1      -4.768   0.793   0.486  0.00  0.00    +0.017 C 
ATOM      9  C   UNL     1      -3.499   1.627   0.689  0.00  0.00    -0.076 C 
ATOM     10  N   UNL     1      -3.640   2.913  -0.006  0.00  0.00    +0.382 N 
ATOM     11  C   UNL     1      -3.758   2.690  -1.452  0.00  0.00    -0.076 C 
ATOM     12  C   UNL     1      -5.037   1.901  -1.746  0.00  0.00    +0.017 C 
ATOM     13  H   UNL     1      -4.466   3.385   0.329  0.00  0.00    -0.081 HD
ENDROOT
BRANCH   1  14
ATOM     14  C   UNL     1      -2.498  -0.008  -1.593  0.00  0.00    +0.110 C 
BRANCH  14  15
ATOM     15  C   UNL     1      -2.046   0.170  -3.043  0.00  0.00    +0.022 C 
BRANCH  15  17
ATOM     16  C   UNL     1       0.292  -0.534  -2.512  0.00  0.00    +0.007 C 
ATOM     17  C   UNL     1      -0.576   0.595  -3.071  0.00  0.00    -0.016 C 
ATOM     18  C   UNL     1      -0.159   0.894  -4.512  0.00  0.00    +0.007 C 
ENDBRANCH  15  17
ENDBRANCH  14  15
ENDBRANCH   1  14
BRANCH  10  19
ATOM     19  C   UNL     1      -2.460   3.745   0.265  0.00  0.00    -0.045 C 
BRANCH  19  20
ATOM     20  C   UNL     1      -2.426   4.107   1.728  0.00  0.00    -0.058 C 
ATOM     21  C   UNL     1      -1.736   3.476   2.705  0.00  0.00    -0.003 A 
ATOM     22  C   UNL     1      -0.846   2.308   2.699  0.00  0.00    +0.010 A 
ATOM     23  C   UNL     1      -0.289   1.902   3.863  0.00  0.00    +0.001 A 
ATOM     24  C   UNL     1      -0.540   2.567   5.072  0.00  0.00    +0.002 A 
ATOM     25  C   UNL     1      -1.346   3.647   5.156  0.00  0.00    +0.026 A 
ATOM     26  C   UNL     1      -1.984   4.160   3.994  0.00  0.00    +0.043 A 
ATOM     27  N   UNL     1      -2.796   5.175   3.820  0.00  0.00    -0.380 N 
ATOM     28  C   UNL     1      -3.150   5.252   2.398  0.00  0.00    +0.142 C 
ATOM     29  H   UNL     1      -3.107   5.776   4.515  0.00  0.00    +0.160 HD
ENDBRANCH  19  20
ENDBRANCH  10  19
BRANCH   4  30
ATOM     30  C   UNL     1      -6.796  -2.418  -2.261  0.00  0.00    +0.213 C 
BRANCH  30  31
ATOM     31  C   UNL     1      -6.960  -3.404  -1.133  0.00  0.00    +0.228 C 
ATOM     32  O   UNL     1      -6.367  -3.235  -0.089  0.00  0.00    -0.274 OA
ATOM     33  N   UNL     1      -7.765  -4.474  -1.286  0.00  0.00    -0.328 N 
ATOM     34  H   UNL     1      -8.239  -4.609  -2.121  0.00  0.00    +0.145 HD
ATOM     35  H   UNL     1      -7.871  -5.109  -0.560  0.00  0.00    +0.145 HD
ENDBRANCH  30  31
ENDBRANCH   4  30
TORSDOF 7
