REMARK  Name = ZINC13109966
REMARK  3 active torsions:
REMARK  status: ('A' for Active; 'I' for Inactive)
REMARK    1  A    between atoms: C_4  and  C_7
REMARK    2  A    between atoms: C_18  and  C_20
REMARK    3  A    between atoms: C_20  and  N_21
REMARK                            x       y       z     vdW  Elec       q    Type
REMARK                         _______ _______ _______ _____ _____    ______ ____
ROOT
ATOM      1  C   UNL     1       4.657   5.468  -4.309  0.00  0.00    +0.149 C 
ATOM      2  C   UNL     1       6.177   5.402  -4.075  0.00  0.00    +0.256 C 
ATOM      3  O   UNL     1       6.775   4.676  -5.151  0.00  0.00    -0.488 OA
ATOM      4  C   UNL     1       6.232   3.475  -5.484  0.00  0.00    +0.142 A 
ATOM      5  C   UNL     1       6.984   2.557  -6.202  0.00  0.00    +0.047 A 
ATOM      6  C   UNL     1       6.438   1.335  -6.548  0.00  0.00    +0.004 A 
ATOM      7  C   UNL     1       5.141   1.022  -6.183  0.00  0.00    +0.002 A 
ATOM      8  C   UNL     1       4.385   1.931  -5.468  0.00  0.00    +0.027 A 
ATOM      9  C   UNL     1       4.928   3.156  -5.116  0.00  0.00    +0.079 A 
ATOM     10  N   UNL     1       4.163   4.083  -4.386  0.00  0.00    -0.256 N 
ATOM     11  C   UNL     1       3.015   3.717  -3.782  0.00  0.00    +0.238 C 
ATOM     12  O   UNL     1       2.679   2.552  -3.773  0.00  0.00    -0.273 OA
ENDROOT
BRANCH   1  16
ATOM     13  C   UNL     1       3.831   7.507  -7.971  0.00  0.00    +0.000 A 
ATOM     14  C   UNL     1       3.676   8.164  -6.764  0.00  0.00    +0.000 A 
ATOM     15  C   UNL     1       3.943   7.504  -5.579  0.00  0.00    +0.005 A 
ATOM     16  C   UNL     1       4.366   6.188  -5.601  0.00  0.00    -0.023 A 
ATOM     17  C   UNL     1       4.526   5.533  -6.808  0.00  0.00    +0.005 A 
ATOM     18  C   UNL     1       4.254   6.191  -7.993  0.00  0.00    +0.000 A 
ENDBRANCH   1  16
BRANCH  11  19
ATOM     19  C   UNL     1       2.150   4.756  -3.117  0.00  0.00    +0.214 C 
BRANCH  19  20
ATOM     20  N   UNL     1       0.910   4.132  -2.649  0.00  0.00    -0.215 N 
ATOM     21  C   UNL     1       0.753   3.584  -1.423  0.00  0.00    +0.247 C 
ATOM     22  O   UNL     1       1.598   3.515  -0.556  0.00  0.00    -0.273 OA
ATOM     23  C   UNL     1      -0.668   3.087  -1.379  0.00  0.00    +0.113 C 
ATOM     24  C   UNL     1      -0.697   1.556  -1.200  0.00  0.00    +0.035 C 
ATOM     25  C   UNL     1      -0.028   1.113   0.012  0.00  0.00    +0.003 C 
ATOM     26  C   UNL     1      -0.724   1.593   1.298  0.00  0.00    +0.000 C 
ATOM     27  C   UNL     1      -0.109   2.898   1.717  0.00  0.00    +0.000 C 
ATOM     28  C   UNL     1      -0.677   4.109   0.957  0.00  0.00    +0.003 C 
ATOM     29  C   UNL     1      -1.484   3.737  -0.300  0.00  0.00    +0.035 C 
ATOM     30  N   UNL     1      -1.201   3.417  -2.713  0.00  0.00    -0.285 N 
ATOM     31  C   UNL     1      -0.206   4.031  -3.380  0.00  0.00    +0.310 C 
ATOM     32  O   UNL     1      -0.309   4.446  -4.518  0.00  0.00    -0.252 OA
ATOM     33  H   UNL     1      -2.094   3.227  -3.039  0.00  0.00    +0.151 HD
ENDBRANCH  19  20
ENDBRANCH  11  19
TORSDOF 3
