REMARK  Name = ZINC04967734
REMARK  6 active torsions:
REMARK  status: ('A' for Active; 'I' for Inactive)
REMARK    1  A    between atoms: C_5  and  C_7
REMARK    2  A    between atoms: C_7  and  O_24
REMARK    3  A    between atoms: C_12  and  C_13
REMARK    4  A    between atoms: C_12  and  N_46
REMARK    5  A    between atoms: N_17  and  C_18
REMARK    6  A    between atoms: C_18  and  C_19
REMARK                            x       y       z     vdW  Elec       q    Type
REMARK                         _______ _______ _______ _____ _____    ______ ____
ROOT
ATOM      1  C   UNL     1      -2.194   1.077  -1.207  0.00  0.00    +0.090 C 
ATOM      2  C   UNL     1      -0.752   1.593  -1.232  0.00  0.00    +0.021 C 
ATOM      3  C   UNL     1      -0.013   1.086   0.008  0.00  0.00    -0.075 C 
ATOM      4  C   UNL     1      -2.071   1.038   1.287  0.00  0.00    -0.075 C 
ATOM      5  C   UNL     1      -2.872   1.544   0.085  0.00  0.00    +0.021 C 
ATOM      6  N   UNL     1      -0.701   1.589   1.216  0.00  0.00    +0.385 N 
ATOM      7  H   UNL     1      -0.755   2.613   1.165  0.00  0.00    -0.081 HD
ENDROOT
BRANCH   1  12
ATOM      8  C   UNL     1      -4.185   1.256  -4.410  0.00  0.00    +0.001 A 
ATOM      9  C   UNL     1      -4.324   2.621  -4.574  0.00  0.00    +0.003 A 
ATOM     10  C   UNL     1      -3.774   3.489  -3.650  0.00  0.00    +0.039 A 
ATOM     11  C   UNL     1      -3.087   2.990  -2.556  0.00  0.00    +0.129 A 
ATOM     12  C   UNL     1      -2.945   1.622  -2.394  0.00  0.00    +0.019 A 
ATOM     13  C   UNL     1      -3.496   0.756  -3.320  0.00  0.00    +0.009 A 
ATOM     14  F   UNL     1      -2.554   3.837  -1.649  0.00  0.00    -0.205 F 
ENDBRANCH   1  12
BRANCH   1  15
ATOM     15  O   UNL     1      -2.192  -0.351  -1.256  0.00  0.00    -0.384 OA
ATOM     16  H   UNL     1      -3.074  -0.747  -1.243  0.00  0.00    +0.211 HD
ENDBRANCH   1  15
BRANCH   6  17
ATOM     17  C   UNL     1       0.059   1.209   2.425  0.00  0.00    +0.000 C 
BRANCH  17  18
ATOM     18  C   UNL     1      -0.538   1.914   3.615  0.00  0.00    +0.136 A 
ATOM     19  N   UNL     1      -0.205   3.096   4.072  0.00  0.00    -0.115 NA
ATOM     20  N   UNL     1      -0.942   3.349   5.098  0.00  0.00    -0.023 NA
ATOM     21  N   UNL     1      -1.732   2.354   5.312  0.00  0.00    -0.044 NA
ATOM     22  N   UNL     1      -1.513   1.450   4.418  0.00  0.00    -0.224 N 
BRANCH  22  23
ATOM     23  C   UNL     1      -2.198   0.160   4.300  0.00  0.00    +0.221 C 
BRANCH  23  24
ATOM     24  C   UNL     1      -1.456  -0.878   5.101  0.00  0.00    +0.126 A 
ATOM     25  C   UNL     1      -1.671  -1.175   6.396  0.00  0.00    +0.046 A 
ATOM     26  C   UNL     1      -0.760  -2.201   6.737  0.00  0.00    +0.041 A 
ATOM     27  C   UNL     1      -0.038  -2.464   5.634  0.00  0.00    +0.195 A 
ATOM     28  O   UNL     1      -0.463  -1.660   4.646  0.00  0.00    -0.466 OA
ENDBRANCH  23  24
ENDBRANCH  22  23
ENDBRANCH  17  18
ENDBRANCH   6  17
TORSDOF 6
