REMARK  Name = ZINC19169261
REMARK  3 active torsions:
REMARK  status: ('A' for Active; 'I' for Inactive)
REMARK    1  A    between atoms: C_6  and  C_7
REMARK    2  A    between atoms: C_9  and  C_20
REMARK    3  A    between atoms: C_11  and  C_18
REMARK                            x       y       z     vdW  Elec       q    Type
REMARK                         _______ _______ _______ _____ _____    ______ ____
ROOT
ATOM      1  C   UNL     1      -1.293  -0.775   0.011  0.00  0.00    +0.122 C 
ATOM      2  C   UNL     1      -1.515  -1.419   1.392  0.00  0.00    +0.147 C 
ATOM      3  C   UNL     1      -2.005  -2.844   1.063  0.00  0.00    +0.193 C 
ATOM      4  N   UNL     1      -1.414  -3.146  -0.257  0.00  0.00    -0.222 NA
ATOM      5  N   UNL     1      -1.230  -1.878  -0.960  0.00  0.00    -0.230 NA
ATOM      6  C   UNL     1       0.070  -1.900  -1.653  0.00  0.00    +0.104 C 
ATOM      7  C   UNL     1       0.678  -3.291  -1.365  0.00  0.00    +0.034 C 
ATOM      8  C   UNL     1      -0.053  -3.715  -0.064  0.00  0.00    +0.105 C 
ENDROOT
BRANCH   1  14
ATOM      9  C   UNL     1       1.174  -0.617   0.406  0.00  0.00    +0.007 A 
ATOM     10  C   UNL     1       2.362   0.089   0.397  0.00  0.00    +0.020 A 
ATOM     11  C   UNL     1       2.378   1.410  -0.015  0.00  0.00    +0.041 A 
ATOM     12  C   UNL     1       1.205   2.023  -0.418  0.00  0.00    +0.020 A 
ATOM     13  C   UNL     1       0.018   1.315  -0.410  0.00  0.00    +0.007 A 
ATOM     14  C   UNL     1       0.002  -0.004   0.002  0.00  0.00    -0.028 A 
ATOM     15 CL   UNL     1       3.870   2.298  -0.025  0.00  0.00    -0.084 Cl
ENDBRANCH   1  14
BRANCH   3  16
ATOM     16  C   UNL     1      -1.522  -3.799   2.075  0.00  0.00    +0.084 C 
ATOM     17  N   UNL     1      -1.150  -4.536   2.855  0.00  0.00    -0.195 NA
ENDBRANCH   3  16
BRANCH   2  18
ATOM     18  C   UNL     1      -0.253  -1.466   2.149  0.00  0.00    +0.070 C 
ATOM     19  N   UNL     1       0.721  -1.502   2.732  0.00  0.00    -0.196 NA
ENDBRANCH   2  18
TORSDOF 3
