REMARK  Name = ZINC39912410
REMARK  10 active torsions:
REMARK  status: ('A' for Active; 'I' for Inactive)
REMARK    1  A    between atoms: C_1  and  C_2
REMARK    2  A    between atoms: C_5  and  C_8
REMARK    3  A    between atoms: C_8  and  N_9
REMARK    4  A    between atoms: C_10  and  C_29
REMARK    5  A    between atoms: C_13  and  C_20
REMARK    6  A    between atoms: C_22  and  C_28
REMARK    7  A    between atoms: C_24  and  C_27
REMARK    8  A    between atoms: C_25  and  O_26
REMARK    9  A    between atoms: C_32  and  S_35
REMARK   10  A    between atoms: S_35  and  C_36
REMARK                            x       y       z     vdW  Elec       q    Type
REMARK                         _______ _______ _______ _____ _____    ______ ____
ROOT
ATOM      1  N   UNL     1       1.499  -4.569  -0.072  0.00  0.00    -0.281 N 
ATOM      2  C   UNL     1       2.348  -4.867  -1.232  0.00  0.00    +0.142 C 
ATOM      3  C   UNL     1       3.627  -5.432  -0.678  0.00  0.00    +0.035 A 
ATOM      4  C   UNL     1       4.899  -5.953  -0.942  0.00  0.00    +0.102 A 
ATOM      5  N   UNL     1       5.454  -6.245   0.218  0.00  0.00    -0.173 NA
ATOM      6  N   UNL     1       4.659  -5.960   1.188  0.00  0.00    -0.272 N 
ATOM      7  H   UNL     1       4.859  -6.091   2.128  0.00  0.00    +0.189 HD
ATOM      8  C   UNL     1       3.493  -5.446   0.697  0.00  0.00    +0.126 A 
ATOM      9  C   UNL     1       2.174  -4.904   1.042  0.00  0.00    +0.266 C 
ATOM     10  O   UNL     1       1.750  -4.777   2.175  0.00  0.00    -0.268 OA
ENDROOT
BRANCH   4  11
ATOM     11  C   UNL     1       5.510  -6.143  -2.281  0.00  0.00    +0.044 A 
ATOM     12  C   UNL     1       5.456  -5.121  -3.225  0.00  0.00    +0.017 A 
ATOM     13  C   UNL     1       6.026  -5.302  -4.469  0.00  0.00    -0.049 A 
ATOM     14  C   UNL     1       6.651  -6.496  -4.782  0.00  0.00    +0.010 A 
ATOM     15  C   UNL     1       6.710  -7.516  -3.852  0.00  0.00    -0.008 A 
ATOM     16  C   UNL     1       6.147  -7.346  -2.597  0.00  0.00    +0.129 A 
ATOM     17  C   UNL     1       7.393  -8.814  -4.200  0.00  0.00    +0.047 C 
ATOM     18  C   UNL     1       5.966  -4.195  -5.491  0.00  0.00    +0.044 C 
BRANCH  16  19
ATOM     19  O   UNL     1       6.209  -8.346  -1.680  0.00  0.00    -0.506 OA
ATOM     20  H   UNL     1       5.464  -8.961  -1.718  0.00  0.00    +0.292 HD
ENDBRANCH  16  19
ENDBRANCH   4  11
BRANCH   2  21
ATOM     21  C   UNL     1       1.675  -5.880  -2.122  0.00  0.00    -0.022 A 
ATOM     22  C   UNL     1       1.088  -7.003  -1.567  0.00  0.00    +0.007 A 
ATOM     23  C   UNL     1       0.470  -7.934  -2.379  0.00  0.00    +0.015 A 
ATOM     24  C   UNL     1       0.439  -7.741  -3.755  0.00  0.00    +0.008 A 
ATOM     25  C   UNL     1       1.029  -6.611  -4.309  0.00  0.00    +0.015 A 
ATOM     26  C   UNL     1       1.640  -5.682  -3.490  0.00  0.00    +0.007 A 
BRANCH  24  27
ATOM     27  S   UNL     1      -0.348  -8.926  -4.795  0.00  0.00    -0.129 S 
ATOM     28  C   UNL     1      -0.135  -8.253  -6.466  0.00  0.00    +0.090 C 
ENDBRANCH  24  27
ENDBRANCH   2  21
BRANCH   1  29
ATOM     29  C   UNL     1       0.150  -4.000  -0.120  0.00  0.00    +0.144 C 
BRANCH  29  34
ATOM     30  C   UNL     1       0.483   1.767   0.046  0.00  0.00    +0.044 C 
ATOM     31  C   UNL     1       0.396   0.263   0.003  0.00  0.00    -0.050 A 
ATOM     32  C   UNL     1       0.413  -0.396  -1.212  0.00  0.00    +0.003 A 
ATOM     33  C   UNL     1       0.333  -1.775  -1.252  0.00  0.00    +0.005 A 
ATOM     34  C   UNL     1       0.237  -2.496  -0.076  0.00  0.00    -0.030 A 
ATOM     35  C   UNL     1       0.222  -1.838   1.139  0.00  0.00    +0.005 A 
ATOM     36  C   UNL     1       0.306  -0.458   1.179  0.00  0.00    +0.003 A 
ENDBRANCH  29  34
ENDBRANCH   1  29
TORSDOF 6
