REMARK  Name = ZINC40176665
REMARK  7 active torsions:
REMARK  status: ('A' for Active; 'I' for Inactive)
REMARK    1  A    between atoms: C_1  and  C_2
REMARK    2  A    between atoms: N_7  and  S_8
REMARK    3  A    between atoms: S_8  and  C_11
REMARK    4  A    between atoms: C_14  and  N_17
REMARK    5  A    between atoms: C_18  and  C_20
REMARK    6  A    between atoms: C_20  and  S_21
REMARK    7  A    between atoms: S_21  and  C_22
REMARK                            x       y       z     vdW  Elec       q    Type
REMARK                         _______ _______ _______ _____ _____    ______ ____
ROOT
ATOM      1  C   UNL     1       0.101  -5.401   3.354  0.00  0.00    +0.113 A 
ATOM      2  C   UNL     1       1.295  -5.860   3.879  0.00  0.00    +0.031 A 
ATOM      3  C   UNL     1       1.311  -6.510   5.098  0.00  0.00    +0.025 A 
ATOM      4  C   UNL     1       0.126  -6.702   5.796  0.00  0.00    +0.034 A 
ATOM      5  C   UNL     1      -1.072  -6.240   5.266  0.00  0.00    +0.025 A 
ATOM      6  C   UNL     1      -1.080  -5.587   4.049  0.00  0.00    +0.031 A 
ENDROOT
BRANCH   4   7
ATOM      7  N   UNL     1       0.139  -7.360   7.031  0.00  0.00    -0.285 N 
ATOM      8  C   UNL     1       1.196  -7.226   7.855  0.00  0.00    +0.227 C 
ATOM      9  O   UNL     1       2.093  -6.461   7.571  0.00  0.00    -0.275 OA
ATOM     10  H   UNL     1      -0.614  -7.913   7.293  0.00  0.00    +0.155 HD
BRANCH   8  11
ATOM     11  C   UNL     1       1.264  -8.027   9.130  0.00  0.00    +0.172 C 
BRANCH  11  12
ATOM     12  S   UNL     1       2.797  -7.627  10.014  0.00  0.00    -0.089 S 
BRANCH  12  13
ATOM     13  C   UNL     1       2.728  -8.630  11.461  0.00  0.00    +0.136 A 
ATOM     14  N   UNL     1       1.797  -9.481  11.831  0.00  0.00    -0.233 NA
ATOM     15  C   UNL     1       1.877 -10.190  12.978  0.00  0.00    +0.079 A 
ATOM     16  C   UNL     1       0.953 -11.130  13.489  0.00  0.00    +0.029 A 
ATOM     17  C   UNL     1       1.187 -11.766  14.681  0.00  0.00    +0.002 A 
ATOM     18  C   UNL     1       2.331 -11.513  15.425  0.00  0.00    +0.001 A 
ATOM     19  C   UNL     1       3.256 -10.599  14.954  0.00  0.00    +0.017 A 
ATOM     20  C   UNL     1       3.030  -9.958  13.762  0.00  0.00    +0.040 A 
ATOM     21  S   UNL     1       3.910  -8.754  12.796  0.00  0.00    -0.061 S 
ENDBRANCH  12  13
ENDBRANCH  11  12
ENDBRANCH   8  11
ENDBRANCH   4   7
BRANCH   1  22
ATOM     22  S   UNL     1       0.085  -4.573   1.799  0.00  0.00    +0.101 S 
ATOM     23  O   UNL     1      -1.227  -4.719   1.274  0.00  0.00    -0.146 OA
ATOM     24  O   UNL     1       1.240  -5.008   1.095  0.00  0.00    -0.146 OA
BRANCH  22  31
ATOM     25  C   UNL     1       0.657   1.443  -0.048  0.00  0.00    +0.064 C 
ATOM     26  C   UNL     1       0.481  -0.054  -0.043  0.00  0.00    +0.022 A 
ATOM     27  C   UNL     1       0.320  -0.708  -1.194  0.00  0.00    +0.069 A 
ATOM     28  S   UNL     1       0.162  -2.400  -0.645  0.00  0.00    -0.057 S 
ATOM     29  C   UNL     1       0.324  -2.104   1.109  0.00  0.00    +0.192 A 
ATOM     30  N   UNL     1       0.492  -0.736   1.138  0.00  0.00    -0.336 N 
ATOM     31  N   UNL     1       0.296  -2.959   2.102  0.00  0.00    -0.103 NA
ATOM     32  H   UNL     1       0.613  -0.269   1.980  0.00  0.00    +0.168 HD
ENDBRANCH  22  31
ENDBRANCH   1  22
TORSDOF 6
