REMARK  Name = ZINC39530690
REMARK  10 active torsions:
REMARK  status: ('A' for Active; 'I' for Inactive)
REMARK    1  A    between atoms: C_1  and  C_2
REMARK    2  A    between atoms: C_2  and  C_3
REMARK    3  A    between atoms: C_2  and  S_4
REMARK    4  A    between atoms: S_4  and  C_7
REMARK    5  A    between atoms: C_9  and  C_30
REMARK    6  A    between atoms: C_12  and  N_13
REMARK    7  A    between atoms: C_17  and  S_20
REMARK    8  A    between atoms: S_20  and  O_23
REMARK    9  A    between atoms: O_23  and  C_24
REMARK   10  A    between atoms: C_35  and  O_36
REMARK                            x       y       z     vdW  Elec       q    Type
REMARK                         _______ _______ _______ _____ _____    ______ ____
ROOT
ATOM      1  C   UNL     1      -2.050  -1.978  -0.597  0.00  0.00    +0.110 A 
ATOM      2  C   UNL     1      -2.748  -2.685   0.360  0.00  0.00    +0.037 A 
ATOM      3  C   UNL     1      -2.722  -4.079   0.352  0.00  0.00    -0.012 A 
ATOM      4  C   UNL     1      -1.990  -4.755  -0.624  0.00  0.00    +0.010 A 
ATOM      5  C   UNL     1      -1.294  -4.044  -1.578  0.00  0.00    +0.025 A 
ATOM      6  C   UNL     1      -1.326  -2.654  -1.571  0.00  0.00    +0.055 A 
ENDROOT
BRANCH   6   7
ATOM      7  N   UNL     1      -0.624  -1.936  -2.542  0.00  0.00    -0.330 N 
ATOM      8  C   UNL     1      -1.299  -1.443  -3.752  0.00  0.00    +0.086 C 
ATOM      9  C   UNL     1      -0.476  -1.867  -4.973  0.00  0.00    -0.061 C 
ATOM     10  N   UNL     1       0.907  -1.399  -4.817  0.00  0.00    +0.398 N 
ATOM     11  C   UNL     1       1.533  -2.066  -3.668  0.00  0.00    +0.133 C 
ATOM     12  C   UNL     1       0.809  -1.647  -2.380  0.00  0.00    +0.115 C 
ATOM     13  H   UNL     1       1.429  -1.612  -5.654  0.00  0.00    -0.083 HD
ATOM     14  H   UNL     1       0.909  -0.401  -4.667  0.00  0.00    -0.083 HD
BRANCH  11  15
ATOM     15  S   UNL     1       3.278  -1.581  -3.565  0.00  0.00    +0.109 S 
ATOM     16  O   UNL     1       3.391  -0.164  -3.539  0.00  0.00    -0.138 OA
ATOM     17  O   UNL     1       3.952  -2.379  -2.602  0.00  0.00    -0.138 OA
BRANCH  15  18
ATOM     18  O   UNL     1       3.879  -1.994  -4.901  0.00  0.00    -0.347 OA
BRANCH  18  19
ATOM     19  C   UNL     1       4.094  -3.330  -5.021  0.00  0.00    +0.156 A 
ATOM     20  C   UNL     1       5.297  -3.881  -4.604  0.00  0.00    +0.048 A 
ATOM     21  C   UNL     1       5.512  -5.240  -4.727  0.00  0.00    +0.004 A 
ATOM     22  C   UNL     1       4.530  -6.051  -5.265  0.00  0.00    +0.000 A 
ATOM     23  C   UNL     1       3.330  -5.505  -5.681  0.00  0.00    +0.004 A 
ATOM     24  C   UNL     1       3.107  -4.147  -5.555  0.00  0.00    +0.048 A 
ENDBRANCH  18  19
ENDBRANCH  15  18
ENDBRANCH  11  15
ENDBRANCH   6   7
BRANCH   3  25
ATOM     25  C   UNL     1      -3.471  -4.841   1.380  0.00  0.00    +0.024 A 
ATOM     26  C   UNL     1      -3.330  -4.522   2.729  0.00  0.00    +0.012 A 
ATOM     27  C   UNL     1      -4.030  -5.235   3.681  0.00  0.00    +0.001 A 
ATOM     28  C   UNL     1      -4.872  -6.266   3.302  0.00  0.00    +0.004 A 
ATOM     29  C   UNL     1      -5.018  -6.590   1.967  0.00  0.00    +0.046 A 
ATOM     30  C   UNL     1      -4.327  -5.879   0.999  0.00  0.00    +0.125 A 
BRANCH  30  31
ATOM     31  O   UNL     1      -4.475  -6.194  -0.314  0.00  0.00    -0.506 OA
ATOM     32  H   UNL     1      -3.849  -6.859  -0.633  0.00  0.00    +0.292 HD
ENDBRANCH  30  31
ENDBRANCH   3  25
BRANCH   1  33
ATOM     33  S   UNL     1      -2.083  -0.216  -0.588  0.00  0.00    +0.001 S 
ATOM     34  O   UNL     1      -3.025   0.124   0.420  0.00  0.00    -0.169 OA
ATOM     35  O   UNL     1      -2.308   0.149  -1.942  0.00  0.00    -0.169 OA
BRANCH  33  37
ATOM     36  C   UNL     1      -0.304   1.804  -0.101  0.00  0.00    +0.032 C 
ATOM     37  C   UNL     1      -0.414   0.278  -0.076  0.00  0.00    +0.130 C 
ATOM     38  C   UNL     1      -0.144  -0.229   1.342  0.00  0.00    +0.032 C 
ENDBRANCH  33  37
ENDBRANCH   1  33
TORSDOF 8
