REMARK  Name = ZINC60279086
REMARK  6 active torsions:
REMARK  status: ('A' for Active; 'I' for Inactive)
REMARK    1  A    between atoms: C_1  and  C_2
REMARK    2  A    between atoms: C_2  and  C_4
REMARK    3  A    between atoms: C_2  and  N_10
REMARK    4  A    between atoms: N_15  and  C_18
REMARK    5  A    between atoms: C_18  and  C_19
REMARK    6  A    between atoms: N_22  and  C_24
REMARK                            x       y       z     vdW  Elec       q    Type
REMARK                         _______ _______ _______ _____ _____    ______ ____
ROOT
ATOM      1  N   UNL     1      -1.159  -0.810  -0.384  0.00  0.00    -0.210 N 
ATOM      2  C   UNL     1      -2.297  -0.940   0.332  0.00  0.00    +0.310 C 
ATOM      3  O   UNL     1      -2.557  -0.426   1.399  0.00  0.00    -0.264 OA
ATOM      4  C   UNL     1      -3.171  -1.856  -0.472  0.00  0.00    +0.310 C 
ATOM      5  O   UNL     1      -4.288  -2.239  -0.193  0.00  0.00    -0.264 OA
ATOM      6  N   UNL     1      -2.452  -2.164  -1.573  0.00  0.00    -0.212 N 
ATOM      7  C   UNL     1      -1.268  -1.534  -1.509  0.00  0.00    +0.319 C 
ATOM      8  O   UNL     1      -0.404  -1.613  -2.359  0.00  0.00    -0.252 OA
ENDROOT
BRANCH   1  10
ATOM      9  C   UNL     1      -0.459   1.401   0.393  0.00  0.00    +0.034 C 
ATOM     10  C   UNL     1       0.002  -0.004   0.002  0.00  0.00    +0.113 C 
BRANCH  10  11
ATOM     11  C   UNL     1       0.695  -0.650   1.175  0.00  0.00    -0.027 A 
ATOM     12  C   UNL     1       0.061  -0.714   2.401  0.00  0.00    +0.005 A 
ATOM     13  C   UNL     1       0.696  -1.307   3.477  0.00  0.00    +0.000 A 
ATOM     14  C   UNL     1       1.965  -1.835   3.325  0.00  0.00    +0.000 A 
ATOM     15  C   UNL     1       2.598  -1.771   2.098  0.00  0.00    +0.000 A 
ATOM     16  C   UNL     1       1.961  -1.183   1.022  0.00  0.00    +0.005 A 
ENDBRANCH  10  11
ENDBRANCH   1  10
BRANCH   6  17
ATOM     17  C   UNL     1      -2.894  -3.039  -2.662  0.00  0.00    +0.176 C 
BRANCH  17  18
ATOM     18  C   UNL     1      -3.599  -2.218  -3.712  0.00  0.00    +0.085 A 
ATOM     19  C   UNL     1      -4.971  -1.931  -3.746  0.00  0.00    -0.002 A 
ATOM     20  C   UNL     1      -5.208  -1.171  -4.838  0.00  0.00    +0.048 A 
ATOM     21  N   UNL     1      -4.027  -0.982  -5.474  0.00  0.00    -0.236 N 
ATOM     22  N   UNL     1      -3.034  -1.645  -4.743  0.00  0.00    -0.169 NA
ATOM     23  C   UNL     1      -6.679  -0.829  -4.929  0.00  0.00    +0.056 C 
ATOM     24  C   UNL     1      -7.383  -1.834  -3.991  0.00  0.00    +0.011 C 
ATOM     25  C   UNL     1      -6.258  -2.178  -2.990  0.00  0.00    +0.039 C 
BRANCH  21  26
ATOM     26  C   UNL     1      -3.833  -0.248  -6.652  0.00  0.00    +0.066 A 
ATOM     27  C   UNL     1      -4.810  -0.244  -7.638  0.00  0.00    +0.028 A 
ATOM     28  C   UNL     1      -4.616   0.480  -8.798  0.00  0.00    +0.002 A 
ATOM     29  C   UNL     1      -3.449   1.200  -8.978  0.00  0.00    +0.000 A 
ATOM     30  C   UNL     1      -2.474   1.197  -7.999  0.00  0.00    +0.002 A 
ATOM     31  C   UNL     1      -2.665   0.480  -6.834  0.00  0.00    +0.028 A 
ENDBRANCH  21  26
ENDBRANCH  17  18
ENDBRANCH   6  17
TORSDOF 5
