REMARK  Name = ZINC63403900
REMARK  10 active torsions:
REMARK  status: ('A' for Active; 'I' for Inactive)
REMARK    1  A    between atoms: C_1  and  O_2
REMARK    2  A    between atoms: O_2  and  C_3
REMARK    3  A    between atoms: C_7  and  C_11
REMARK    4  A    between atoms: C_8  and  O_9
REMARK    5  A    between atoms: O_9  and  C_10
REMARK    6  A    between atoms: C_11  and  C_13
REMARK    7  A    between atoms: C_11  and  C_27
REMARK    8  A    between atoms: C_13  and  N_14
REMARK    9  A    between atoms: C_15  and  C_17
REMARK   10  A    between atoms: N_22  and  C_24
REMARK                            x       y       z     vdW  Elec       q    Type
REMARK                         _______ _______ _______ _____ _____    ______ ____
ROOT
ATOM      1  C   UNL     1       1.455  -4.348  -2.175  0.00  0.00    +0.068 C 
ENDROOT
BRANCH   1   2
ATOM      2  C   UNL     1       2.932  -4.611  -2.315  0.00  0.00    -0.033 C 
ATOM      3  C   UNL     1       3.742  -5.207  -1.410  0.00  0.00    -0.000 A 
ATOM      4  C   UNL     1       3.498  -5.766  -0.075  0.00  0.00    +0.010 A 
ATOM      5  C   UNL     1       4.532  -6.309   0.607  0.00  0.00    +0.001 A 
ATOM      6  C   UNL     1       5.827  -6.350   0.073  0.00  0.00    +0.002 A 
ATOM      7  C   UNL     1       6.129  -5.857  -1.147  0.00  0.00    +0.026 A 
ATOM      8  C   UNL     1       5.118  -5.263  -1.952  0.00  0.00    +0.043 A 
ATOM      9  N   UNL     1       5.158  -4.723  -3.146  0.00  0.00    -0.380 N 
ATOM     10  C   UNL     1       3.809  -4.268  -3.499  0.00  0.00    +0.145 C 
ATOM     11  H   UNL     1       5.947  -4.641  -3.704  0.00  0.00    +0.160 HD
ENDBRANCH   1   2
BRANCH   1  16
ATOM     12  C   UNL     1       0.480  -0.803  -1.275  0.00  0.00    +0.162 A 
ATOM     13  C   UNL     1       0.723  -0.143  -2.468  0.00  0.00    +0.049 A 
ATOM     14  C   UNL     1       1.202  -0.843  -3.560  0.00  0.00    +0.004 A 
ATOM     15  C   UNL     1       1.438  -2.202  -3.464  0.00  0.00    +0.008 A 
ATOM     16  C   UNL     1       1.197  -2.867  -2.276  0.00  0.00    +0.007 A 
ATOM     17  C   UNL     1       0.723  -2.170  -1.176  0.00  0.00    +0.165 A 
BRANCH  12  19
ATOM     18  C   UNL     1      -0.218   1.285  -0.374  0.00  0.00    +0.277 C 
ATOM     19  O   UNL     1       0.009  -0.116  -0.200  0.00  0.00    -0.491 OA
ENDBRANCH  12  19
BRANCH  17  20
ATOM     20  O   UNL     1       0.491  -2.821  -0.005  0.00  0.00    -0.491 OA
ATOM     21  C   UNL     1      -0.818  -3.360   0.189  0.00  0.00    +0.277 C 
ENDBRANCH  17  20
ENDBRANCH   1  16
BRANCH   1  22
ATOM     22  C   UNL     1       0.700  -5.074  -3.290  0.00  0.00    +0.117 C 
BRANCH  22  23
ATOM     23  N   UNL     1      -0.741  -4.873  -3.116  0.00  0.00    -0.314 N 
ATOM     24  C   UNL     1      -1.610  -5.459  -3.962  0.00  0.00    +0.218 C 
ATOM     25  O   UNL     1      -1.200  -6.153  -4.869  0.00  0.00    -0.275 OA
ATOM     26  H   UNL     1      -1.069  -4.318  -2.391  0.00  0.00    +0.149 HD
BRANCH  24  27
ATOM     27  C   UNL     1      -3.092  -5.252  -3.783  0.00  0.00    +0.101 C 
ATOM     28  C   UNL     1      -3.578  -5.860  -2.446  0.00  0.00    +0.110 C 
ATOM     29  C   UNL     1      -4.942  -6.427  -2.771  0.00  0.00    +0.217 C 
ATOM     30  O   UNL     1      -5.778  -6.741  -1.949  0.00  0.00    -0.276 OA
ATOM     31  N   UNL     1      -5.095  -6.532  -4.102  0.00  0.00    -0.298 N 
ATOM     32  C   UNL     1      -3.894  -6.076  -4.814  0.00  0.00    +0.121 C 
BRANCH  31  33
ATOM     33  C   UNL     1      -6.303  -7.037  -4.759  0.00  0.00    +0.076 C 
ATOM     34  C   UNL     1      -7.534  -7.280  -3.883  0.00  0.00    +0.024 C 
ATOM     35  C   UNL     1      -6.740  -8.467  -4.432  0.00  0.00    +0.024 C 
ENDBRANCH  31  33
ENDBRANCH  24  27
ENDBRANCH  22  23
ENDBRANCH   1  22
TORSDOF 8
