REMARK  Name = ZINC35707627
REMARK  11 active torsions:
REMARK  status: ('A' for Active; 'I' for Inactive)
REMARK    1  A    between atoms: C_1  and  C_2
REMARK    2  A    between atoms: C_3  and  C_31
REMARK    3  A    between atoms: C_4  and  C_11
REMARK    4  A    between atoms: N_9  and  C_10
REMARK    5  A    between atoms: C_15  and  N_17
REMARK    6  A    between atoms: C_18  and  C_20
REMARK    7  A    between atoms: C_23  and  C_25
REMARK    8  A    between atoms: C_31  and  O_33
REMARK    9  A    between atoms: O_33  and  C_34
REMARK   10  A    between atoms: C_34  and  C_35
REMARK   11  A    between atoms: C_34  and  C_36
REMARK                            x       y       z     vdW  Elec       q    Type
REMARK                         _______ _______ _______ _____ _____    ______ ____
ROOT
ATOM      1  C   UNL     1      -1.572  -2.949   1.475  0.00  0.00    -0.021 A 
ATOM      2  C   UNL     1      -0.755  -3.189   2.565  0.00  0.00    +0.006 A 
ATOM      3  C   UNL     1      -1.254  -3.843   3.676  0.00  0.00    +0.002 A 
ATOM      4  C   UNL     1      -2.571  -4.258   3.701  0.00  0.00    +0.023 A 
ATOM      5  C   UNL     1      -3.394  -4.018   2.609  0.00  0.00    +0.034 A 
ATOM      6  C   UNL     1      -2.891  -3.357   1.496  0.00  0.00    +0.029 A 
ENDROOT
BRANCH   1  10
ATOM      7  C   UNL     1       0.241   1.369   0.787  0.00  0.00    +0.061 C 
ATOM      8  C   UNL     1       0.179  -0.109   0.495  0.00  0.00    +0.024 C 
ATOM      9  C   UNL     1      -1.006  -0.751   0.568  0.00  0.00    +0.078 C 
ATOM     10  C   UNL     1      -1.023  -2.236   0.266  0.00  0.00    +0.144 C 
ATOM     11  N   UNL     1       0.264  -2.861  -0.083  0.00  0.00    -0.288 N 
ATOM     12  C   UNL     1       1.366  -2.085  -0.114  0.00  0.00    +0.307 C 
ATOM     13  O   UNL     1       2.433  -2.591  -0.402  0.00  0.00    -0.252 OA
ATOM     14  N   UNL     1       1.322  -0.775   0.156  0.00  0.00    -0.262 N 
ATOM     15  C   UNL     1       2.572  -0.014   0.090  0.00  0.00    +0.139 C 
ATOM     16  H   UNL     1       0.317  -3.808  -0.286  0.00  0.00    +0.151 HD
BRANCH   9  17
ATOM     17  C   UNL     1      -2.192  -0.062   0.913  0.00  0.00    +0.339 C 
ATOM     18  O   UNL     1      -2.154   1.131   1.152  0.00  0.00    -0.245 OA
BRANCH  17  19
ATOM     19  O   UNL     1      -3.364  -0.726   0.979  0.00  0.00    -0.459 OA
BRANCH  19  20
ATOM     20  C   UNL     1      -4.521   0.033   1.335  0.00  0.00    +0.171 C 
ATOM     21  C   UNL     1      -5.175   0.590   0.068  0.00  0.00    +0.052 C 
ATOM     22  C   UNL     1      -5.517  -0.868   2.068  0.00  0.00    +0.052 C 
ENDBRANCH  19  20
ENDBRANCH  17  19
ENDBRANCH   9  17
ENDBRANCH   1  10
BRANCH   5  23
ATOM     23  N   UNL     1      -4.729  -4.438   2.631  0.00  0.00    -0.285 N 
ATOM     24  C   UNL     1      -5.429  -4.396   3.781  0.00  0.00    +0.221 C 
ATOM     25  O   UNL     1      -4.886  -4.055   4.811  0.00  0.00    -0.275 OA
ATOM     26  H   UNL     1      -5.150  -4.759   1.818  0.00  0.00    +0.155 HD
BRANCH  24  27
ATOM     27  C   UNL     1      -6.888  -4.774   3.789  0.00  0.00    +0.083 C 
ATOM     28  C   UNL     1      -7.280  -6.066   4.511  0.00  0.00    +0.022 C 
ATOM     29  C   UNL     1      -7.628  -4.709   5.127  0.00  0.00    +0.032 C 
BRANCH  29  30
ATOM     30  C   UNL     1      -6.841  -4.271   6.336  0.00  0.00    -0.044 A 
ATOM     31  C   UNL     1      -5.732  -4.992   6.737  0.00  0.00    +0.004 A 
ATOM     32  C   UNL     1      -5.011  -4.591   7.846  0.00  0.00    +0.000 A 
ATOM     33  C   UNL     1      -5.399  -3.468   8.554  0.00  0.00    +0.000 A 
ATOM     34  C   UNL     1      -6.507  -2.747   8.152  0.00  0.00    +0.000 A 
ATOM     35  C   UNL     1      -7.226  -3.146   7.041  0.00  0.00    +0.004 A 
ENDBRANCH  29  30
ENDBRANCH  24  27
ENDBRANCH   5  23
TORSDOF 7
