REMARK  Name = ZINC08377011
REMARK  10 active torsions:
REMARK  status: ('A' for Active; 'I' for Inactive)
REMARK    1  A    between atoms: C_1  and  N_42
REMARK    2  A    between atoms: C_2  and  C_3
REMARK    3  A    between atoms: C_2  and  N_42
REMARK    4  A    between atoms: C_3  and  C_4
REMARK    5  A    between atoms: C_4  and  N_45
REMARK    6  A    between atoms: C_5  and  C_6
REMARK    7  A    between atoms: C_5  and  N_45
REMARK    8  A    between atoms: C_11  and  O_12
REMARK    9  A    between atoms: O_12  and  C_13
REMARK   10  A    between atoms: C_13  and  C_14
REMARK                            x       y       z     vdW  Elec       q    Type
REMARK                         _______ _______ _______ _____ _____    ______ ____
ROOT
ATOM      1  C   UNL     1       0.684  -2.022  -1.168  0.00  0.00    -0.022 A 
ATOM      2  C   UNL     1       1.812  -2.705  -0.757  0.00  0.00    +0.020 A 
ATOM      3  C   UNL     1       1.813  -4.088  -0.732  0.00  0.00    +0.018 A 
ATOM      4  C   UNL     1       0.685  -4.790  -1.119  0.00  0.00    +0.019 A 
ATOM      5  C   UNL     1      -0.444  -4.110  -1.532  0.00  0.00    +0.047 A 
ATOM      6  C   UNL     1      -0.450  -2.723  -1.551  0.00  0.00    +0.122 A 
ATOM      7 BR   UNL     1       3.359  -5.021  -0.169  0.00  0.00    -0.050 Br
ENDROOT
BRANCH   1   8
ATOM      8  C   UNL     1       0.683  -0.515  -1.195  0.00  0.00    -0.043 C 
BRANCH   8   9
ATOM      9  N   UNL     1      -0.002  -0.010   0.010  0.00  0.00    +0.382 N 
ATOM     10  H   UNL     1      -0.968  -0.359   0.021  0.00  0.00    -0.085 HD
ATOM     11  H   UNL     1       0.492  -0.344   0.845  0.00  0.00    -0.085 HD
BRANCH   9  12
ATOM     12  C   UNL     1      -0.018   1.465   0.010  0.00  0.00    -0.084 C 
BRANCH  12  13
ATOM     13  C   UNL     1      -0.734   1.958   1.269  0.00  0.00    -0.038 C 
BRANCH  13  14
ATOM     14  C   UNL     1      -0.755   3.488   1.277  0.00  0.00    -0.085 C 
BRANCH  14  16
ATOM     15  C   UNL     1      -1.482   5.430   2.528  0.00  0.00    -0.101 C 
ATOM     16  N   UNL     1      -1.446   3.955   2.493  0.00  0.00    +0.377 N 
ATOM     17  H   UNL     1      -2.407   3.594   2.497  0.00  0.00    -0.086 HD
ATOM     18  H   UNL     1      -0.948   3.609   3.321  0.00  0.00    -0.086 HD
ENDBRANCH  14  16
ENDBRANCH  13  14
ENDBRANCH  12  13
ENDBRANCH   9  12
ENDBRANCH   8   9
ENDBRANCH   1   8
BRANCH   6  19
ATOM     19  O   UNL     1      -1.562  -2.052  -1.950  0.00  0.00    -0.487 OA
BRANCH  19  20
ATOM     20  C   UNL     1      -2.693  -2.839  -2.329  0.00  0.00    +0.266 C 
BRANCH  20  21
ATOM     21  C   UNL     1      -3.823  -1.930  -2.739  0.00  0.00    +0.008 A 
ATOM     22  C   UNL     1      -3.656  -0.559  -2.699  0.00  0.00    +0.008 A 
ATOM     23  C   UNL     1      -4.691   0.275  -3.078  0.00  0.00    +0.000 A 
ATOM     24  C   UNL     1      -5.897  -0.262  -3.489  0.00  0.00    +0.001 A 
ATOM     25  C   UNL     1      -6.067  -1.633  -3.525  0.00  0.00    +0.020 A 
ATOM     26  C   UNL     1      -5.030  -2.468  -3.149  0.00  0.00    +0.047 A 
ATOM     27 CL   UNL     1      -5.242  -4.191  -3.193  0.00  0.00    -0.083 Cl
ENDBRANCH  20  21
ENDBRANCH  19  20
ENDBRANCH   6  19
TORSDOF 9
