REMARK  Name = ZINC21256973
REMARK  10 active torsions:
REMARK  status: ('A' for Active; 'I' for Inactive)
REMARK    1  A    between atoms: C_1  and  C_2
REMARK    2  A    between atoms: C_2  and  C_3
REMARK    3  A    between atoms: C_2  and  O_4
REMARK    4  A    between atoms: O_4  and  C_5
REMARK    5  A    between atoms: C_8  and  C_11
REMARK    6  A    between atoms: C_16  and  C_26
REMARK    7  A    between atoms: C_28  and  N_35
REMARK    8  A    between atoms: C_29  and  O_34
REMARK    9  A    between atoms: C_30  and  O_32
REMARK   10  A    between atoms: O_32  and  C_33
REMARK                            x       y       z     vdW  Elec       q    Type
REMARK                         _______ _______ _______ _____ _____    ______ ____
ROOT
ATOM      1  C   UNL     1       1.583   5.655   1.565  0.00  0.00    +0.032 C 
ATOM      2  C   UNL     1       1.576   5.569   0.040  0.00  0.00    +0.059 C 
ATOM      3  C   UNL     1       0.904   4.281  -0.403  0.00  0.00    +0.017 C 
ATOM      4  C   UNL     1      -0.100   3.750   0.319  0.00  0.00    +0.036 C 
ATOM      5  C   UNL     1      -0.860   2.490  -0.014  0.00  0.00    +0.136 C 
ATOM      6  N   UNL     1      -0.624   1.976  -1.346  0.00  0.00    -0.331 N 
ATOM      7  C   UNL     1       0.635   1.507  -1.723  0.00  0.00    +0.049 A 
ATOM      8  C   UNL     1       0.855   0.171  -2.015  0.00  0.00    +0.025 A 
ATOM      9  C   UNL     1       2.139  -0.260  -2.297  0.00  0.00    +0.002 A 
ATOM     10  C   UNL     1       3.195   0.633  -2.287  0.00  0.00    +0.002 A 
ATOM     11  C   UNL     1       2.975   1.972  -2.012  0.00  0.00    +0.025 A 
ATOM     12  C   UNL     1       1.688   2.409  -1.748  0.00  0.00    +0.052 A 
ATOM     13  N   UNL     1       1.384   3.750  -1.555  0.00  0.00    -0.316 N 
ATOM     14  C   UNL     1      -0.523   4.378   1.514  0.00  0.00    +0.163 C 
ATOM     15  O   UNL     1      -1.446   3.890   2.137  0.00  0.00    -0.292 OA
ATOM     16  C   UNL     1       0.125   5.622   2.041  0.00  0.00    +0.088 C 
ATOM     17  H   UNL     1      -1.443   1.950  -2.079  0.00  0.00    +0.147 HD
ATOM     18  H   UNL     1       1.561   4.398  -2.427  0.00  0.00    +0.152 HD
ENDROOT
BRANCH   1  22
ATOM     19  C   UNL     1       3.433   9.303   2.802  0.00  0.00    +0.121 A 
ATOM     20  C   UNL     1       3.965   8.085   3.199  0.00  0.00    +0.046 A 
ATOM     21  C   UNL     1       3.365   6.907   2.797  0.00  0.00    +0.007 A 
ATOM     22  C   UNL     1       2.235   6.941   2.002  0.00  0.00    -0.043 A 
ATOM     23  C   UNL     1       1.706   8.154   1.601  0.00  0.00    +0.007 A 
ATOM     24  C   UNL     1       2.299   9.335   2.004  0.00  0.00    +0.046 A 
BRANCH  19  25
ATOM     25  O   UNL     1       4.021  10.463   3.196  0.00  0.00    -0.489 OA
BRANCH  25  27
ATOM     26  C   UNL     1       6.404  10.085   3.339  0.00  0.00    +0.051 C 
ATOM     27  C   UNL     1       5.112  10.359   4.112  0.00  0.00    +0.167 C 
ATOM     28  C   UNL     1       5.252  11.669   4.891  0.00  0.00    +0.051 C 
ENDBRANCH  25  27
ENDBRANCH  19  25
ENDBRANCH   1  22
BRANCH   5  29
ATOM     29  C   UNL     1      -0.476   1.425   0.981  0.00  0.00    -0.017 A 
ATOM     30  C   UNL     1       0.826   0.961   1.025  0.00  0.00    +0.042 A 
ATOM     31  C   UNL     1       1.183  -0.017   1.936  0.00  0.00    +0.171 A 
ATOM     32  C   UNL     1       0.236  -0.532   2.806  0.00  0.00    +0.189 A 
ATOM     33  C   UNL     1      -1.073  -0.065   2.761  0.00  0.00    +0.164 A 
ATOM     34  C   UNL     1      -1.424   0.918   1.850  0.00  0.00    +0.055 A 
BRANCH  31  35
ATOM     35  N   UNL     1       2.577  -0.512   1.980  0.00  0.00    +0.060 N 
ATOM     36  O   UNL     1       3.409  -0.059   1.215  0.00  0.00    -0.126 OA
ATOM     37  O   UNL     1       2.892  -1.373   2.782  0.00  0.00    -0.126 OA
ENDBRANCH  31  35
BRANCH  33  38
ATOM     38  O   UNL     1      -2.006  -0.568   3.613  0.00  0.00    -0.491 OA
ATOM     39  C   UNL     1      -3.330  -0.041   3.510  0.00  0.00    +0.277 C 
ENDBRANCH  33  38
BRANCH  32  40
ATOM     40  O   UNL     1       0.586  -1.494   3.702  0.00  0.00    -0.502 OA
ATOM     41  H   UNL     1      -0.166  -1.903   4.392  0.00  0.00    +0.292 HD
ENDBRANCH  32  40
ENDBRANCH   5  29
TORSDOF 7
