REMARK  Name = ZINC08622816
REMARK  7 active torsions:
REMARK  status: ('A' for Active; 'I' for Inactive)
REMARK    1  A    between atoms: C_1  and  C_2
REMARK    2  A    between atoms: C_4  and  C_28
REMARK    3  A    between atoms: C_5  and  N_9
REMARK    4  A    between atoms: C_10  and  C_12
REMARK    5  A    between atoms: C_12  and  N_13
REMARK    6  A    between atoms: C_16  and  C_20
REMARK    7  A    between atoms: C_16  and  C_21
REMARK                            x       y       z     vdW  Elec       q    Type
REMARK                         _______ _______ _______ _____ _____    ______ ____
ROOT
ATOM      1  N   UNL     1      -6.341   0.871  -0.803  0.00  0.00    -0.215 N 
ATOM      2  C   UNL     1      -7.235   1.879  -0.847  0.00  0.00    +0.251 C 
ATOM      3  O   UNL     1      -7.023   3.033  -1.153  0.00  0.00    -0.272 OA
ATOM      4  C   UNL     1      -8.560   1.270  -0.434  0.00  0.00    +0.135 C 
ATOM      5  N   UNL     1      -8.228  -0.143  -0.182  0.00  0.00    -0.281 N 
ATOM      6  C   UNL     1      -6.912  -0.279  -0.428  0.00  0.00    +0.310 C 
ATOM      7  O   UNL     1      -6.309  -1.329  -0.319  0.00  0.00    -0.252 OA
ATOM      8  C   UNL     1      -9.583   1.388  -1.566  0.00  0.00    +0.047 C 
ATOM      9  H   UNL     1      -8.839  -0.840   0.104  0.00  0.00    +0.152 HD
ENDROOT
BRANCH   4  10
ATOM     10  C   UNL     1      -9.077   1.925   0.820  0.00  0.00    -0.015 A 
ATOM     11  C   UNL     1      -8.765   3.245   1.090  0.00  0.00    +0.007 A 
ATOM     12  C   UNL     1      -9.243   3.848   2.237  0.00  0.00    +0.020 A 
ATOM     13  C   UNL     1     -10.026   3.128   3.122  0.00  0.00    +0.041 A 
ATOM     14  C   UNL     1     -10.334   1.806   2.855  0.00  0.00    +0.020 A 
ATOM     15  C   UNL     1      -9.859   1.205   1.704  0.00  0.00    +0.007 A 
ATOM     16 CL   UNL     1     -10.622   3.883   4.567  0.00  0.00    -0.084 Cl
ENDBRANCH   4  10
BRANCH   1  17
ATOM     17  C   UNL     1      -4.920   1.016  -1.130  0.00  0.00    +0.214 C 
BRANCH  17  19
ATOM     18  N   UNL     1      -2.818   1.560   0.054  0.00  0.00    -0.283 N 
ATOM     19  C   UNL     1      -4.152   1.375   0.115  0.00  0.00    +0.235 C 
ATOM     20  O   UNL     1      -4.733   1.498   1.173  0.00  0.00    -0.274 OA
ATOM     21  H   UNL     1      -2.364   1.534  -0.802  0.00  0.00    +0.155 HD
BRANCH  18  26
ATOM     22  C   UNL     1       0.126   2.493   4.815  0.00  0.00    +0.044 C 
ATOM     23  C   UNL     1      -0.653   2.244   3.549  0.00  0.00    -0.049 A 
ATOM     24  C   UNL     1      -1.114   3.313   2.801  0.00  0.00    +0.008 A 
ATOM     25  C   UNL     1      -1.828   3.089   1.641  0.00  0.00    -0.028 A 
ATOM     26  C   UNL     1      -2.089   1.790   1.227  0.00  0.00    +0.055 A 
ATOM     27  C   UNL     1      -1.620   0.718   1.976  0.00  0.00    +0.063 A 
ATOM     28  C   UNL     1      -0.906   0.949   3.137  0.00  0.00    +0.025 A 
ATOM     29 CL   UNL     1      -1.936  -0.909   1.459  0.00  0.00    -0.082 Cl
ATOM     30  C   UNL     1      -2.329   4.255   0.827  0.00  0.00    +0.046 C 
ENDBRANCH  18  26
ENDBRANCH  17  19
ENDBRANCH   1  17
TORSDOF 4
