REMARK  Name = ZINC08843088
REMARK  12 active torsions:
REMARK  status: ('A' for Active; 'I' for Inactive)
REMARK    1  A    between atoms: C_1  and  C_2
REMARK    2  A    between atoms: C_2  and  C_3
REMARK    3  A    between atoms: C_3  and  C_5
REMARK    4  A    between atoms: C_3  and  C_6
REMARK    5  A    between atoms: C_9  and  O_12
REMARK    6  A    between atoms: O_12  and  C_13
REMARK    7  A    between atoms: C_13  and  C_14
REMARK    8  A    between atoms: C_14  and  O_15
REMARK    9  A    between atoms: O_15  and  C_16
REMARK   10  A    between atoms: C_17  and  O_33
REMARK   11  A    between atoms: C_19  and  C_23
REMARK   12  A    between atoms: O_33  and  C_34
REMARK                            x       y       z     vdW  Elec       q    Type
REMARK                         _______ _______ _______ _____ _____    ______ ____
ROOT
ATOM      1  C   UNL     1      -0.350  -2.663   0.943  0.00  0.00    +0.176 A 
ATOM      2  C   UNL     1      -1.470  -1.835   1.045  0.00  0.00    +0.163 A 
ATOM      3  C   UNL     1      -1.366  -0.493   0.748  0.00  0.00    +0.057 A 
ATOM      4  C   UNL     1      -0.134   0.036   0.332  0.00  0.00    -0.019 A 
ATOM      5  C   UNL     1       0.986  -0.802   0.232  0.00  0.00    +0.027 A 
ATOM      6  C   UNL     1       0.872  -2.140   0.536  0.00  0.00    +0.064 A 
ATOM      7 BR   UNL     1       2.383  -3.269   0.401  0.00  0.00    -0.046 Br
ENDROOT
BRANCH   4   8
ATOM      8  C   UNL     1      -0.018   1.458   0.010  0.00  0.00    +0.026 C 
ATOM      9  C   UNL     1      -0.972   2.068  -0.782  0.00  0.00    +0.100 C 
ATOM     10  C   UNL     1      -1.992   1.282  -1.503  0.00  0.00    +0.256 C 
ATOM     11  O   UNL     1      -2.021   0.069  -1.420  0.00  0.00    -0.270 OA
ATOM     12  N   UNL     1      -2.895   1.946  -2.253  0.00  0.00    -0.236 N 
ATOM     13  C   UNL     1      -2.872   3.282  -2.359  0.00  0.00    +0.313 C 
ATOM     14  O   UNL     1      -3.711   3.818  -3.056  0.00  0.00    -0.252 OA
ATOM     15  N   UNL     1      -1.974   4.059  -1.737  0.00  0.00    -0.236 N 
ATOM     16  C   UNL     1      -1.014   3.534  -0.948  0.00  0.00    +0.256 C 
ATOM     17  O   UNL     1      -0.204   4.250  -0.390  0.00  0.00    -0.270 OA
ATOM     18  H   UNL     1      -3.575   1.445  -2.731  0.00  0.00    +0.159 HD
ATOM     19  H   UNL     1      -2.015   5.020  -1.858  0.00  0.00    +0.159 HD
ENDBRANCH   4   8
BRANCH   2  20
ATOM     20  O   UNL     1      -2.663  -2.353   1.444  0.00  0.00    -0.491 OA
ATOM     21  C   UNL     1      -3.767  -1.449   1.527  0.00  0.00    +0.277 C 
ENDBRANCH   2  20
BRANCH   1  22
ATOM     22  O   UNL     1      -0.455  -3.983   1.242  0.00  0.00    -0.484 OA
BRANCH  22  23
ATOM     23  C   UNL     1      -0.209  -4.363   2.597  0.00  0.00    +0.270 C 
BRANCH  23  24
ATOM     24  C   UNL     1      -0.373  -5.878   2.740  0.00  0.00    +0.270 C 
BRANCH  24  25
ATOM     25  O   UNL     1       0.634  -6.540   1.972  0.00  0.00    -0.489 OA
BRANCH  25  29
ATOM     26  C   UNL     1       0.619 -10.665   2.028  0.00  0.00    -0.044 A 
ATOM     27  C   UNL     1       1.571  -9.988   1.288  0.00  0.00    +0.007 A 
ATOM     28  C   UNL     1       1.578  -8.607   1.268  0.00  0.00    +0.046 A 
ATOM     29  C   UNL     1       0.629  -7.899   1.990  0.00  0.00    +0.121 A 
ATOM     30  C   UNL     1      -0.322  -8.581   2.736  0.00  0.00    +0.046 A 
ATOM     31  C   UNL     1      -0.328  -9.962   2.748  0.00  0.00    +0.007 A 
BRANCH  26  32
ATOM     32  C   UNL     1       0.614 -12.172   2.048  0.00  0.00    +0.016 C 
ATOM     33  C   UNL     1       0.802 -12.664   3.485  0.00  0.00    +0.012 C 
BRANCH  32  35
ATOM     34  C   UNL     1      -0.680 -14.211   1.408  0.00  0.00    +0.004 C 
ATOM     35  C   UNL     1      -0.721 -12.685   1.504  0.00  0.00    +0.004 C 
ENDBRANCH  32  35
ENDBRANCH  26  32
ENDBRANCH  25  29
ENDBRANCH  24  25
ENDBRANCH  23  24
ENDBRANCH  22  23
ENDBRANCH   1  22
TORSDOF 9
