REMARK  Name = ZINC06142523
REMARK  16 active torsions:
REMARK  status: ('A' for Active; 'I' for Inactive)
REMARK    1  A    between atoms: C_1  and  C_2
REMARK    2  A    between atoms: C_2  and  C_3
REMARK    3  A    between atoms: C_2  and  O_4
REMARK    4  A    between atoms: O_4  and  C_5
REMARK    5  A    between atoms: C_5  and  C_7
REMARK    6  A    between atoms: C_7  and  C_8
REMARK    7  A    between atoms: C_8  and  C_9
REMARK    8  A    between atoms: C_9  and  N_10
REMARK    9  A    between atoms: N_17  and  C_21
REMARK   10  A    between atoms: C_21  and  C_22
REMARK   11  A    between atoms: C_22  and  C_23
REMARK   12  A    between atoms: C_23  and  C_24
REMARK   13  A    between atoms: C_24  and  O_26
REMARK   14  A    between atoms: O_26  and  C_27
REMARK   15  A    between atoms: C_27  and  C_28
REMARK   16  A    between atoms: C_27  and  C_29
REMARK                            x       y       z     vdW  Elec       q    Type
REMARK                         _______ _______ _______ _____ _____    ______ ____
ROOT
ATOM      1  N   UNL     1       1.100   1.924   0.002  0.00  0.00    -0.255 N 
ATOM      2  C   UNL     1      -0.014   1.212   0.009  0.00  0.00    +0.260 C 
ATOM      3  O   UNL     1       0.002  -0.004   0.002  0.00  0.00    -0.269 OA
ATOM      4  C   UNL     1      -1.285   1.975   0.019  0.00  0.00    +0.095 C 
ATOM      5  C   UNL     1      -2.583   1.518   0.022  0.00  0.00    +0.095 C 
ATOM      6  C   UNL     1      -3.854   2.282   0.038  0.00  0.00    +0.260 C 
ATOM      7  O   UNL     1      -3.871   3.498   0.051  0.00  0.00    -0.269 OA
ATOM      8  N   UNL     1      -4.969   1.570   0.034  0.00  0.00    -0.255 N 
ATOM      9  C   UNL     1      -4.946   0.222   0.027  0.00  0.00    +0.121 C 
ATOM     10  S   UNL     1      -6.270  -0.863   0.027  0.00  0.00    -0.027 S 
ATOM     11  S   UNL     1      -3.202  -0.159   0.017  0.00  0.00    -0.060 S 
ATOM     12  S   UNL     1      -0.667   3.653   0.027  0.00  0.00    -0.060 S 
ATOM     13  C   UNL     1       1.077   3.272   0.009  0.00  0.00    +0.121 C 
ATOM     14  S   UNL     1       2.401   4.357   0.003  0.00  0.00    -0.027 S 
ENDROOT
BRANCH   1  15
ATOM     15  C   UNL     1       2.391   1.231  -0.013  0.00  0.00    +0.115 C 
BRANCH  15  16
ATOM     16  C   UNL     1       2.827   0.996  -1.461  0.00  0.00    +0.030 C 
BRANCH  16  17
ATOM     17  C   UNL     1       4.175   0.273  -1.476  0.00  0.00    +0.122 C 
BRANCH  17  18
ATOM     18  C   UNL     1       4.605   0.042  -2.902  0.00  0.00    +0.307 C 
ATOM     19  O   UNL     1       3.905   0.417  -3.813  0.00  0.00    -0.251 OA
BRANCH  18  20
ATOM     20  O   UNL     1       5.765  -0.581  -3.161  0.00  0.00    -0.462 OA
BRANCH  20  22
ATOM     21  C   UNL     1       7.638  -0.768  -4.707  0.00  0.00    +0.052 C 
ATOM     22  C   UNL     1       6.115  -0.769  -4.558  0.00  0.00    +0.170 C 
ATOM     23  C   UNL     1       5.556  -2.107  -5.048  0.00  0.00    +0.052 C 
ENDBRANCH  20  22
ENDBRANCH  18  20
ENDBRANCH  17  18
ENDBRANCH  16  17
ENDBRANCH  15  16
ENDBRANCH   1  15
BRANCH   8  24
ATOM     24  C   UNL     1      -6.260   2.263   0.044  0.00  0.00    +0.115 C 
BRANCH  24  25
ATOM     25  C   UNL     1      -6.702   2.496   1.490  0.00  0.00    +0.030 C 
BRANCH  25  26
ATOM     26  C   UNL     1      -8.050   3.220   1.501  0.00  0.00    +0.122 C 
BRANCH  26  27
ATOM     27  C   UNL     1      -8.486   3.450   2.925  0.00  0.00    +0.307 C 
ATOM     28  O   UNL     1      -7.789   3.074   3.838  0.00  0.00    -0.251 OA
BRANCH  27  29
ATOM     29  O   UNL     1      -9.647   4.073   3.179  0.00  0.00    -0.462 OA
BRANCH  29  30
ATOM     30  C   UNL     1     -10.003   4.260   4.575  0.00  0.00    +0.170 C 
ATOM     31  C   UNL     1     -10.844   5.529   4.721  0.00  0.00    +0.052 C 
ATOM     32  C   UNL     1     -10.810   3.055   5.061  0.00  0.00    +0.052 C 
ENDBRANCH  29  30
ENDBRANCH  27  29
ENDBRANCH  26  27
ENDBRANCH  25  26
ENDBRANCH  24  25
ENDBRANCH   8  24
TORSDOF 12
