REMARK  Name = ZINC36131558
REMARK  8 active torsions:
REMARK  status: ('A' for Active; 'I' for Inactive)
REMARK    1  A    between atoms: C_1  and  C_2
REMARK    2  A    between atoms: C_7  and  C_8
REMARK    3  A    between atoms: C_8  and  N_9
REMARK    4  A    between atoms: N_9  and  C_10
REMARK    5  A    between atoms: N_9  and  C_11
REMARK    6  A    between atoms: C_14  and  S_18
REMARK    7  A    between atoms: C_16  and  N_17
REMARK    8  A    between atoms: S_18  and  N_21
REMARK                            x       y       z     vdW  Elec       q    Type
REMARK                         _______ _______ _______ _____ _____    ______ ____
ROOT
ATOM      1  C   UNL     1      -2.052   1.254   2.609  0.00  0.00    +0.051 A 
ATOM      2  C   UNL     1      -2.691   1.292   1.379  0.00  0.00    +0.027 A 
ATOM      3  C   UNL     1      -3.346   2.441   0.976  0.00  0.00    +0.030 A 
ATOM      4  C   UNL     1      -3.367   3.554   1.796  0.00  0.00    +0.107 A 
ATOM      5  C   UNL     1      -2.732   3.524   3.024  0.00  0.00    +0.053 A 
ATOM      6  C   UNL     1      -2.077   2.374   3.439  0.00  0.00    +0.048 A 
ENDROOT
BRANCH   6   7
ATOM      7  N   UNL     1      -1.439   2.340   4.684  0.00  0.00    -0.356 N 
ATOM      8  H   UNL     1      -0.978   1.536   4.971  0.00  0.00    +0.142 HD
ATOM      9  H   UNL     1      -1.457   3.120   5.260  0.00  0.00    +0.142 HD
ENDBRANCH   6   7
BRANCH   4  10
ATOM     10  S   UNL     1      -4.204   5.014   1.275  0.00  0.00    +0.056 S 
ATOM     11  O   UNL     1      -3.614   6.095   1.984  0.00  0.00    -0.153 OA
ATOM     12  O   UNL     1      -4.251   4.970  -0.144  0.00  0.00    -0.153 OA
BRANCH  10  13
ATOM     13  N   UNL     1      -5.768   4.898   1.805  0.00  0.00    -0.204 NA
ATOM     14  H   UNL     1      -6.268   5.701   2.022  0.00  0.00    +0.144 HD
ATOM     15  H   UNL     1      -6.185   4.027   1.899  0.00  0.00    +0.144 HD
ENDBRANCH  10  13
ENDBRANCH   4  10
BRANCH   1  16
ATOM     16  N   UNL     1      -1.388   0.091   3.019  0.00  0.00    -0.327 N 
ATOM     17  C   UNL     1      -2.084  -0.895   3.850  0.00  0.00    +0.129 C 
BRANCH  16  18
ATOM     18  C   UNL     1       0.002  -0.139   2.618  0.00  0.00    +0.140 C 
BRANCH  18  25
ATOM     19  C   UNL     1       2.511  -0.673   1.290  0.00  0.00    +0.044 C 
ATOM     20  C   UNL     1       1.232  -1.252   0.743  0.00  0.00    -0.046 A 
ATOM     21  C   UNL     1       1.260  -2.042  -0.391  0.00  0.00    +0.003 A 
ATOM     22  C   UNL     1       0.086  -2.572  -0.893  0.00  0.00    +0.000 A 
ATOM     23  C   UNL     1      -1.116  -2.312  -0.261  0.00  0.00    +0.000 A 
ATOM     24  C   UNL     1      -1.144  -1.523   0.874  0.00  0.00    +0.005 A 
ATOM     25  C   UNL     1       0.031  -0.996   1.378  0.00  0.00    -0.027 A 
ENDBRANCH  18  25
ENDBRANCH  16  18
ENDBRANCH   1  16
TORSDOF 6
