REMARK  Name = ZINC66514614
REMARK  11 active torsions:
REMARK  status: ('A' for Active; 'I' for Inactive)
REMARK    1  A    between atoms: C_1  and  C_2
REMARK    2  A    between atoms: C_2  and  C_3
REMARK    3  A    between atoms: C_3  and  N_4
REMARK    4  A    between atoms: C_10  and  N_13
REMARK    5  A    between atoms: C_14  and  C_16
REMARK    6  A    between atoms: C_17  and  C_28
REMARK    7  A    between atoms: C_19  and  N_21
REMARK    8  A    between atoms: C_22  and  C_24
REMARK    9  A    between atoms: C_24  and  C_25
REMARK   10  A    between atoms: C_24  and  C_26
REMARK   11  A    between atoms: C_24  and  C_27
REMARK                            x       y       z     vdW  Elec       q    Type
REMARK                         _______ _______ _______ _____ _____    ______ ____
ROOT
ATOM      1  N   UNL     1       2.316  -4.795  -4.318  0.00  0.00    -0.281 N 
ATOM      2  C   UNL     1       2.850  -5.771  -5.078  0.00  0.00    +0.255 C 
ATOM      3  O   UNL     1       3.430  -6.704  -4.552  0.00  0.00    -0.269 OA
ATOM      4  H   UNL     1       1.785  -4.095  -4.730  0.00  0.00    +0.155 HD
ENDROOT
BRANCH   1  11
ATOM      5  N   UNL     1      -0.381  -3.339  -1.090  0.00  0.00    +0.385 N 
ATOM      6  C   UNL     1       0.697  -3.397  -0.076  0.00  0.00    -0.042 C 
ATOM      7  C   UNL     1       1.832  -4.154  -0.729  0.00  0.00    -0.061 A 
ATOM      8  C   UNL     1       2.943  -4.783  -0.200  0.00  0.00    +0.002 A 
ATOM      9  C   UNL     1       3.846  -5.416  -1.034  0.00  0.00    +0.002 A 
ATOM     10  C   UNL     1       3.641  -5.422  -2.400  0.00  0.00    +0.023 A 
ATOM     11  C   UNL     1       2.526  -4.791  -2.936  0.00  0.00    +0.035 A 
ATOM     12  C   UNL     1       1.621  -4.156  -2.096  0.00  0.00    -0.041 A 
ATOM     13  C   UNL     1       0.342  -3.401  -2.380  0.00  0.00    -0.040 C 
ATOM     14  H   UNL     1      -1.002  -4.128  -0.994  0.00  0.00    -0.081 HD
BRANCH   5  15
ATOM     15  C   UNL     1      -1.127  -2.079  -0.977  0.00  0.00    -0.078 C 
BRANCH  15  17
ATOM     16  C   UNL     1      -2.739  -0.781   0.423  0.00  0.00    +0.002 C 
ATOM     17  C   UNL     1      -1.962  -2.093   0.305  0.00  0.00    -0.022 C 
ENDBRANCH  15  17
ENDBRANCH   5  15
ENDBRANCH   1  11
BRANCH   2  18
ATOM     18  C   UNL     1       2.733  -5.711  -6.533  0.00  0.00    +0.079 A 
ATOM     19  C   UNL     1       3.202  -6.607  -7.485  0.00  0.00    -0.029 A 
ATOM     20  C   UNL     1       2.942  -6.285  -8.791  0.00  0.00    +0.035 A 
ATOM     21  C   UNL     1       2.251  -5.127  -9.060  0.00  0.00    +0.073 A 
ATOM     22  S   UNL     1       1.944  -4.472  -7.543  0.00  0.00    -0.069 S 
ATOM     23  C   UNL     1       3.953  -7.856  -7.104  0.00  0.00    +0.045 C 
BRANCH  21  24
ATOM     24  N   UNL     1       1.884  -4.618 -10.300  0.00  0.00    -0.280 N 
ATOM     25  C   UNL     1       1.203  -3.458 -10.378  0.00  0.00    +0.223 C 
ATOM     26  O   UNL     1       0.910  -2.857  -9.366  0.00  0.00    -0.275 OA
ATOM     27  H   UNL     1       2.119  -5.098 -11.110  0.00  0.00    +0.155 HD
BRANCH  25  28
ATOM     28  C   UNL     1       0.806  -2.906 -11.723  0.00  0.00    +0.039 C 
ATOM     29  C   UNL     1       0.049  -1.590 -11.531  0.00  0.00    +0.020 C 
ATOM     30  C   UNL     1       2.061  -2.655 -12.562  0.00  0.00    +0.020 C 
ATOM     31  C   UNL     1      -0.095  -3.913 -12.441  0.00  0.00    +0.020 C 
ENDBRANCH  25  28
ENDBRANCH  21  24
ENDBRANCH   2  18
TORSDOF 6
