REMARK  Name = ZINC20172427
REMARK  7 active torsions:
REMARK  status: ('A' for Active; 'I' for Inactive)
REMARK    1  A    between atoms: C_1  and  C_2
REMARK    2  A    between atoms: C_5  and  S_8
REMARK    3  A    between atoms: S_8  and  C_11
REMARK    4  A    between atoms: C_17  and  C_24
REMARK    5  A    between atoms: N_25  and  C_28
REMARK    6  A    between atoms: C_26  and  N_27
REMARK    7  A    between atoms: C_28  and  C_29
REMARK                            x       y       z     vdW  Elec       q    Type
REMARK                         _______ _______ _______ _____ _____    ______ ____
ROOT
ATOM      1  C   UNL     1       1.856  -4.793  -0.063  0.00  0.00    +0.132 A 
ATOM      2  C   UNL     1       2.439  -5.561   0.907  0.00  0.00    +0.047 A 
ATOM      3  C   UNL     1       3.666  -6.170   0.620  0.00  0.00    +0.084 A 
ATOM      4  C   UNL     1       4.264  -5.976  -0.651  0.00  0.00    +0.150 A 
ATOM      5  N   UNL     1       5.438  -6.564  -0.912  0.00  0.00    -0.211 NA
ATOM      6  C   UNL     1       6.061  -7.322  -0.018  0.00  0.00    +0.145 A 
ATOM      7  C   UNL     1       7.298  -7.905  -0.373  0.00  0.00    -0.007 A 
ATOM      8  C   UNL     1       7.955  -8.686   0.525  0.00  0.00    +0.008 A 
ATOM      9  C   UNL     1       7.398  -8.904   1.796  0.00  0.00    +0.019 A 
ATOM     10  C   UNL     1       6.216  -8.340   2.122  0.00  0.00    +0.096 A 
ATOM     11  N   UNL     1       5.545  -7.553   1.230  0.00  0.00    -0.267 N 
ATOM     12  C   UNL     1       4.362  -7.007   1.595  0.00  0.00    +0.268 A 
ATOM     13  O   UNL     1       3.893  -7.206   2.701  0.00  0.00    -0.267 OA
ATOM     14  C   UNL     1       7.884  -7.665  -1.740  0.00  0.00    +0.047 C 
ATOM     15  N   UNL     1       3.651  -5.217  -1.560  0.00  0.00    -0.308 N 
ATOM     16  C   UNL     1       2.489  -4.642  -1.301  0.00  0.00    +0.124 A 
ENDROOT
BRANCH   1  17
ATOM     17  S   UNL     1       0.311  -4.003   0.242  0.00  0.00    +0.028 S 
ATOM     18  O   UNL     1      -0.053  -4.327   1.577  0.00  0.00    -0.164 OA
ATOM     19  O   UNL     1      -0.524  -4.301  -0.868  0.00  0.00    -0.164 OA
BRANCH  17  24
ATOM     20  C   UNL     1       1.290   1.949   0.117  0.00  0.00    +0.044 C 
ATOM     21  C   UNL     1       1.046   0.462   0.148  0.00  0.00    -0.050 A 
ATOM     22  C   UNL     1       0.601  -0.189  -0.987  0.00  0.00    +0.005 A 
ATOM     23  C   UNL     1       0.377  -1.553  -0.958  0.00  0.00    +0.027 A 
ATOM     24  C   UNL     1       0.598  -2.265   0.205  0.00  0.00    +0.094 A 
ATOM     25  C   UNL     1       1.044  -1.614   1.340  0.00  0.00    +0.027 A 
ATOM     26  C   UNL     1       1.272  -0.251   1.311  0.00  0.00    +0.005 A 
ENDBRANCH  17  24
ENDBRANCH   1  17
BRANCH  16  27
ATOM     27  N   UNL     1       1.887  -3.866  -2.277  0.00  0.00    -0.343 N 
ATOM     28  H   UNL     1       0.984  -3.537  -2.146  0.00  0.00    +0.144 HD
ATOM     29  H   UNL     1       2.368  -3.653  -3.092  0.00  0.00    +0.144 HD
ENDBRANCH  16  27
BRANCH  15  30
ATOM     30  C   UNL     1       4.274  -5.021  -2.871  0.00  0.00    +0.160 C 
BRANCH  30  31
ATOM     31  C   UNL     1       3.805  -6.098  -3.816  0.00  0.00    -0.025 A 
ATOM     32  C   UNL     1       4.494  -7.296  -3.925  0.00  0.00    +0.025 A 
ATOM     33  C   UNL     1       4.034  -8.260  -4.803  0.00  0.00    +0.111 A 
ATOM     34  N   UNL     1       2.954  -8.050  -5.529  0.00  0.00    -0.263 NA
ATOM     35  C   UNL     1       2.274  -6.923  -5.451  0.00  0.00    +0.111 A 
ATOM     36  C   UNL     1       2.670  -5.916  -4.592  0.00  0.00    +0.025 A 
ENDBRANCH  30  31
ENDBRANCH  15  30
TORSDOF 5
