REMARK  Name = ZINC36999355
REMARK  5 active torsions:
REMARK  status: ('A' for Active; 'I' for Inactive)
REMARK    1  A    between atoms: C_1  and  C_2
REMARK    2  A    between atoms: C_2  and  C_4
REMARK    3  A    between atoms: C_2  and  N_10
REMARK    4  A    between atoms: C_4  and  N_5
REMARK    5  A    between atoms: C_11  and  C_13
REMARK                            x       y       z     vdW  Elec       q    Type
REMARK                         _______ _______ _______ _____ _____    ______ ____
ROOT
ATOM      1  N   UNL     1       0.688  -0.476  -1.203  0.00  0.00    -0.312 N 
ATOM      2  C   UNL     1       2.031  -0.587  -1.215  0.00  0.00    +0.199 C 
ATOM      3  O   UNL     1       2.672  -0.295  -0.228  0.00  0.00    -0.278 OA
ATOM      4  H   UNL     1       0.175  -0.710  -1.993  0.00  0.00    +0.149 HD
ENDROOT
BRANCH   2   5
ATOM      5  C   UNL     1       2.736  -1.073  -2.455  0.00  0.00    +0.017 C 
ATOM      6  C   UNL     1       2.284  -2.508  -2.788  0.00  0.00    -0.005 C 
ATOM      7  C   UNL     1       3.580  -3.363  -2.711  0.00  0.00    -0.026 C 
ATOM      8  C   UNL     1       3.660  -3.910  -1.284  0.00  0.00    +0.002 C 
ATOM      9  C   UNL     1       5.064  -4.429  -0.980  0.00  0.00    +0.000 C 
ATOM     10  C   UNL     1       6.049  -3.260  -1.083  0.00  0.00    -0.002 C 
ATOM     11  C   UNL     1       6.047  -2.755  -2.525  0.00  0.00    -0.015 C 
ATOM     12  C   UNL     1       4.669  -2.305  -2.965  0.00  0.00    -0.068 C 
ATOM     13  N   UNL     1       4.200  -1.117  -2.219  0.00  0.00    +0.389 N 
ATOM     14  H   UNL     1       4.637  -0.281  -2.575  0.00  0.00    -0.084 HD
ATOM     15  H   UNL     1       4.393  -1.224  -1.234  0.00  0.00    -0.084 HD
ENDBRANCH   2   5
BRANCH   1  17
ATOM     16  C   UNL     1      -0.019   1.526   0.010  0.00  0.00    +0.029 C 
ATOM     17  C   UNL     1       0.002  -0.004   0.002  0.00  0.00    +0.089 C 
BRANCH  17  18
ATOM     18  C   UNL     1      -1.433  -0.534   0.013  0.00  0.00    +0.144 C 
BRANCH  18  19
ATOM     19  N   UNL     1      -1.414  -1.994   0.125  0.00  0.00    -0.337 N 
ATOM     20  C   UNL     1      -1.375  -2.888  -0.911  0.00  0.00    +0.104 A 
ATOM     21  C   UNL     1      -1.369  -4.119  -0.363  0.00  0.00    +0.101 A 
ATOM     22  N   UNL     1      -1.404  -3.980   0.970  0.00  0.00    -0.352 N 
ATOM     23  C   UNL     1      -1.426  -2.710   1.270  0.00  0.00    +0.173 A 
ATOM     24  H   UNL     1      -1.408  -4.708   1.611  0.00  0.00    +0.166 HD
ENDBRANCH  18  19
ENDBRANCH  17  18
ENDBRANCH   1  17
TORSDOF 4
