REMARK  Name = ZINC17097229
REMARK  6 active torsions:
REMARK  status: ('A' for Active; 'I' for Inactive)
REMARK    1  A    between atoms: C_1  and  C_2
REMARK    2  A    between atoms: C_2  and  O_3
REMARK    3  A    between atoms: O_3  and  C_4
REMARK    4  A    between atoms: C_4  and  C_6
REMARK    5  A    between atoms: C_8  and  C_28
REMARK    6  A    between atoms: N_18  and  C_21
REMARK                            x       y       z     vdW  Elec       q    Type
REMARK                         _______ _______ _______ _____ _____    ______ ____
ROOT
ATOM      1  C   UNL     1       1.457  -2.367  -2.546  0.00  0.00    +0.213 C 
ATOM      2  C   UNL     1       1.454  -3.901  -2.500  0.00  0.00    +0.161 C 
ATOM      3  N   UNL     1       2.393  -4.317  -1.445  0.00  0.00    -0.308 N 
ATOM      4  C   UNL     1       3.649  -3.779  -1.460  0.00  0.00    +0.175 C 
ATOM      5  N   UNL     1       3.860  -2.598  -2.018  0.00  0.00    -0.151 NA
ATOM      6  C   UNL     1       2.883  -1.881  -2.562  0.00  0.00    +0.255 C 
ATOM      7  O   UNL     1       3.143  -0.814  -3.084  0.00  0.00    -0.273 OA
ATOM      8  N   UNL     1       4.687  -4.460  -0.899  0.00  0.00    -0.302 N 
ATOM      9  C   UNL     1       4.470  -5.775  -0.280  0.00  0.00    +0.126 C 
ATOM     10  C   UNL     1       5.423  -6.786  -0.931  0.00  0.00    +0.124 C 
ATOM     11  N   UNL     1       6.779  -6.219  -0.934  0.00  0.00    -0.327 N 
ATOM     12  C   UNL     1       6.995  -4.904  -1.553  0.00  0.00    +0.124 C 
ATOM     13  C   UNL     1       6.044  -3.896  -0.907  0.00  0.00    +0.126 C 
ATOM     14  H   UNL     1       2.129  -4.952  -0.761  0.00  0.00    +0.149 HD
ENDROOT
BRANCH  11  15
ATOM     15  C   UNL     1       7.843  -6.918  -0.358  0.00  0.00    +0.030 A 
ATOM     16  C   UNL     1       7.608  -8.104   0.325  0.00  0.00    +0.024 A 
ATOM     17  C   UNL     1       8.662  -8.793   0.892  0.00  0.00    +0.022 A 
ATOM     18  C   UNL     1       9.951  -8.302   0.782  0.00  0.00    +0.041 A 
ATOM     19  C   UNL     1      10.188  -7.120   0.102  0.00  0.00    +0.022 A 
ATOM     20  C   UNL     1       9.139  -6.430  -0.472  0.00  0.00    +0.024 A 
ATOM     21 CL   UNL     1      11.273  -9.170   1.497  0.00  0.00    -0.084 Cl
ENDBRANCH  11  15
BRANCH   2  22
ATOM     22  C   UNL     1       1.899  -4.454  -3.830  0.00  0.00    +0.126 A 
ATOM     23  C   UNL     1       1.091  -4.921  -4.798  0.00  0.00    +0.046 A 
ATOM     24  C   UNL     1       1.924  -5.336  -5.862  0.00  0.00    +0.041 A 
ATOM     25  C   UNL     1       3.191  -5.097  -5.481  0.00  0.00    +0.195 A 
ATOM     26  O   UNL     1       3.170  -4.557  -4.251  0.00  0.00    -0.466 OA
ENDBRANCH   2  22
BRANCH   1  27
ATOM     27  C   UNL     1       0.753  -1.824  -1.329  0.00  0.00    +0.321 C 
ATOM     28  O   UNL     1       0.290  -2.583  -0.510  0.00  0.00    -0.250 OA
BRANCH  27  29
ATOM     29  O   UNL     1       0.639  -0.498  -1.155  0.00  0.00    -0.464 OA
BRANCH  29  31
ATOM     30  C   UNL     1      -0.070   1.476   0.045  0.00  0.00    +0.048 C 
ATOM     31  C   UNL     1      -0.041  -0.054   0.021  0.00  0.00    +0.229 C 
ENDBRANCH  29  31
ENDBRANCH  27  29
ENDBRANCH   1  27
TORSDOF 5
