REMARK  Name = ZINC01114994
REMARK  2 active torsions:
REMARK  status: ('A' for Active; 'I' for Inactive)
REMARK    1  A    between atoms: C_3  and  C_8
REMARK    2  A    between atoms: C_11  and  C_20
REMARK                            x       y       z     vdW  Elec       q    Type
REMARK                         _______ _______ _______ _____ _____    ______ ____
ROOT
ATOM      1  C   UNL     1       3.672   2.184  -0.021  0.00  0.00    +0.143 C 
ATOM      2  C   UNL     1       4.474   1.829  -1.279  0.00  0.00    +0.059 C 
ATOM      3  C   UNL     1       5.896   2.390  -1.161  0.00  0.00    +0.107 C 
ATOM      4  N   UNL     1       6.560   1.752  -0.008  0.00  0.00    -0.307 N 
ATOM      5  C   UNL     1       5.801   1.631   1.148  0.00  0.00    +0.216 A 
ATOM      6  N   UNL     1       4.460   1.832   1.160  0.00  0.00    -0.224 N 
ATOM      7  N   UNL     1       4.036   1.635   2.474  0.00  0.00    -0.132 NA
ATOM      8  C   UNL     1       5.105   1.333   3.176  0.00  0.00    +0.233 A 
ATOM      9  N   UNL     1       6.177   1.328   2.362  0.00  0.00    -0.180 NA
ATOM     10  N   UNL     1       5.125   1.057   4.544  0.00  0.00    -0.326 N 
ATOM     11  H   UNL     1       7.476   1.435  -0.056  0.00  0.00    +0.149 HD
ATOM     12  H   UNL     1       4.301   1.080   5.056  0.00  0.00    +0.145 HD
ATOM     13  H   UNL     1       5.963   0.842   4.984  0.00  0.00    +0.145 HD
ENDROOT
BRANCH   3  14
ATOM     14  C   UNL     1       6.664   2.090  -2.422  0.00  0.00    -0.009 A 
ATOM     15  C   UNL     1       7.465   0.965  -2.493  0.00  0.00    +0.008 A 
ATOM     16  C   UNL     1       8.170   0.688  -3.649  0.00  0.00    +0.020 A 
ATOM     17  C   UNL     1       8.075   1.538  -4.737  0.00  0.00    +0.042 A 
ATOM     18  C   UNL     1       7.274   2.663  -4.668  0.00  0.00    +0.040 A 
ATOM     19  C   UNL     1       6.564   2.937  -3.512  0.00  0.00    +0.047 A 
ATOM     20 CL   UNL     1       5.554   4.346  -3.426  0.00  0.00    -0.083 Cl
ATOM     21 CL   UNL     1       8.960   1.191  -6.189  0.00  0.00    -0.083 Cl
ENDBRANCH   3  14
BRANCH   1  24
ATOM     22  C   UNL     1      -0.017   1.378   0.010  0.00  0.00    +0.002 A 
ATOM     23  C   UNL     1       1.171   2.086   0.002  0.00  0.00    +0.006 A 
ATOM     24  C   UNL     1       2.378   1.412  -0.013  0.00  0.00    -0.022 A 
ATOM     25  C   UNL     1       2.398   0.029  -0.021  0.00  0.00    +0.025 A 
ATOM     26  C   UNL     1       1.210  -0.679  -0.013  0.00  0.00    +0.041 A 
ATOM     27  C   UNL     1       0.002  -0.004   0.002  0.00  0.00    +0.020 A 
ATOM     28 CL   UNL     1       1.234  -2.415  -0.024  0.00  0.00    -0.084 Cl
ENDBRANCH   1  24
TORSDOF 2
