REMARK  Name = ZINC12603008
REMARK  10 active torsions:
REMARK  status: ('A' for Active; 'I' for Inactive)
REMARK    1  A    between atoms: C_1  and  O_2
REMARK    2  A    between atoms: O_2  and  C_3
REMARK    3  A    between atoms: C_3  and  C_5
REMARK    4  A    between atoms: C_21  and  C_31
REMARK    5  A    between atoms: C_24  and  N_27
REMARK    6  A    between atoms: N_27  and  C_28
REMARK    7  A    between atoms: C_28  and  C_29
REMARK    8  A    between atoms: C_29  and  O_30
REMARK    9  A    between atoms: C_34  and  O_37
REMARK   10  A    between atoms: O_37  and  C_38
REMARK                            x       y       z     vdW  Elec       q    Type
REMARK                         _______ _______ _______ _____ _____    ______ ____
ROOT
ATOM      1  C   UNL     1      -1.661  -0.830   0.447  0.00  0.00    +0.172 C 
ATOM      2  C   UNL     1      -0.932  -1.062  -0.884  0.00  0.00    +0.068 C 
ATOM      3  C   UNL     1      -0.899  -2.546  -1.150  0.00  0.00    -0.016 A 
ATOM      4  C   UNL     1      -0.084  -3.290  -2.083  0.00  0.00    +0.003 A 
ATOM      5  C   UNL     1       0.897  -2.908  -3.004  0.00  0.00    +0.010 A 
ATOM      6  C   UNL     1       1.478  -3.908  -3.744  0.00  0.00    +0.001 A 
ATOM      7  C   UNL     1       1.119  -5.238  -3.594  0.00  0.00    +0.002 A 
ATOM      8  C   UNL     1       0.153  -5.645  -2.690  0.00  0.00    +0.026 A 
ATOM      9  C   UNL     1      -0.454  -4.651  -1.925  0.00  0.00    +0.047 A 
ATOM     10  N   UNL     1      -1.422  -4.701  -0.962  0.00  0.00    -0.356 N 
ATOM     11  H   UNL     1      -1.859  -5.509  -0.652  0.00  0.00    +0.166 HD
ATOM     12  C   UNL     1      -1.682  -3.439  -0.501  0.00  0.00    +0.038 A 
ATOM     13  C   UNL     1      -2.673  -3.038   0.562  0.00  0.00    +0.103 C 
ATOM     14  N   UNL     1      -2.914  -1.591   0.458  0.00  0.00    -0.274 NA
ATOM     15  C   UNL     1      -3.820  -1.133   1.518  0.00  0.00    +0.087 C 
ATOM     16  C   UNL     1      -5.177  -1.825   1.358  0.00  0.00    +0.008 C 
ATOM     17  C   UNL     1      -4.988  -3.342   1.433  0.00  0.00    -0.068 C 
ATOM     18  C   UNL     1      -3.989  -3.791   0.362  0.00  0.00    +0.009 C 
ENDROOT
BRANCH  15  19
ATOM     19  C   UNL     1      -3.235  -1.477   2.864  0.00  0.00    -0.030 A 
ATOM     20  C   UNL     1      -3.961  -1.233   4.015  0.00  0.00    +0.009 A 
ATOM     21  C   UNL     1      -3.426  -1.547   5.249  0.00  0.00    +0.046 A 
ATOM     22  C   UNL     1      -2.160  -2.108   5.333  0.00  0.00    +0.130 A 
ATOM     23  C   UNL     1      -1.434  -2.352   4.177  0.00  0.00    +0.046 A 
ATOM     24  C   UNL     1      -1.975  -2.041   2.944  0.00  0.00    +0.009 A 
BRANCH  22  25
ATOM     25  O   UNL     1      -1.632  -2.418   6.547  0.00  0.00    -0.406 OA
BRANCH  25  26
ATOM     26  C   UNL     1      -0.324  -2.993   6.557  0.00  0.00    +0.575 C 
ATOM     27  F   UNL     1       0.581  -2.102   5.969  0.00  0.00    -0.133 F 
ATOM     28  F   UNL     1       0.063  -3.247   7.878  0.00  0.00    -0.133 F 
ATOM     29  F   UNL     1      -0.335  -4.191   5.836  0.00  0.00    -0.133 F 
ENDBRANCH  25  26
ENDBRANCH  22  25
ENDBRANCH  15  19
BRANCH  17  30
ATOM     30  N   UNL     1      -4.473  -3.707   2.760  0.00  0.00    +0.382 N 
ATOM     31  H   UNL     1      -3.527  -3.369   2.857  0.00  0.00    -0.085 HD
ATOM     32  H   UNL     1      -5.053  -3.290   3.472  0.00  0.00    -0.085 HD
BRANCH  30  33
ATOM     33  C   UNL     1      -4.489  -5.168   2.907  0.00  0.00    -0.054 C 
BRANCH  33  34
ATOM     34  C   UNL     1      -3.865  -5.552   4.250  0.00  0.00    +0.137 C 
BRANCH  34  35
ATOM     35  O   UNL     1      -4.662  -5.028   5.313  0.00  0.00    -0.397 OA
ATOM     36  H   UNL     1      -4.286  -5.168   6.193  0.00  0.00    +0.209 HD
ENDBRANCH  34  35
ENDBRANCH  33  34
ENDBRANCH  30  33
ENDBRANCH  17  30
BRANCH   1  37
ATOM     37  C   UNL     1      -1.963   0.638   0.605  0.00  0.00    +0.325 C 
ATOM     38  O   UNL     1      -1.219   1.343   1.245  0.00  0.00    -0.249 OA
BRANCH  37  40
ATOM     39  C   UNL     1      -3.284   2.561   0.226  0.00  0.00    +0.280 C 
ATOM     40  O   UNL     1      -3.059   1.163   0.035  0.00  0.00    -0.467 OA
ENDBRANCH  37  40
ENDBRANCH   1  37
TORSDOF 9
