REMARK  Name = ZINC10000274
REMARK  13 active torsions:
REMARK  status: ('A' for Active; 'I' for Inactive)
REMARK    1  A    between atoms: C_1  and  C_2
REMARK    2  A    between atoms: C_2  and  C_3
REMARK    3  A    between atoms: C_3  and  C_4
REMARK    4  A    between atoms: C_4  and  O_5
REMARK    5  A    between atoms: O_5  and  C_6
REMARK    6  A    between atoms: C_9  and  C_13
REMARK    7  A    between atoms: N_14  and  N_15
REMARK    8  A    between atoms: C_16  and  C_18
REMARK    9  A    between atoms: C_18  and  C_20
REMARK   10  A    between atoms: C_18  and  N_23
REMARK   11  A    between atoms: C_20  and  C_21
REMARK   12  A    between atoms: C_20  and  C_22
REMARK   13  A    between atoms: C_24  and  C_26
REMARK                            x       y       z     vdW  Elec       q    Type
REMARK                         _______ _______ _______ _____ _____    ______ ____
ROOT
ATOM      1  N   UNL     1       4.707   1.456   0.846  0.00  0.00    -0.205 N 
ATOM      2  C   UNL     1       3.445   1.923   0.918  0.00  0.00    +0.253 C 
ATOM      3  O   UNL     1       3.224   2.995   1.441  0.00  0.00    -0.272 OA
ATOM      4  H   UNL     1       4.876   0.568   0.493  0.00  0.00    +0.177 HD
ENDROOT
BRANCH   1   6
ATOM      5  C   UNL     1       6.990   1.802   1.209  0.00  0.00    +0.138 C 
ATOM      6  N   UNL     1       5.775   2.252   1.279  0.00  0.00    -0.188 NA
BRANCH   5  10
ATOM      7  C   UNL     1      10.226   4.218   2.521  0.00  0.00    +0.134 A 
ATOM      8  C   UNL     1       8.926   4.701   2.596  0.00  0.00    +0.047 A 
ATOM      9  C   UNL     1       7.873   3.922   2.167  0.00  0.00    +0.013 A 
ATOM     10  C   UNL     1       8.114   2.640   1.665  0.00  0.00    -0.004 A 
ATOM     11  C   UNL     1       9.423   2.158   1.590  0.00  0.00    +0.028 A 
ATOM     12  C   UNL     1      10.471   2.946   2.018  0.00  0.00    +0.060 A 
ATOM     13 BR   UNL     1      12.244   2.295   1.918  0.00  0.00    -0.046 Br
BRANCH   7  14
ATOM     14  O   UNL     1      11.262   4.991   2.940  0.00  0.00    -0.491 OA
BRANCH  14  15
ATOM     15  C   UNL     1      10.939   6.288   3.447  0.00  0.00    +0.229 C 
BRANCH  15  16
ATOM     16  C   UNL     1      12.224   7.005   3.867  0.00  0.00    +0.041 C 
BRANCH  16  18
ATOM     17  C   UNL     1      13.163   9.111   4.829  0.00  0.00    +0.004 C 
ATOM     18  C   UNL     1      11.879   8.393   4.409  0.00  0.00    -0.000 C 
ENDBRANCH  16  18
ENDBRANCH  15  16
ENDBRANCH  14  15
ENDBRANCH   7  14
ENDBRANCH   5  10
ENDBRANCH   1   6
BRANCH   2  19
ATOM     19  C   UNL     1       2.308   1.113   0.350  0.00  0.00    +0.163 C 
BRANCH  19  20
ATOM     20  N   UNL     1       1.043   1.578   0.925  0.00  0.00    -0.300 N 
ATOM     21  C   UNL     1      -0.015   0.746   0.987  0.00  0.00    +0.246 C 
ATOM     22  O   UNL     1       0.080  -0.391   0.568  0.00  0.00    -0.270 OA
ATOM     23  H   UNL     1       0.967   2.485   1.260  0.00  0.00    +0.150 HD
BRANCH  21  24
ATOM     24  C   UNL     1      -1.293   1.217   1.561  0.00  0.00    +0.055 A 
ATOM     25  C   UNL     1      -1.405   2.520   2.049  0.00  0.00    +0.014 A 
ATOM     26  C   UNL     1      -2.602   2.955   2.578  0.00  0.00    +0.001 A 
ATOM     27  C   UNL     1      -3.688   2.100   2.636  0.00  0.00    +0.001 A 
ATOM     28  C   UNL     1      -3.585   0.806   2.160  0.00  0.00    +0.021 A 
ATOM     29  C   UNL     1      -2.393   0.358   1.622  0.00  0.00    +0.053 A 
ATOM     30 CL   UNL     1      -2.264  -1.267   1.025  0.00  0.00    -0.083 Cl
ENDBRANCH  21  24
ENDBRANCH  19  20
BRANCH  19  31
ATOM     31  C   UNL     1       2.271   1.282  -1.170  0.00  0.00    +0.012 C 
ATOM     32  C   UNL     1       1.191   0.372  -1.758  0.00  0.00    +0.009 C 
ATOM     33  C   UNL     1       1.952   2.739  -1.513  0.00  0.00    +0.009 C 
ENDBRANCH  19  31
ENDBRANCH   2  19
TORSDOF 10
