REMARK  Name = ZINC40822344
REMARK  9 active torsions:
REMARK  status: ('A' for Active; 'I' for Inactive)
REMARK    1  A    between atoms: C_1  and  C_2
REMARK    2  A    between atoms: N_17  and  C_18
REMARK    3  A    between atoms: C_27  and  C_42
REMARK    4  A    between atoms: C_30  and  O_41
REMARK    5  A    between atoms: C_33  and  C_40
REMARK    6  A    between atoms: C_34  and  C_35
REMARK    7  A    between atoms: C_34  and  O_39
REMARK    8  A    between atoms: C_35  and  C_37
REMARK    9  A    between atoms: C_37  and  O_38
REMARK                            x       y       z     vdW  Elec       q    Type
REMARK                         _______ _______ _______ _____ _____    ______ ____
ROOT
ATOM      1  C   UNL     1      -0.403   1.686  -0.306  0.00  0.00    +0.011 C 
ATOM      2  C   UNL     1      -0.393   0.164  -0.461  0.00  0.00    +0.026 C 
ATOM      3  C   UNL     1      -1.846  -0.386  -0.413  0.00  0.00    +0.011 C 
ATOM      4  C   UNL     1      -1.960  -0.921   1.019  0.00  0.00    +0.002 C 
ATOM      5  C   UNL     1      -3.046  -1.922   1.306  0.00  0.00    -0.001 C 
ATOM      6  C   UNL     1      -4.412  -1.458   0.847  0.00  0.00    +0.008 C 
ATOM      7  C   UNL     1      -5.272  -0.930   1.984  0.00  0.00    +0.031 C 
ATOM      8  C   UNL     1      -4.388  -0.273   3.018  0.00  0.00    -0.061 C 
ATOM      9  C   UNL     1      -4.577   1.016   3.296  0.00  0.00    +0.028 C 
ATOM     10  C   UNL     1      -3.713   1.636   4.311  0.00  0.00    +0.070 A 
ATOM     11  C   UNL     1      -2.559   0.987   4.738  0.00  0.00    -0.001 A 
ATOM     12  C   UNL     1      -1.970   1.770   5.709  0.00  0.00    +0.139 A 
ATOM     13  N   UNL     1      -2.691   2.860   5.861  0.00  0.00    -0.174 NA
ATOM     14  N   UNL     1      -3.780   2.811   4.972  0.00  0.00    -0.233 N 
ATOM     15  C   UNL     1      -2.124  -0.322   4.129  0.00  0.00    +0.050 C 
ATOM     16  C   UNL     1      -3.347  -1.124   3.700  0.00  0.00    -0.001 C 
ATOM     17  C   UNL     1      -2.971  -2.288   2.790  0.00  0.00    +0.031 C 
ATOM     18  C   UNL     1      -1.602  -2.869   3.120  0.00  0.00    +0.119 C 
ATOM     19  C   UNL     1      -0.415  -2.026   2.652  0.00  0.00    +0.041 C 
ATOM     20  C   UNL     1      -0.581  -1.590   1.220  0.00  0.00    +0.009 C 
ATOM     21  C   UNL     1       0.364  -0.485   0.727  0.00  0.00    +0.134 C 
ATOM     22  C   UNL     1      -0.399  -2.796   0.292  0.00  0.00    +0.015 C 
ATOM     23  C   UNL     1      -4.010  -1.696   4.969  0.00  0.00    +0.016 C 
ENDROOT
BRANCH  14  24
ATOM     24  C   UNL     1      -4.745   3.799   4.806  0.00  0.00    +0.079 C 
ATOM     25  C   UNL     1      -4.775   4.855   5.630  0.00  0.00    +0.028 C 
ATOM     26  C   UNL     1      -5.791   5.899   5.448  0.00  0.00    +0.017 C 
ATOM     27  C   UNL     1      -6.469   5.963   4.289  0.00  0.00    +0.069 C 
ATOM     28  N   UNL     1      -6.186   5.032   3.298  0.00  0.00    -0.329 N 
ATOM     29  C   UNL     1      -5.758   3.687   3.693  0.00  0.00    +0.212 C 
ATOM     30 CL   UNL     1      -7.187   2.751   4.270  0.00  0.00    -0.094 Cl
ATOM     31  H   UNL     1      -6.268   5.267   2.360  0.00  0.00    +0.147 HD
ENDBRANCH  14  24
BRANCH  21  32
ATOM     32  C   UNL     1       1.662  -1.086   0.259  0.00  0.00    +0.190 C 
ATOM     33  O   UNL     1       1.793  -1.417  -0.895  0.00  0.00    -0.292 OA
BRANCH  32  34
ATOM     34  C   UNL     1       2.799  -1.274   1.230  0.00  0.00    +0.233 C 
BRANCH  34  35
ATOM     35  O   UNL     1       3.913  -1.857   0.552  0.00  0.00    -0.387 OA
ATOM     36  H   UNL     1       4.683  -2.007   1.117  0.00  0.00    +0.210 HD
ENDBRANCH  34  35
ENDBRANCH  32  34
ENDBRANCH  21  32
BRANCH  21  37
ATOM     37  O   UNL     1       0.592   0.472   1.759  0.00  0.00    -0.380 OA
ATOM     38  H   UNL     1       1.138   1.222   1.486  0.00  0.00    +0.211 HD
ENDBRANCH  21  37
BRANCH  18  39
ATOM     39  O   UNL     1      -1.484  -3.130   4.522  0.00  0.00    -0.391 OA
ATOM     40  H   UNL     1      -0.629  -3.501   4.782  0.00  0.00    +0.210 HD
ENDBRANCH  18  39
TORSDOF 6
