REMARK  Name = ZINC40548877
REMARK  11 active torsions:
REMARK  status: ('A' for Active; 'I' for Inactive)
REMARK    1  A    between atoms: C_1  and  C_2
REMARK    2  A    between atoms: C_2  and  C_3
REMARK    3  A    between atoms: C_3  and  C_4
REMARK    4  A    between atoms: C_4  and  O_5
REMARK    5  A    between atoms: O_5  and  C_6
REMARK    6  A    between atoms: C_9  and  C_12
REMARK    7  A    between atoms: C_15  and  C_31
REMARK    8  A    between atoms: N_22  and  C_23
REMARK    9  A    between atoms: C_33  and  C_39
REMARK   10  A    between atoms: C_34  and  C_38
REMARK   11  A    between atoms: C_36  and  O_37
REMARK                            x       y       z     vdW  Elec       q    Type
REMARK                         _______ _______ _______ _____ _____    ______ ____
ROOT
ATOM      1  C   UNL     1       1.887  -8.250   2.921  0.00  0.00    +0.142 C 
ATOM      2  C   UNL     1       0.984  -8.639   4.059  0.00  0.00    +0.035 A 
ATOM      3  C   UNL     1      -0.318  -8.690   4.568  0.00  0.00    +0.102 A 
ATOM      4  N   UNL     1      -0.254  -9.239   5.765  0.00  0.00    -0.173 NA
ATOM      5  N   UNL     1       0.960  -9.540   6.063  0.00  0.00    -0.272 N 
ATOM      6  H   UNL     1       1.244  -9.954   6.893  0.00  0.00    +0.189 HD
ATOM      7  C   UNL     1       1.791  -9.191   5.036  0.00  0.00    +0.126 A 
ATOM      8  C   UNL     1       3.179  -9.168   4.562  0.00  0.00    +0.266 C 
ATOM      9  O   UNL     1       4.135  -9.582   5.191  0.00  0.00    -0.268 OA
ATOM     10  N   UNL     1       3.247  -8.623   3.332  0.00  0.00    -0.280 N 
ENDROOT
BRANCH   3  11
ATOM     11  C   UNL     1      -1.547  -8.213   3.885  0.00  0.00    +0.044 A 
ATOM     12  C   UNL     1      -1.781  -8.546   2.554  0.00  0.00    +0.017 A 
ATOM     13  C   UNL     1      -2.925  -8.100   1.923  0.00  0.00    -0.047 A 
ATOM     14  C   UNL     1      -3.841  -7.322   2.610  0.00  0.00    -0.044 A 
ATOM     15  C   UNL     1      -3.618  -6.986   3.931  0.00  0.00    +0.049 A 
ATOM     16  C   UNL     1      -2.477  -7.433   4.578  0.00  0.00    +0.126 A 
ATOM     17  C   UNL     1      -5.087  -6.840   1.913  0.00  0.00    +0.044 C 
ATOM     18  C   UNL     1      -3.177  -8.460   0.482  0.00  0.00    +0.044 C 
BRANCH  16  19
ATOM     19  O   UNL     1      -2.259  -7.108   5.879  0.00  0.00    -0.506 OA
ATOM     20  H   UNL     1      -1.839  -6.246   6.005  0.00  0.00    +0.292 HD
ENDBRANCH  16  19
ENDBRANCH   3  11
BRANCH  10  21
ATOM     21  C   UNL     1       4.465  -8.434   2.541  0.00  0.00    +0.100 C 
ATOM     22  C   UNL     1       5.444  -7.537   3.317  0.00  0.00    +0.047 C 
ATOM     23  C   UNL     1       6.829  -7.609   2.612  0.00  0.00    +0.168 C 
ATOM     24  S   UNL     1       6.909  -9.405   2.209  0.00  0.00    -0.029 S 
ATOM     25  O   UNL     1       7.570 -10.087   3.267  0.00  0.00    -0.174 OA
ATOM     26  O   UNL     1       7.378  -9.560   0.877  0.00  0.00    -0.174 OA
ATOM     27  C   UNL     1       5.117  -9.811   2.266  0.00  0.00    +0.188 C 
ENDBRANCH  10  21
BRANCH   1  31
ATOM     28  C   UNL     1       1.660  -4.037   2.240  0.00  0.00    +0.121 A 
ATOM     29  C   UNL     1       1.102  -4.920   1.326  0.00  0.00    +0.046 A 
ATOM     30  C   UNL     1       1.177  -6.281   1.549  0.00  0.00    +0.009 A 
ATOM     31  C   UNL     1       1.807  -6.764   2.681  0.00  0.00    -0.022 A 
ATOM     32  C   UNL     1       2.363  -5.887   3.593  0.00  0.00    +0.009 A 
ATOM     33  C   UNL     1       2.296  -4.525   3.372  0.00  0.00    +0.046 A 
BRANCH  28  34
ATOM     34  O   UNL     1       1.588  -2.698   2.023  0.00  0.00    -0.492 OA
BRANCH  34  35
ATOM     35  C   UNL     1       0.917  -2.268   0.837  0.00  0.00    +0.229 C 
BRANCH  35  36
ATOM     36  C   UNL     1       0.937  -0.739   0.765  0.00  0.00    +0.041 C 
BRANCH  36  38
ATOM     37  C   UNL     1       0.239   1.249  -0.577  0.00  0.00    +0.004 C 
ATOM     38  C   UNL     1       0.219  -0.279  -0.505  0.00  0.00    -0.000 C 
ENDBRANCH  36  38
ENDBRANCH  35  36
ENDBRANCH  34  35
ENDBRANCH  28  34
ENDBRANCH   1  31
TORSDOF 8
