REMARK  Name = ZINC36762427
REMARK  4 active torsions:
REMARK  status: ('A' for Active; 'I' for Inactive)
REMARK    1  A    between atoms: C_1  and  C_2
REMARK    2  A    between atoms: C_4  and  C_7
REMARK    3  A    between atoms: C_7  and  C_9
REMARK    4  A    between atoms: C_7  and  N_19
REMARK                            x       y       z     vdW  Elec       q    Type
REMARK                         _______ _______ _______ _____ _____    ______ ____
ROOT
ATOM      1  C   UNL     1      -1.588  -3.254  -0.008  0.00  0.00    +0.029 C 
ENDROOT
BRANCH   1   2
ATOM      2  C   UNL     1      -1.613  -3.869  -1.383  0.00  0.00    -0.049 A 
ATOM      3  C   UNL     1      -2.657  -3.589  -2.245  0.00  0.00    +0.052 A 
ATOM      4  C   UNL     1      -2.682  -4.153  -3.511  0.00  0.00    +0.168 A 
ATOM      5  C   UNL     1      -1.654  -5.002  -3.912  0.00  0.00    +0.184 A 
ATOM      6  C   UNL     1      -0.610  -5.279  -3.043  0.00  0.00    +0.087 A 
ATOM      7  C   UNL     1      -0.589  -4.708  -1.783  0.00  0.00    +0.026 A 
ATOM      8 CL   UNL     1       0.674  -6.337  -3.538  0.00  0.00    -0.080 Cl
ATOM      9  O   UNL     1      -1.907  -5.422  -5.186  0.00  0.00    -0.451 OA
ATOM     10  C   UNL     1      -3.302  -5.148  -5.411  0.00  0.00    +0.466 C 
ATOM     11  O   UNL     1      -3.579  -4.040  -4.534  0.00  0.00    -0.453 OA
ENDBRANCH   1   2
BRANCH   1  15
ATOM     12  C   UNL     1      -0.018   1.503   0.010  0.00  0.00    +0.112 C 
ATOM     13  C   UNL     1       0.002  -0.004   0.002  0.00  0.00    +0.224 A 
ATOM     14  N   UNL     1      -1.044  -0.783   0.003  0.00  0.00    -0.198 NA
ATOM     15  C   UNL     1      -0.663  -2.065  -0.006  0.00  0.00    +0.162 A 
ATOM     16  N   UNL     1       0.638  -2.118  -0.012  0.00  0.00    -0.063 NA
ATOM     17  O   UNL     1       1.097  -0.774  -0.013  0.00  0.00    -0.338 OA
ENDBRANCH   1  15
BRANCH   1  18
ATOM     18  N   UNL     1      -1.110  -4.247   0.964  0.00  0.00    +0.387 N 
ATOM     19  H   UNL     1      -1.730  -5.044   0.963  0.00  0.00    -0.089 HD
ATOM     20  H   UNL     1      -0.180  -4.545   0.711  0.00  0.00    -0.089 HD
ATOM     21  H   UNL     1      -1.094  -3.836   1.885  0.00  0.00    -0.089 HD
ENDBRANCH   1  18
TORSDOF 3
