REMARK  Name = ZINC01208854
REMARK  6 active torsions:
REMARK  status: ('A' for Active; 'I' for Inactive)
REMARK    1  A    between atoms: C_1  and  C_2
REMARK    2  A    between atoms: C_2  and  O_3
REMARK    3  A    between atoms: O_3  and  C_4
REMARK    4  A    between atoms: C_7  and  S_10
REMARK    5  A    between atoms: S_10  and  N_13
REMARK    6  A    between atoms: N_13  and  C_14
REMARK                            x       y       z     vdW  Elec       q    Type
REMARK                         _______ _______ _______ _____ _____    ______ ____
ROOT
ATOM      1  C   UNL     1      -1.273   3.933   0.058  0.00  0.00    +0.050 A 
ATOM      2  C   UNL     1      -0.081   4.634   0.123  0.00  0.00    +0.037 A 
ATOM      3  C   UNL     1       1.127   3.944   0.132  0.00  0.00    +0.034 A 
ATOM      4  C   UNL     1       2.538   4.328   0.192  0.00  0.00    +0.066 A 
ATOM      5  C   UNL     1       3.264   3.164   0.166  0.00  0.00    +0.117 A 
ATOM      6  O   UNL     1       2.426   2.131   0.098  0.00  0.00    -0.458 OA
ATOM      7  C   UNL     1       1.136   2.539   0.074  0.00  0.00    +0.150 A 
ATOM      8  C   UNL     1      -0.069   1.851   0.009  0.00  0.00    +0.062 A 
ATOM      9  C   UNL     1      -1.262   2.542  -0.004  0.00  0.00    +0.043 A 
ATOM     10 BR   UNL     1      -0.073  -0.038  -0.070  0.00  0.00    -0.046 Br
ATOM     11  C   UNL     1       4.773   3.144   0.210  0.00  0.00    +0.075 C 
ATOM     12  C   UNL     1       5.311   4.509  -0.229  0.00  0.00    +0.016 C 
ATOM     13  C   UNL     1       4.660   5.632   0.585  0.00  0.00    +0.080 C 
ATOM     14  C   UNL     1       3.172   5.646   0.270  0.00  0.00    +0.167 C 
ATOM     15  O   UNL     1       2.554   6.676   0.096  0.00  0.00    -0.292 OA
ENDROOT
BRANCH   1  16
ATOM     16  N   UNL     1      -2.490   4.623   0.049  0.00  0.00    -0.216 N 
ATOM     17  H   UNL     1      -2.644   5.343   0.681  0.00  0.00    +0.174 HD
BRANCH  16  18
ATOM     18  S   UNL     1      -3.667   4.212  -1.041  0.00  0.00    +0.072 S 
ATOM     19  O   UNL     1      -3.866   2.811  -0.914  0.00  0.00    -0.150 OA
ATOM     20  O   UNL     1      -4.722   5.149  -0.872  0.00  0.00    -0.150 OA
BRANCH  18  24
ATOM     21  C   UNL     1      -1.964   4.911  -5.178  0.00  0.00    +0.121 A 
ATOM     22  C   UNL     1      -1.907   3.647  -4.608  0.00  0.00    +0.047 A 
ATOM     23  C   UNL     1      -2.428   3.437  -3.345  0.00  0.00    +0.032 A 
ATOM     24  C   UNL     1      -3.005   4.484  -2.651  0.00  0.00    +0.109 A 
ATOM     25  C   UNL     1      -3.068   5.743  -3.219  0.00  0.00    +0.032 A 
ATOM     26  C   UNL     1      -2.544   5.960  -4.479  0.00  0.00    +0.047 A 
BRANCH  21  27
ATOM     27  O   UNL     1      -1.453   5.120  -6.420  0.00  0.00    -0.492 OA
BRANCH  27  29
ATOM     28  C   UNL     1      -0.923   6.487  -8.341  0.00  0.00    +0.048 C 
ATOM     29  C   UNL     1      -1.547   6.446  -6.944  0.00  0.00    +0.225 C 
ENDBRANCH  27  29
ENDBRANCH  21  27
ENDBRANCH  18  24
ENDBRANCH  16  18
ENDBRANCH   1  16
TORSDOF 5
