REMARK  Name = ZINC40729266
REMARK  4 active torsions:
REMARK  status: ('A' for Active; 'I' for Inactive)
REMARK    1  A    between atoms: C_4  and  C_7
REMARK    2  A    between atoms: C_7  and  C_8
REMARK    3  A    between atoms: C_15  and  N_30
REMARK    4  A    between atoms: C_16  and  N_20
REMARK                            x       y       z     vdW  Elec       q    Type
REMARK                         _______ _______ _______ _____ _____    ______ ____
ROOT
ATOM      1  C   UNL     1       3.349  -0.500   2.659  0.00  0.00    -0.004 C 
ATOM      2  C   UNL     1       3.710  -0.616   4.142  0.00  0.00    +0.023 C 
ATOM      3  C   UNL     1       5.070  -1.307   4.280  0.00  0.00    +0.107 C 
ATOM      4  N   UNL     1       5.023  -2.591   3.568  0.00  0.00    -0.314 N 
ATOM      5  C   UNL     1       4.600  -2.604   2.161  0.00  0.00    +0.107 C 
ATOM      6  C   UNL     1       3.245  -1.899   2.047  0.00  0.00    +0.023 C 
ATOM      7  C   UNL     1       5.372  -3.772   4.213  0.00  0.00    +0.147 A 
ATOM      8  C   UNL     1       6.680  -4.255   4.148  0.00  0.00    +0.104 A 
ATOM      9  C   UNL     1       6.977  -5.446   4.814  0.00  0.00    +0.129 A 
ATOM     10  N   UNL     1       6.008  -6.070   5.481  0.00  0.00    -0.332 N 
ATOM     11  C   UNL     1       4.786  -5.579   5.517  0.00  0.00    +0.200 A 
ATOM     12  N   UNL     1       4.465  -4.456   4.907  0.00  0.00    -0.221 NA
ATOM     13  H   UNL     1       6.205  -6.898   5.947  0.00  0.00    +0.168 HD
ENDROOT
BRANCH   9  14
ATOM     14  N   UNL     1       8.264  -5.971   4.782  0.00  0.00    -0.285 N 
ATOM     15  C   UNL     1       9.228  -5.652   5.843  0.00  0.00    +0.113 C 
ATOM     16  C   UNL     1      10.569  -5.325   5.175  0.00  0.00    +0.024 C 
ATOM     17  C   UNL     1      11.073  -6.569   4.443  0.00  0.00    +0.038 C 
ATOM     18  C   UNL     1      10.000  -7.120   3.542  0.00  0.00    -0.026 A 
ATOM     19  C   UNL     1       8.660  -6.818   3.740  0.00  0.00    +0.038 A 
ATOM     20  C   UNL     1       7.693  -7.352   2.895  0.00  0.00    +0.024 A 
ATOM     21  C   UNL     1       8.063  -8.186   1.860  0.00  0.00    +0.002 A 
ATOM     22  C   UNL     1       9.398  -8.490   1.664  0.00  0.00    +0.000 A 
ATOM     23  C   UNL     1      10.365  -7.953   2.497  0.00  0.00    +0.005 A 
ENDBRANCH   9  14
BRANCH   8  24
ATOM     24  N   UNL     1       7.670  -3.564   3.432  0.00  0.00    -0.353 N 
ATOM     25  H   UNL     1       7.474  -2.694   3.049  0.00  0.00    +0.143 HD
ATOM     26  H   UNL     1       8.551  -3.955   3.321  0.00  0.00    +0.143 HD
ENDBRANCH   8  24
BRANCH   1  27
ATOM     27  C   UNL     1       2.007   0.220   2.516  0.00  0.00    +0.038 C 
BRANCH  27  31
ATOM     28  C   UNL     1       2.391   4.240   3.907  0.00  0.00    +0.000 A 
ATOM     29  C   UNL     1       2.636   3.942   2.580  0.00  0.00    +0.000 A 
ATOM     30  C   UNL     1       2.512   2.641   2.130  0.00  0.00    +0.003 A 
ATOM     31  C   UNL     1       2.143   1.638   3.007  0.00  0.00    -0.047 A 
ATOM     32  C   UNL     1       1.899   1.937   4.335  0.00  0.00    +0.003 A 
ATOM     33  C   UNL     1       2.021   3.238   4.784  0.00  0.00    +0.000 A 
ENDBRANCH  27  31
ENDBRANCH   1  27
TORSDOF 4
