REMARK  Name = ZINC12661418
REMARK  7 active torsions:
REMARK  status: ('A' for Active; 'I' for Inactive)
REMARK    1  A    between atoms: C_1  and  C_2
REMARK    2  A    between atoms: C_5  and  C_8
REMARK    3  A    between atoms: N_10  and  C_11
REMARK    4  A    between atoms: C_11  and  C_13
REMARK    5  A    between atoms: C_11  and  O_17
REMARK    6  A    between atoms: O_17  and  C_18
REMARK    7  A    between atoms: C_18  and  C_19
REMARK                            x       y       z     vdW  Elec       q    Type
REMARK                         _______ _______ _______ _____ _____    ______ ____
ROOT
ATOM      1  C   UNL     1      -4.958   3.905   0.068  0.00  0.00    +0.257 C 
ENDROOT
BRANCH   1   4
ATOM      2  C   UNL     1      -2.522   3.870   0.045  0.00  0.00    +0.246 C 
ATOM      3  O   UNL     1      -2.534   5.085   0.052  0.00  0.00    -0.270 OA
ATOM      4  N   UNL     1      -3.683   3.185   0.052  0.00  0.00    -0.283 N 
ATOM      5  H   UNL     1      -3.673   2.215   0.047  0.00  0.00    +0.152 HD
BRANCH   2  10
ATOM      6  C   UNL     1       2.489   1.042  -0.016  0.00  0.00    +0.044 C 
ATOM      7  C   UNL     1       1.177   1.782   0.000  0.00  0.00    -0.050 A 
ATOM      8  C   UNL     1      -0.013   1.076   0.008  0.00  0.00    +0.004 A 
ATOM      9  C   UNL     1      -1.217   1.748   0.017  0.00  0.00    +0.013 A 
ATOM     10  C   UNL     1      -1.234   3.143   0.029  0.00  0.00    +0.037 A 
ATOM     11  C   UNL     1      -0.031   3.850   0.022  0.00  0.00    +0.013 A 
ATOM     12  C   UNL     1       1.167   3.166   0.008  0.00  0.00    +0.004 A 
ENDBRANCH   2  10
ENDBRANCH   1   4
BRANCH   1  13
ATOM     13  C   UNL     1      -5.937   3.188   1.000  0.00  0.00    +0.233 C 
ATOM     14 CL   UNL     1      -6.204   1.505   0.412  0.00  0.00    -0.079 Cl
ATOM     15 CL   UNL     1      -5.253   3.141   2.668  0.00  0.00    -0.079 Cl
ATOM     16 CL   UNL     1      -7.507   4.074   1.019  0.00  0.00    -0.079 Cl
ENDBRANCH   1  13
BRANCH   1  17
ATOM     17  O   UNL     1      -5.500   3.942  -1.254  0.00  0.00    -0.354 OA
BRANCH  17  18
ATOM     18  C   UNL     1      -4.776   4.782  -2.155  0.00  0.00    +0.164 C 
BRANCH  18  19
ATOM     19  C   UNL     1      -5.442   4.746  -3.533  0.00  0.00    +0.001 C 
ATOM     20  C   UNL     1      -5.339   3.334  -4.110  0.00  0.00    +0.002 C 
ATOM     21  C   UNL     1      -3.858   2.982  -4.285  0.00  0.00    -0.018 C 
ATOM     22  C   UNL     1      -3.213   4.009  -5.215  0.00  0.00    -0.078 C 
ATOM     23  C   UNL     1      -4.741   5.741  -4.463  0.00  0.00    -0.063 C 
ATOM     24  C   UNL     1      -4.830   7.132  -3.826  0.00  0.00    -0.015 C 
ATOM     25  C   UNL     1      -4.102   8.152  -4.703  0.00  0.00    -0.003 C 
ATOM     26  C   UNL     1      -2.644   7.708  -4.866  0.00  0.00    -0.019 C 
ATOM     27  C   UNL     1      -2.620   6.317  -5.499  0.00  0.00    -0.078 C 
ATOM     28  N   UNL     1      -3.317   5.354  -4.625  0.00  0.00    +0.382 N 
ATOM     29  H   UNL     1      -2.867   5.352  -3.702  0.00  0.00    -0.081 HD
ENDBRANCH  18  19
ENDBRANCH  17  18
ENDBRANCH   1  17
TORSDOF 6
