REMARK  Name = ZINC46761441
REMARK  9 active torsions:
REMARK  status: ('A' for Active; 'I' for Inactive)
REMARK    1  A    between atoms: C_1  and  C_2
REMARK    2  A    between atoms: C_2  and  C_3
REMARK    3  A    between atoms: C_3  and  C_24
REMARK    4  A    between atoms: N_6  and  C_10
REMARK    5  A    between atoms: C_10  and  C_11
REMARK    6  A    between atoms: N_13  and  C_14
REMARK    7  A    between atoms: C_19  and  N_20
REMARK    8  A    between atoms: N_20  and  C_21
REMARK    9  A    between atoms: N_20  and  C_22
REMARK                            x       y       z     vdW  Elec       q    Type
REMARK                         _______ _______ _______ _____ _____    ______ ____
ROOT
ATOM      1  C   UNL     1       0.723  -0.521   1.245  0.00  0.00    +0.138 C 
ATOM      2  C   UNL     1       0.039  -0.046   2.511  0.00  0.00    +0.251 C 
ATOM      3  O   UNL     1      -1.088  -0.303   2.875  0.00  0.00    -0.272 OA
ATOM      4  N   UNL     1       0.945   0.721   3.149  0.00  0.00    -0.215 N 
ATOM      5  C   UNL     1       2.095   0.796   2.469  0.00  0.00    +0.310 C 
ATOM      6  O   UNL     1       3.062   1.430   2.843  0.00  0.00    -0.252 OA
ATOM      7  N   UNL     1       2.061   0.091   1.323  0.00  0.00    -0.281 N 
ATOM      8  H   UNL     1       2.777   0.003   0.676  0.00  0.00    +0.152 HD
ENDROOT
BRANCH   1   9
ATOM      9  C   UNL     1       0.828  -2.025   1.227  0.00  0.00    -0.015 A 
ATOM     10  C   UNL     1      -0.154  -2.779   0.612  0.00  0.00    +0.006 A 
ATOM     11  C   UNL     1      -0.057  -4.158   0.596  0.00  0.00    +0.000 A 
ATOM     12  C   UNL     1       1.021  -4.782   1.194  0.00  0.00    +0.000 A 
ATOM     13  C   UNL     1       2.003  -4.028   1.808  0.00  0.00    +0.000 A 
ATOM     14  C   UNL     1       1.909  -2.649   1.821  0.00  0.00    +0.006 A 
ENDBRANCH   1   9
BRANCH   1  16
ATOM     15  C   UNL     1      -0.057   1.509   0.014  0.00  0.00    +0.007 C 
ATOM     16  C   UNL     1      -0.026  -0.021   0.008  0.00  0.00    +0.037 C 
ENDBRANCH   1  16
BRANCH   4  17
ATOM     17  C   UNL     1       0.701   1.391   4.429  0.00  0.00    +0.214 C 
BRANCH  17  18
ATOM     18  C   UNL     1       1.100   0.477   5.558  0.00  0.00    +0.235 C 
ATOM     19  O   UNL     1       1.544  -0.626   5.318  0.00  0.00    -0.274 OA
ATOM     20  N   UNL     1       0.963   0.885   6.836  0.00  0.00    -0.283 N 
ATOM     21  H   UNL     1       0.684   1.794   7.027  0.00  0.00    +0.155 HD
BRANCH  20  22
ATOM     22  C   UNL     1       1.224  -0.005   7.887  0.00  0.00    +0.056 A 
ATOM     23  C   UNL     1       1.116  -1.373   7.684  0.00  0.00    +0.025 A 
ATOM     24  C   UNL     1       1.374  -2.248   8.721  0.00  0.00    +0.003 A 
ATOM     25  C   UNL     1       1.739  -1.766   9.965  0.00  0.00    +0.022 A 
ATOM     26  C   UNL     1       1.849  -0.404  10.177  0.00  0.00    +0.064 A 
ATOM     27  C   UNL     1       1.598   0.483   9.139  0.00  0.00    +0.069 A 
ATOM     28 CL   UNL     1       2.307   0.198  11.740  0.00  0.00    -0.082 Cl
BRANCH  27  29
ATOM     29  N   UNL     1       1.713   1.862   9.349  0.00  0.00    -0.333 N 
ATOM     30  C   UNL     1       0.553   2.633   9.804  0.00  0.00    +0.129 C 
ATOM     31  C   UNL     1       2.993   2.534   9.114  0.00  0.00    +0.129 C 
ENDBRANCH  27  29
ENDBRANCH  20  22
ENDBRANCH  17  18
ENDBRANCH   4  17
TORSDOF 6
