REMARK  Name = ZINC35292746
REMARK  13 active torsions:
REMARK  status: ('A' for Active; 'I' for Inactive)
REMARK    1  A    between atoms: C_1  and  C_2
REMARK    2  A    between atoms: C_2  and  O_3
REMARK    3  A    between atoms: O_3  and  C_4
REMARK    4  A    between atoms: C_4  and  C_6
REMARK    5  A    between atoms: C_7  and  C_36
REMARK    6  A    between atoms: N_8  and  C_21
REMARK    7  A    between atoms: C_12  and  C_14
REMARK    8  A    between atoms: C_21  and  C_22
REMARK    9  A    between atoms: N_24  and  C_25
REMARK   10  A    between atoms: C_25  and  C_26
REMARK   11  A    between atoms: C_26  and  C_27
REMARK   12  A    between atoms: C_27  and  N_28
REMARK   13  A    between atoms: C_33  and  C_35
REMARK                            x       y       z     vdW  Elec       q    Type
REMARK                         _______ _______ _______ _____ _____    ______ ____
ROOT
ATOM      1  C   UNL     1       3.374  -2.616  -4.025  0.00  0.00    +0.061 C 
ATOM      2  C   UNL     1       2.645  -3.699  -4.345  0.00  0.00    +0.021 C 
ATOM      3  N   UNL     1       1.600  -4.108  -3.560  0.00  0.00    -0.266 N 
ATOM      4  C   UNL     1       1.088  -3.302  -2.614  0.00  0.00    +0.221 C 
ATOM      5  O   UNL     1       0.223  -3.716  -1.871  0.00  0.00    -0.275 OA
ATOM      6  C   UNL     1       1.584  -1.886  -2.473  0.00  0.00    +0.109 C 
ATOM      7  C   UNL     1       3.089  -1.847  -2.761  0.00  0.00    +0.068 C 
ATOM      8  C   UNL     1       2.984  -4.478  -5.590  0.00  0.00    +0.061 C 
ENDROOT
BRANCH   7   9
ATOM      9  C   UNL     1       3.842  -2.469  -1.614  0.00  0.00    -0.021 A 
ATOM     10  C   UNL     1       3.695  -3.816  -1.340  0.00  0.00    +0.005 A 
ATOM     11  C   UNL     1       4.386  -4.387  -0.288  0.00  0.00    +0.000 A 
ATOM     12  C   UNL     1       5.224  -3.612   0.491  0.00  0.00    +0.001 A 
ATOM     13  C   UNL     1       5.372  -2.265   0.219  0.00  0.00    +0.020 A 
ATOM     14  C   UNL     1       4.685  -1.694  -0.838  0.00  0.00    +0.045 A 
ATOM     15 CL   UNL     1       4.876  -0.004  -1.186  0.00  0.00    -0.083 Cl
ENDBRANCH   7   9
BRANCH   1  16
ATOM     16  C   UNL     1       4.421  -2.199  -4.880  0.00  0.00    +0.337 C 
ATOM     17  O   UNL     1       4.250  -1.265  -5.641  0.00  0.00    -0.245 OA
BRANCH  16  18
ATOM     18  O   UNL     1       5.611  -2.836  -4.852  0.00  0.00    -0.462 OA
BRANCH  18  20
ATOM     19  C   UNL     1       7.890  -3.200  -5.567  0.00  0.00    +0.048 C 
ATOM     20  C   UNL     1       6.623  -2.361  -5.742  0.00  0.00    +0.229 C 
ENDBRANCH  18  20
ENDBRANCH  16  18
ENDBRANCH   1  16
BRANCH   3  21
ATOM     21  C   UNL     1       1.032  -5.444  -3.755  0.00  0.00    +0.209 C 
BRANCH  21  22
ATOM     22  C   UNL     1      -0.152  -5.356  -4.683  0.00  0.00    +0.231 C 
ATOM     23  O   UNL     1      -0.455  -4.292  -5.180  0.00  0.00    -0.274 OA
ATOM     24  N   UNL     1      -0.875  -6.459  -4.960  0.00  0.00    -0.314 N 
ATOM     25  H   UNL     1      -0.633  -7.310  -4.562  0.00  0.00    +0.149 HD
BRANCH  24  26
ATOM     26  C   UNL     1      -2.027  -6.373  -5.862  0.00  0.00    +0.102 C 
BRANCH  26  27
ATOM     27  C   UNL     1      -2.667  -7.755  -6.005  0.00  0.00    +0.000 C 
BRANCH  27  28
ATOM     28  C   UNL     1      -3.869  -7.666  -6.947  0.00  0.00    -0.077 C 
BRANCH  28  29
ATOM     29  N   UNL     1      -4.483  -8.993  -7.085  0.00  0.00    +0.381 N 
ATOM     30  C   UNL     1      -5.026  -9.416  -5.788  0.00  0.00    -0.078 C 
ATOM     31  C   UNL     1      -5.595 -10.832  -5.907  0.00  0.00    -0.019 C 
ATOM     32  C   UNL     1      -6.710 -10.842  -6.957  0.00  0.00    -0.003 C 
ATOM     33  C   UNL     1      -6.150 -10.328  -8.286  0.00  0.00    -0.016 C 
ATOM     34  C   UNL     1      -5.561  -8.931  -8.080  0.00  0.00    -0.072 C 
ATOM     35  C   UNL     1      -5.001  -8.413  -9.406  0.00  0.00    -0.013 C 
ATOM     36  H   UNL     1      -3.785  -9.656  -7.388  0.00  0.00    -0.081 HD
ENDBRANCH  28  29
ENDBRANCH  27  28
ENDBRANCH  26  27
ENDBRANCH  24  26
ENDBRANCH  21  22
ENDBRANCH   3  21
TORSDOF 10
