REMARK  Name = ZINC45124647
REMARK  10 active torsions:
REMARK  status: ('A' for Active; 'I' for Inactive)
REMARK    1  A    between atoms: C_1  and  C_2
REMARK    2  A    between atoms: C_5  and  C_8
REMARK    3  A    between atoms: C_8  and  C_10
REMARK    4  A    between atoms: C_8  and  N_11
REMARK    5  A    between atoms: N_11  and  C_12
REMARK    6  A    between atoms: N_15  and  C_16
REMARK    7  A    between atoms: C_16  and  C_18
REMARK    8  A    between atoms: C_16  and  C_19
REMARK    9  A    between atoms: C_23  and  S_25
REMARK   10  A    between atoms: S_25  and  N_28
REMARK                            x       y       z     vdW  Elec       q    Type
REMARK                         _______ _______ _______ _____ _____    ______ ____
ROOT
ATOM      1  N   UNL     1       1.048  -4.756   0.947  0.00  0.00    -0.282 N 
ATOM      2  C   UNL     1       0.854  -4.505   2.377  0.00  0.00    +0.134 C 
ATOM      3  C   UNL     1       2.132  -5.435   0.523  0.00  0.00    +0.303 C 
ATOM      4  O   UNL     1       2.293  -5.644  -0.664  0.00  0.00    -0.253 OA
ATOM      5  N   UNL     1       3.038  -5.883   1.415  0.00  0.00    -0.293 N 
ATOM      6  H   UNL     1       2.910  -5.717   2.361  0.00  0.00    +0.151 HD
ENDROOT
BRANCH   1   7
ATOM      7  C   UNL     1       0.063  -4.269  -0.022  0.00  0.00    +0.104 C 
ATOM      8  C   UNL     1      -1.325  -4.791   0.355  0.00  0.00    +0.033 C 
BRANCH   7  13
ATOM      9  C   UNL     1       0.025   1.509   0.006  0.00  0.00    +0.044 C 
ATOM     10  C   UNL     1       0.035   0.002  -0.001  0.00  0.00    -0.050 A 
ATOM     11  C   UNL     1       1.198  -0.683   0.296  0.00  0.00    +0.004 A 
ATOM     12  C   UNL     1       1.207  -2.065   0.290  0.00  0.00    +0.006 A 
ATOM     13  C   UNL     1       0.053  -2.762  -0.014  0.00  0.00    -0.027 A 
ATOM     14  C   UNL     1      -1.111  -2.078  -0.311  0.00  0.00    +0.006 A 
ATOM     15  C   UNL     1      -1.121  -0.695  -0.300  0.00  0.00    +0.004 A 
ENDBRANCH   7  13
ENDBRANCH   1   7
BRANCH   5  16
ATOM     16  C   UNL     1       4.217  -6.621   0.953  0.00  0.00    +0.102 C 
ATOM     17  C   UNL     1       5.314  -5.632   0.556  0.00  0.00    +0.033 C 
BRANCH  16  18
ATOM     18  C   UNL     1       4.719  -7.510   2.062  0.00  0.00    -0.026 A 
ATOM     19  C   UNL     1       4.723  -7.051   3.367  0.00  0.00    +0.005 A 
ATOM     20  C   UNL     1       5.183  -7.866   4.384  0.00  0.00    +0.002 A 
ATOM     21  C   UNL     1       5.639  -9.140   4.097  0.00  0.00    +0.028 A 
ATOM     22  C   UNL     1       5.634  -9.598   2.793  0.00  0.00    +0.105 A 
ATOM     23  C   UNL     1       5.169  -8.784   1.776  0.00  0.00    +0.034 A 
BRANCH  22  24
ATOM     24  S   UNL     1       6.215 -11.220   2.427  0.00  0.00    +0.056 S 
ATOM     25  O   UNL     1       6.615 -11.211   1.064  0.00  0.00    -0.153 OA
ATOM     26  O   UNL     1       7.101 -11.581   3.478  0.00  0.00    -0.153 OA
BRANCH  24  27
ATOM     27  N   UNL     1       4.915 -12.241   2.531  0.00  0.00    -0.204 NA
ATOM     28  H   UNL     1       4.881 -13.040   1.983  0.00  0.00    +0.144 HD
ATOM     29  H   UNL     1       4.189 -12.040   3.142  0.00  0.00    +0.144 HD
ENDBRANCH  24  27
ENDBRANCH  22  24
ENDBRANCH  16  18
ENDBRANCH   5  16
TORSDOF 6
