REMARK  Name = ZINC49122178
REMARK  5 active torsions:
REMARK  status: ('A' for Active; 'I' for Inactive)
REMARK    1  A    between atoms: C_1  and  C_2
REMARK    2  A    between atoms: C_2  and  C_3
REMARK    3  A    between atoms: C_9  and  N_11
REMARK    4  A    between atoms: C_12  and  C_16
REMARK    5  A    between atoms: C_20  and  N_22
REMARK                            x       y       z     vdW  Elec       q    Type
REMARK                         _______ _______ _______ _____ _____    ______ ____
ROOT
ATOM      1  N   UNL     1      -0.821  -2.280   1.275  0.00  0.00    -0.222 N 
ATOM      2  C   UNL     1      -1.450  -3.149   0.446  0.00  0.00    +0.182 A 
ATOM      3  N   UNL     1      -2.604  -3.450   1.004  0.00  0.00    -0.108 NA
ATOM      4  N   UNL     1      -2.737  -2.830   2.121  0.00  0.00    -0.023 NA
ATOM      5  N   UNL     1      -1.698  -2.106   2.360  0.00  0.00    -0.043 NA
ENDROOT
BRANCH   2   6
ATOM      6  C   UNL     1      -0.937  -3.663  -0.844  0.00  0.00    +0.022 A 
ATOM      7  C   UNL     1       0.435  -3.821  -1.038  0.00  0.00    +0.013 A 
ATOM      8  C   UNL     1       0.912  -4.300  -2.242  0.00  0.00    +0.018 A 
ATOM      9  C   UNL     1       0.033  -4.625  -3.258  0.00  0.00    +0.039 A 
ATOM     10  C   UNL     1      -1.337  -4.471  -3.074  0.00  0.00    +0.039 A 
ATOM     11  C   UNL     1      -1.825  -3.995  -1.867  0.00  0.00    +0.035 A 
ATOM     12 BR   UNL     1       0.695  -5.280  -4.904  0.00  0.00    -0.048 Br
BRANCH  10  13
ATOM     13  N   UNL     1      -2.222  -4.801  -4.104  0.00  0.00    -0.357 N 
ATOM     14  H   UNL     1      -1.881  -5.137  -4.948  0.00  0.00    +0.142 HD
ATOM     15  H   UNL     1      -3.178  -4.693  -3.975  0.00  0.00    +0.142 HD
ENDBRANCH  10  13
ENDBRANCH   2   6
BRANCH   1  21
ATOM     16  C   UNL     1       0.375  -0.147   1.266  0.00  0.00    +0.013 C 
ATOM     17  C   UNL     1       1.747   0.499   1.067  0.00  0.00    +0.005 C 
ATOM     18  C   UNL     1       2.730  -0.063   2.097  0.00  0.00    +0.000 C 
ATOM     19  C   UNL     1       2.848  -1.577   1.916  0.00  0.00    +0.002 C 
ATOM     20  C   UNL     1       1.475  -2.224   2.115  0.00  0.00    +0.027 C 
ATOM     21  C   UNL     1       0.493  -1.662   1.085  0.00  0.00    +0.114 C 
BRANCH  16  23
ATOM     22  C   UNL     1      -0.821   1.907   0.496  0.00  0.00    +0.004 C 
ATOM     23  C   UNL     1      -0.607   0.414   0.236  0.00  0.00    +0.002 C 
ENDBRANCH  16  23
ENDBRANCH   1  21
TORSDOF 4
