REMARK  Name = ZINC62092851
REMARK  18 active torsions:
REMARK  status: ('A' for Active; 'I' for Inactive)
REMARK    1  A    between atoms: C_1  and  C_2
REMARK    2  A    between atoms: C_2  and  C_3
REMARK    3  A    between atoms: C_3  and  C_5
REMARK    4  A    between atoms: C_3  and  C_6
REMARK    5  A    between atoms: C_6  and  C_8
REMARK    6  A    between atoms: C_6  and  N_23
REMARK    7  A    between atoms: N_10  and  C_11
REMARK    8  A    between atoms: C_11  and  C_12
REMARK    9  A    between atoms: C_12  and  C_13
REMARK   10  A    between atoms: C_12  and  C_14
REMARK   11  A    between atoms: C_12  and  N_15
REMARK   12  A    between atoms: N_18  and  C_21
REMARK   13  A    between atoms: C_21  and  C_22
REMARK   14  A    between atoms: C_24  and  O_26
REMARK   15  A    between atoms: O_26  and  C_27
REMARK   16  A    between atoms: C_27  and  C_28
REMARK   17  A    between atoms: C_27  and  C_29
REMARK   18  A    between atoms: C_27  and  C_30
REMARK                            x       y       z     vdW  Elec       q    Type
REMARK                         _______ _______ _______ _____ _____    ______ ____
ROOT
ATOM      1  C   UNL     1      -1.647   1.183  -1.281  0.00  0.00    +0.234 C 
ATOM      2  O   UNL     1      -2.689   1.801  -1.330  0.00  0.00    -0.274 OA
ATOM      3  N   UNL     1      -0.471   1.842  -1.306  0.00  0.00    -0.312 N 
ATOM      4  H   UNL     1       0.361   1.346  -1.342  0.00  0.00    +0.149 HD
ENDROOT
BRANCH   1   5
ATOM      5  C   UNL     1      -1.666  -0.321  -1.192  0.00  0.00    +0.165 C 
BRANCH   5   6
ATOM      6  N   UNL     1      -2.955  -0.822  -1.678  0.00  0.00    -0.270 N 
ATOM      7  C   UNL     1      -3.049  -2.074  -2.168  0.00  0.00    +0.401 C 
ATOM      8  O   UNL     1      -2.066  -2.787  -2.208  0.00  0.00    -0.226 OA
ATOM      9  H   UNL     1      -3.740  -0.253  -1.646  0.00  0.00    +0.153 HD
BRANCH   7  10
ATOM     10  O   UNL     1      -4.233  -2.535  -2.614  0.00  0.00    -0.445 OA
BRANCH  10  11
ATOM     11  C   UNL     1      -4.260  -3.871  -3.120  0.00  0.00    +0.107 C 
ATOM     12  C   UNL     1      -3.829  -4.842  -2.019  0.00  0.00    +0.055 C 
ATOM     13  C   UNL     1      -5.679  -4.214  -3.577  0.00  0.00    +0.055 C 
ATOM     14  C   UNL     1      -3.301  -3.986  -4.306  0.00  0.00    +0.055 C 
ENDBRANCH  10  11
ENDBRANCH   7  10
ENDBRANCH   5   6
BRANCH   5  15
ATOM     15  C   UNL     1      -1.468  -0.749   0.263  0.00  0.00    +0.015 C 
ATOM     16  C   UNL     1      -2.672  -0.300   1.095  0.00  0.00    +0.010 C 
BRANCH  15  18
ATOM     17  C   UNL     1      -0.043  -2.705  -0.355  0.00  0.00    +0.004 C 
ATOM     18  C   UNL     1      -1.338  -2.272   0.334  0.00  0.00    +0.002 C 
ENDBRANCH  15  18
ENDBRANCH   5  15
ENDBRANCH   1   5
BRANCH   3  19
ATOM     19  C   UNL     1      -0.452   3.307  -1.277  0.00  0.00    +0.126 C 
BRANCH  19  20
ATOM     20  C   UNL     1       0.988   3.800  -1.439  0.00  0.00    +0.032 C 
ATOM     21  C   UNL     1       1.504   3.420  -2.828  0.00  0.00    +0.029 C 
ATOM     22  C   UNL     1       1.026   5.321  -1.279  0.00  0.00    +0.029 C 
BRANCH  20  23
ATOM     23  N   UNL     1       1.837   3.179  -0.413  0.00  0.00    -0.299 NA
ATOM     24  C   UNL     1       1.307   3.433   0.934  0.00  0.00    +0.066 C 
ATOM     25  C   UNL     1       2.184   2.721   1.966  0.00  0.00    -0.063 C 
ATOM     26  N   UNL     1       3.563   3.215   1.862  0.00  0.00    +0.381 N 
ATOM     27  C   UNL     1       4.087   2.932   0.519  0.00  0.00    -0.063 C 
ATOM     28  C   UNL     1       3.225   3.646  -0.526  0.00  0.00    +0.066 C 
ATOM     29  H   UNL     1       3.577   4.211   2.024  0.00  0.00    -0.082 HD
BRANCH  26  30
ATOM     30  C   UNL     1       4.401   2.545   2.865  0.00  0.00    -0.082 C 
ATOM     31  C   UNL     1       5.807   3.147   2.841  0.00  0.00    -0.017 C 
ENDBRANCH  26  30
ENDBRANCH  20  23
ENDBRANCH  19  20
ENDBRANCH   3  19
TORSDOF 10
