REMARK  Name = ZINC09095152
REMARK  8 active torsions:
REMARK  status: ('A' for Active; 'I' for Inactive)
REMARK    1  A    between atoms: C_1  and  C_2
REMARK    2  A    between atoms: C_5  and  C_8
REMARK    3  A    between atoms: C_9  and  C_18
REMARK    4  A    between atoms: N_28  and  C_29
REMARK    5  A    between atoms: C_29  and  C_31
REMARK    6  A    between atoms: C_29  and  C_32
REMARK    7  A    between atoms: N_34  and  C_35
REMARK    8  A    between atoms: C_35  and  C_36
REMARK                            x       y       z     vdW  Elec       q    Type
REMARK                         _______ _______ _______ _____ _____    ______ ____
ROOT
ATOM      1  C   UNL     1       2.585   3.652  -0.003  0.00  0.00    +0.141 C 
ATOM      2  C   UNL     1       1.150   3.188   0.008  0.00  0.00    -0.010 A 
ATOM      3  C   UNL     1      -0.055   3.852   0.023  0.00  0.00    +0.006 A 
ATOM      4  C   UNL     1      -1.240   3.135   0.031  0.00  0.00    +0.000 A 
ATOM      5  C   UNL     1      -1.215   1.751   0.017  0.00  0.00    +0.001 A 
ATOM      6  C   UNL     1      -0.013   1.076   0.008  0.00  0.00    +0.013 A 
ATOM      7  C   UNL     1       1.186   1.792   0.000  0.00  0.00    +0.042 A 
ATOM      8  C   UNL     1       2.598   1.366  -0.015  0.00  0.00    +0.248 C 
ATOM      9  O   UNL     1       2.975   0.210  -0.024  0.00  0.00    -0.270 OA
ATOM     10  N   UNL     1       3.409   2.438  -0.017  0.00  0.00    -0.275 N 
ENDROOT
BRANCH   1  12
ATOM     11  C   UNL     1       3.043   5.807   1.297  0.00  0.00    +0.053 A 
ATOM     12  C   UNL     1       2.876   4.463   1.234  0.00  0.00    +0.010 A 
ATOM     13  C   UNL     1       3.039   3.950   2.593  0.00  0.00    +0.006 A 
ATOM     14  C   UNL     1       2.987   2.672   3.158  0.00  0.00    +0.010 A 
ATOM     15  C   UNL     1       3.187   2.515   4.500  0.00  0.00    +0.001 A 
ATOM     16  C   UNL     1       3.441   3.614   5.308  0.00  0.00    +0.002 A 
ATOM     17  C   UNL     1       3.497   4.883   4.773  0.00  0.00    +0.026 A 
ATOM     18  C   UNL     1       3.296   5.067   3.409  0.00  0.00    +0.047 A 
ATOM     19  N   UNL     1       3.290   6.181   2.598  0.00  0.00    -0.354 N 
ATOM     20  H   UNL     1       3.441   7.090   2.898  0.00  0.00    +0.166 HD
BRANCH  11  25
ATOM     21  C   UNL     1       2.751   9.402  -3.188  0.00  0.00    +0.044 C 
ATOM     22  C   UNL     1       2.828   8.461  -2.013  0.00  0.00    -0.050 A 
ATOM     23  C   UNL     1       2.188   8.783  -0.829  0.00  0.00    +0.004 A 
ATOM     24  C   UNL     1       2.254   7.926   0.249  0.00  0.00    +0.010 A 
ATOM     25  C   UNL     1       2.968   6.731   0.144  0.00  0.00    -0.001 A 
ATOM     26  C   UNL     1       3.615   6.415  -1.051  0.00  0.00    +0.010 A 
ATOM     27  C   UNL     1       3.537   7.278  -2.124  0.00  0.00    +0.004 A 
ENDBRANCH  11  25
ENDBRANCH   1  12
BRANCH  10  28
ATOM     28  C   UNL     1       4.873   2.401  -0.030  0.00  0.00    +0.160 C 
ATOM     29  C   UNL     1       5.376   1.660   1.211  0.00  0.00    +0.038 C 
BRANCH  28  30
ATOM     30  C   UNL     1       5.347   1.685  -1.268  0.00  0.00    +0.234 C 
ATOM     31  O   UNL     1       4.540   1.249  -2.062  0.00  0.00    -0.274 OA
ATOM     32  N   UNL     1       6.666   1.530  -1.494  0.00  0.00    -0.307 N 
ATOM     33  H   UNL     1       7.311   1.879  -0.859  0.00  0.00    +0.149 HD
BRANCH  32  34
ATOM     34  C   UNL     1       7.126   0.834  -2.698  0.00  0.00    +0.178 C 
BRANCH  34  35
ATOM     35  C   UNL     1       8.633   0.796  -2.712  0.00  0.00    +0.122 A 
ATOM     36  C   UNL     1       9.400  -0.172  -2.178  0.00  0.00    +0.046 A 
ATOM     37  C   UNL     1      10.745   0.193  -2.418  0.00  0.00    +0.041 A 
ATOM     38  C   UNL     1      10.719   1.362  -3.083  0.00  0.00    +0.195 A 
ATOM     39  O   UNL     1       9.437   1.719  -3.263  0.00  0.00    -0.466 OA
ENDBRANCH  34  35
ENDBRANCH  32  34
ENDBRANCH  28  30
ENDBRANCH  10  28
TORSDOF 6
