REMARK  Name = ZINC42944067
REMARK  8 active torsions:
REMARK  status: ('A' for Active; 'I' for Inactive)
REMARK    1  A    between atoms: C_1  and  C_2
REMARK    2  A    between atoms: C_2  and  C_3
REMARK    3  A    between atoms: C_3  and  C_5
REMARK    4  A    between atoms: C_3  and  N_24
REMARK    5  A    between atoms: C_5  and  C_7
REMARK    6  A    between atoms: C_5  and  S_14
REMARK    7  A    between atoms: S_14  and  C_15
REMARK    8  A    between atoms: C_21  and  N_23
REMARK                            x       y       z     vdW  Elec       q    Type
REMARK                         _______ _______ _______ _____ _____    ______ ____
ROOT
ATOM      1  C   UNL     1      -1.430  -2.041  -0.250  0.00  0.00    +0.070 C 
ENDROOT
BRANCH   1   2
ATOM      2  C   UNL     1      -2.893  -2.347  -0.439  0.00  0.00    -0.035 A 
ATOM      3  C   UNL     1      -3.619  -1.678  -1.407  0.00  0.00    +0.007 A 
ATOM      4  C   UNL     1      -4.962  -1.958  -1.581  0.00  0.00    +0.038 A 
ATOM      5  C   UNL     1      -5.579  -2.909  -0.785  0.00  0.00    +0.123 A 
ATOM      6  C   UNL     1      -4.851  -3.577   0.184  0.00  0.00    +0.038 A 
ATOM      7  C   UNL     1      -3.507  -3.300   0.353  0.00  0.00    +0.007 A 
ATOM      8  F   UNL     1      -6.891  -3.183  -0.954  0.00  0.00    -0.205 F 
ENDBRANCH   1   2
BRANCH   1   9
ATOM      9  C   UNL     1      -1.260  -0.566   0.120  0.00  0.00    -0.057 C 
BRANCH   9  10
ATOM     10  N   UNL     1      -2.046  -0.271   1.326  0.00  0.00    +0.381 N 
ATOM     11  H   UNL     1      -1.934   0.702   1.570  0.00  0.00    -0.090 HD
ATOM     12  H   UNL     1      -3.020  -0.463   1.148  0.00  0.00    -0.090 HD
ATOM     13  H   UNL     1      -1.722  -0.848   2.088  0.00  0.00    -0.090 HD
ENDBRANCH   9  10
BRANCH   9  15
ATOM     14  C   UNL     1       0.406   1.226   0.626  0.00  0.00    +0.002 C 
ATOM     15  C   UNL     1       0.217  -0.274   0.390  0.00  0.00    -0.018 C 
ENDBRANCH   9  15
ENDBRANCH   1   9
BRANCH   1  16
ATOM     16  S   UNL     1      -0.537  -2.384  -1.792  0.00  0.00    -0.081 S 
BRANCH  16  17
ATOM     17  C   UNL     1      -0.611  -4.137  -1.946  0.00  0.00    +0.171 A 
ATOM     18  N   UNL     1      -0.116  -4.730  -3.068  0.00  0.00    -0.302 N 
ATOM     19  H   UNL     1       0.274  -4.186  -3.771  0.00  0.00    +0.171 HD
ATOM     20  C   UNL     1      -0.164  -6.071  -3.204  0.00  0.00    +0.254 A 
ATOM     21  O   UNL     1       0.278  -6.611  -4.206  0.00  0.00    -0.268 OA
ATOM     22  C   UNL     1      -0.729  -6.834  -2.177  0.00  0.00    +0.113 A 
ATOM     23  C   UNL     1      -1.220  -6.182  -1.054  0.00  0.00    +0.124 A 
ATOM     24  N   UNL     1      -1.140  -4.849  -0.973  0.00  0.00    -0.209 NA
BRANCH  23  25
ATOM     25  N   UNL     1      -1.784  -6.907  -0.024  0.00  0.00    -0.343 N 
ATOM     26  H   UNL     1      -1.837  -7.873  -0.083  0.00  0.00    +0.144 HD
ATOM     27  H   UNL     1      -2.127  -6.449   0.760  0.00  0.00    +0.144 HD
ENDBRANCH  23  25
ENDBRANCH  16  17
ENDBRANCH   1  16
TORSDOF 7
