REMARK  Name = ZINC38894201
REMARK  7 active torsions:
REMARK  status: ('A' for Active; 'I' for Inactive)
REMARK    1  A    between atoms: C_3  and  N_31
REMARK    2  A    between atoms: C_6  and  C_7
REMARK    3  A    between atoms: C_7  and  N_8
REMARK    4  A    between atoms: C_9  and  C_11
REMARK    5  A    between atoms: N_16  and  C_18
REMARK    6  A    between atoms: C_18  and  C_19
REMARK    7  A    between atoms: C_21  and  C_24
REMARK                            x       y       z     vdW  Elec       q    Type
REMARK                         _______ _______ _______ _____ _____    ______ ____
ROOT
ATOM      1  C   UNL     1      -3.315  -1.940  -3.024  0.00  0.00    +0.058 C 
ATOM      2  C   UNL     1      -3.524  -0.601  -3.737  0.00  0.00    +0.009 C 
ATOM      3  C   UNL     1      -4.051  -0.863  -5.150  0.00  0.00    -0.018 C 
ATOM      4  C   UNL     1      -5.341  -1.681  -5.064  0.00  0.00    -0.078 C 
ATOM      5  N   UNL     1      -5.070  -2.960  -4.396  0.00  0.00    +0.386 N 
ATOM      6  C   UNL     1      -4.632  -2.719  -3.016  0.00  0.00    -0.065 C 
ATOM      7  H   UNL     1      -4.345  -3.452  -4.896  0.00  0.00    -0.081 HD
ENDROOT
BRANCH   1   9
ATOM      8  N   UNL     1      -1.727  -1.016  -1.368  0.00  0.00    -0.311 N 
ATOM      9  C   UNL     1      -2.869  -1.691  -1.606  0.00  0.00    +0.215 C 
ATOM     10  O   UNL     1      -3.537  -2.098  -0.680  0.00  0.00    -0.276 OA
ATOM     11  H   UNL     1      -1.192  -0.690  -2.108  0.00  0.00    +0.149 HD
BRANCH   8  12
ATOM     12  C   UNL     1      -1.294  -0.774   0.011  0.00  0.00    +0.139 C 
BRANCH  12  18
ATOM     13  C   UNL     1      -0.017   1.379   0.010  0.00  0.00    +0.007 A 
ATOM     14  C   UNL     1       1.169   2.087   0.002  0.00  0.00    +0.023 A 
ATOM     15  C   UNL     1       2.381   1.409  -0.013  0.00  0.00    +0.030 A 
ATOM     16  C   UNL     1       2.396   0.020  -0.021  0.00  0.00    +0.023 A 
ATOM     17  C   UNL     1       1.207  -0.682  -0.013  0.00  0.00    +0.007 A 
ATOM     18  C   UNL     1       0.002  -0.004   0.002  0.00  0.00    -0.030 A 
BRANCH  15  19
ATOM     19  N   UNL     1       3.582   2.122  -0.021  0.00  0.00    -0.330 N 
ATOM     20  C   UNL     1       3.709   3.587  -0.009  0.00  0.00    +0.105 C 
ATOM     21  C   UNL     1       5.216   3.917  -0.051  0.00  0.00    +0.020 C 
ATOM     22  C   UNL     1       5.837   2.629  -0.655  0.00  0.00    +0.020 C 
ATOM     23  C   UNL     1       4.932   1.531  -0.037  0.00  0.00    +0.105 C 
ENDBRANCH  15  19
ENDBRANCH  12  18
ENDBRANCH   8  12
ENDBRANCH   1   9
BRANCH   5  24
ATOM     24  C   UNL     1      -6.293  -3.774  -4.385  0.00  0.00    +0.022 C 
BRANCH  24  25
ATOM     25  C   UNL     1      -6.670  -4.134  -5.799  0.00  0.00    +0.211 A 
ATOM     26  N   UNL     1      -6.280  -5.196  -6.444  0.00  0.00    -0.193 NA
ATOM     27  C   UNL     1      -6.804  -5.201  -7.682  0.00  0.00    +0.202 A 
ATOM     28  N   UNL     1      -7.540  -4.127  -7.830  0.00  0.00    -0.056 NA
ATOM     29  O   UNL     1      -7.468  -3.418  -6.602  0.00  0.00    -0.340 OA
BRANCH  27  30
ATOM     30  C   UNL     1      -6.586  -6.249  -8.710  0.00  0.00    +0.023 A 
ATOM     31  C   UNL     1      -5.782  -7.351  -8.425  0.00  0.00    +0.014 A 
ATOM     32  C   UNL     1      -5.582  -8.323  -9.383  0.00  0.00    +0.039 A 
ATOM     33  C   UNL     1      -6.179  -8.205 -10.628  0.00  0.00    +0.123 A 
ATOM     34  C   UNL     1      -6.979  -7.111 -10.916  0.00  0.00    +0.039 A 
ATOM     35  C   UNL     1      -7.189  -6.137  -9.961  0.00  0.00    +0.014 A 
ATOM     36  F   UNL     1      -5.981  -9.159 -11.563  0.00  0.00    -0.205 F 
ENDBRANCH  27  30
ENDBRANCH  24  25
ENDBRANCH   5  24
TORSDOF 7
