REMARK  Name = ZINC21247934
REMARK  6 active torsions:
REMARK  status: ('A' for Active; 'I' for Inactive)
REMARK    1  A    between atoms: C_1  and  C_2
REMARK    2  A    between atoms: C_2  and  C_3
REMARK    3  A    between atoms: C_2  and  O_4
REMARK    4  A    between atoms: O_4  and  C_5
REMARK    5  A    between atoms: C_8  and  C_11
REMARK    6  A    between atoms: C_16  and  C_22
REMARK                            x       y       z     vdW  Elec       q    Type
REMARK                         _______ _______ _______ _____ _____    ______ ____
ROOT
ATOM      1  C   UNL     1       2.490   1.045  -0.010  0.00  0.00    +0.032 C 
ATOM      2  C   UNL     1       3.395   1.630  -1.096  0.00  0.00    +0.059 C 
ATOM      3  C   UNL     1       4.728   0.924  -1.078  0.00  0.00    +0.018 C 
ATOM      4  C   UNL     1       5.232   0.428   0.071  0.00  0.00    +0.020 C 
ATOM      5  C   UNL     1       6.574  -0.266   0.067  0.00  0.00    +0.063 C 
ATOM      6  C   UNL     1       7.491   0.408  -0.955  0.00  0.00    +0.109 C 
ATOM      7  C   UNL     1       6.748   0.565  -2.257  0.00  0.00    +0.218 C 
ATOM      8  O   UNL     1       7.345   0.481  -3.308  0.00  0.00    -0.275 OA
ATOM      9  N   UNL     1       5.424   0.799  -2.254  0.00  0.00    -0.289 N 
ATOM     10  C   UNL     1       4.534   0.540   1.285  0.00  0.00    +0.162 C 
ATOM     11  O   UNL     1       5.026   0.092   2.302  0.00  0.00    -0.292 OA
ATOM     12  C   UNL     1       3.186   1.207   1.346  0.00  0.00    +0.088 C 
ATOM     13  H   UNL     1       4.899   0.889  -3.216  0.00  0.00    +0.155 HD
ENDROOT
BRANCH   5  14
ATOM     14  C   UNL     1       6.389  -1.715  -0.301  0.00  0.00    -0.039 A 
ATOM     15  C   UNL     1       5.829  -2.044  -1.535  0.00  0.00    +0.005 A 
ATOM     16  C   UNL     1       5.649  -3.343  -1.899  0.00  0.00    +0.009 A 
ATOM     17  C   UNL     1       6.031  -4.371  -1.020  0.00  0.00    -0.018 A 
ATOM     18  C   UNL     1       5.861  -5.723  -1.361  0.00  0.00    +0.008 A 
ATOM     19  C   UNL     1       6.243  -6.692  -0.485  0.00  0.00    +0.001 A 
ATOM     20  C   UNL     1       6.802  -6.363   0.749  0.00  0.00    +0.001 A 
ATOM     21  C   UNL     1       6.982  -5.064   1.113  0.00  0.00    +0.008 A 
ATOM     22  C   UNL     1       6.600  -4.037   0.234  0.00  0.00    -0.018 A 
ATOM     23  C   UNL     1       6.776  -2.684   0.573  0.00  0.00    +0.012 A 
ENDBRANCH   5  14
BRANCH   1  27
ATOM     24  C   UNL     1      -1.237   3.137   0.032  0.00  0.00    +0.121 A 
ATOM     25  C   UNL     1      -1.210   1.769  -0.199  0.00  0.00    +0.046 A 
ATOM     26  C   UNL     1      -0.005   1.094  -0.207  0.00  0.00    +0.007 A 
ATOM     27  C   UNL     1       1.176   1.783   0.005  0.00  0.00    -0.043 A 
ATOM     28  C   UNL     1       1.152   3.147   0.231  0.00  0.00    +0.007 A 
ATOM     29  C   UNL     1      -0.051   3.825   0.245  0.00  0.00    +0.046 A 
BRANCH  24  30
ATOM     30  O   UNL     1      -2.422   3.802   0.045  0.00  0.00    -0.489 OA
BRANCH  30  32
ATOM     31  C   UNL     1      -3.631   5.837  -0.441  0.00  0.00    +0.051 C 
ATOM     32  C   UNL     1      -2.365   5.225   0.163  0.00  0.00    +0.167 C 
ATOM     33  C   UNL     1      -2.268   5.611   1.641  0.00  0.00    +0.051 C 
ENDBRANCH  30  32
ENDBRANCH  24  30
ENDBRANCH   1  27
TORSDOF 4
