REMARK  Name = ZINC36206674
REMARK  17 active torsions:
REMARK  status: ('A' for Active; 'I' for Inactive)
REMARK    1  A    between atoms: C_1  and  C_2
REMARK    2  A    between atoms: C_2  and  C_3
REMARK    3  A    between atoms: C_3  and  C_4
REMARK    4  A    between atoms: C_4  and  O_6
REMARK    5  A    between atoms: O_6  and  C_7
REMARK    6  A    between atoms: C_7  and  C_8
REMARK    7  A    between atoms: C_8  and  C_10
REMARK    8  A    between atoms: C_8  and  O_36
REMARK    9  A    between atoms: C_10  and  N_11
REMARK   10  A    between atoms: N_11  and  C_12
REMARK   11  A    between atoms: N_11  and  C_30
REMARK   12  A    between atoms: C_12  and  C_13
REMARK   13  A    between atoms: C_19  and  C_29
REMARK   14  A    between atoms: C_20  and  C_24
REMARK   15  A    between atoms: C_24  and  O_26
REMARK   16  A    between atoms: O_26  and  C_27
REMARK   17  A    between atoms: C_27  and  C_28
REMARK                            x       y       z     vdW  Elec       q    Type
REMARK                         _______ _______ _______ _____ _____    ______ ____
ROOT
ATOM      1  N   UNL     1       2.415  -6.725  -4.761  0.00  0.00    +0.388 N 
ATOM      2  H   UNL     1       3.342  -6.393  -4.978  0.00  0.00    -0.081 HD
ENDROOT
BRANCH   1   3
ATOM      3  C   UNL     1       1.476  -6.266  -5.793  0.00  0.00    -0.068 C 
ATOM      4  C   UNL     1       0.079  -6.813  -5.492  0.00  0.00    -0.015 C 
ATOM      5  C   UNL     1      -0.899  -6.335  -6.567  0.00  0.00    -0.002 C 
ATOM      6  C   UNL     1      -0.438  -6.840  -7.936  0.00  0.00    -0.000 C 
ATOM      7  C   UNL     1       0.959  -6.294  -8.238  0.00  0.00    -0.002 C 
ATOM      8  C   UNL     1       1.936  -6.772  -7.162  0.00  0.00    -0.015 C 
ENDBRANCH   1   3
BRANCH   1   9
ATOM      9  C   UNL     1       2.000  -6.199  -3.454  0.00  0.00    -0.043 C 
BRANCH   9  10
ATOM     10  C   UNL     1       2.131  -4.675  -3.452  0.00  0.00    +0.136 C 
BRANCH  10  11
ATOM     11  O   UNL     1       3.505  -4.314  -3.605  0.00  0.00    -0.390 OA
ATOM     12  H   UNL     1       4.080  -4.651  -2.904  0.00  0.00    +0.210 HD
ENDBRANCH  10  11
BRANCH  10  13
ATOM     13  C   UNL     1       1.602  -4.119  -2.129  0.00  0.00    +0.261 C 
BRANCH  13  14
ATOM     14  O   UNL     1       1.615  -2.691  -2.173  0.00  0.00    -0.462 OA
BRANCH  14  15
ATOM     15  C   UNL     1       1.178  -2.043  -1.081  0.00  0.00    +0.307 C 
ATOM     16  O   UNL     1       0.797  -2.668  -0.120  0.00  0.00    -0.251 OA
BRANCH  15  17
ATOM     17  C   UNL     1       1.163  -0.537  -1.054  0.00  0.00    +0.120 C 
BRANCH  17  19
ATOM     18  C   UNL     1       0.609   1.474   0.322  0.00  0.00    +0.004 C 
ATOM     19  C   UNL     1       0.625  -0.056   0.295  0.00  0.00    +0.008 C 
ENDBRANCH  17  19
ENDBRANCH  15  17
ENDBRANCH  14  15
ENDBRANCH  13  14
ENDBRANCH  10  13
ENDBRANCH   9  10
ENDBRANCH   1   9
BRANCH   1  20
ATOM     20  C   UNL     1       2.418  -8.194  -4.720  0.00  0.00    -0.003 C 
BRANCH  20  21
ATOM     21  C   UNL     1       3.308  -8.725  -5.814  0.00  0.00    +0.094 A 
ATOM     22  N   UNL     1       3.329 -10.059  -6.055  0.00  0.00    -0.312 N 
ATOM     23  H   UNL     1       2.772 -10.647  -5.521  0.00  0.00    +0.170 HD
ATOM     24  C   UNL     1       4.106 -10.585  -7.022  0.00  0.00    +0.260 A 
ATOM     25  O   UNL     1       4.117 -11.785  -7.231  0.00  0.00    -0.267 OA
ATOM     26  C   UNL     1       4.946  -9.666  -7.824  0.00  0.00    +0.076 A 
ATOM     27  C   UNL     1       5.824  -9.959  -8.869  0.00  0.00    -0.015 A 
ATOM     28  C   UNL     1       6.510  -8.951  -9.482  0.00  0.00    +0.102 A 
ATOM     29  S   UNL     1       5.947  -7.501  -8.606  0.00  0.00    -0.062 S 
ATOM     30  C   UNL     1       4.836  -8.300  -7.476  0.00  0.00    +0.116 A 
ATOM     31  N   UNL     1       4.031  -7.887  -6.505  0.00  0.00    -0.229 NA
ATOM     32  C   UNL     1       6.015 -11.385  -9.318  0.00  0.00    +0.046 C 
BRANCH  28  33
ATOM     33  C   UNL     1       7.470  -9.037 -10.585  0.00  0.00    +0.346 C 
ATOM     34  O   UNL     1       7.742 -10.118 -11.071  0.00  0.00    -0.244 OA
BRANCH  33  35
ATOM     35  O   UNL     1       8.052  -7.917 -11.062  0.00  0.00    -0.461 OA
BRANCH  35  36
ATOM     36  C   UNL     1       8.978  -8.076 -12.139  0.00  0.00    +0.229 C 
ATOM     37  C   UNL     1       9.530  -6.707 -12.542  0.00  0.00    +0.048 C 
ENDBRANCH  35  36
ENDBRANCH  33  35
ENDBRANCH  28  33
ENDBRANCH  20  21
ENDBRANCH   1  20
TORSDOF 14
