REMARK  Name = ZINC20362217
REMARK  3 active torsions:
REMARK  status: ('A' for Active; 'I' for Inactive)
REMARK    1  A    between atoms: C_1  and  N_2
REMARK    2  A    between atoms: N_8  and  C_9
REMARK    3  A    between atoms: C_9  and  C_11
REMARK                            x       y       z     vdW  Elec       q    Type
REMARK                         _______ _______ _______ _____ _____    ______ ____
ROOT
ATOM      1  C   UNL     1      -0.018   1.470  -0.030  0.00  0.00    +0.272 C 
ATOM      2  O   UNL     1       1.026   2.092  -0.035  0.00  0.00    -0.268 OA
ENDROOT
BRANCH   1  10
ATOM      3  C   UNL     1      -3.731   3.737   0.041  0.00  0.00    +0.152 C 
ATOM      4  N   UNL     1      -2.353   4.237   0.036  0.00  0.00    -0.318 N 
ATOM      5  C   UNL     1      -1.921   5.647   0.042  0.00  0.00    +0.158 A 
ATOM      6  C   UNL     1      -0.408   5.544   0.034  0.00  0.00    +0.267 A 
ATOM      7  O   UNL     1       0.388   6.462   0.035  0.00  0.00    -0.266 OA
ATOM      8  N   UNL     1      -0.130   4.242   0.026  0.00  0.00    -0.294 N 
ATOM      9  C   UNL     1      -1.213   3.496   0.018  0.00  0.00    +0.203 A 
ATOM     10  N   UNL     1      -1.194   2.128  -0.007  0.00  0.00    -0.142 NA
ATOM     11  H   UNL     1       0.863   3.769   0.025  0.00  0.00    +0.172 HD
ENDBRANCH   1  10
BRANCH   1  12
ATOM     12  C   UNL     1       0.002  -0.003  -0.057  0.00  0.00    +0.055 A 
ATOM     13  C   UNL     1      -1.212  -0.734  -0.052  0.00  0.00    +0.020 A 
ATOM     14  C   UNL     1      -1.163  -2.092  -0.077  0.00  0.00    +0.071 A 
ATOM     15  C   UNL     1       0.086  -2.741  -0.107  0.00  0.00    +0.249 A 
ATOM     16  O   UNL     1       0.134  -3.960  -0.129  0.00  0.00    -0.268 OA
ATOM     17  N   UNL     1       1.226  -2.028  -0.111  0.00  0.00    -0.328 N 
ATOM     18  H   UNL     1       2.197  -2.544  -0.130  0.00  0.00    +0.168 HD
ATOM     19  C   UNL     1       1.204  -0.682  -0.092  0.00  0.00    +0.099 A 
ENDBRANCH   1  12
TORSDOF 2
