REMARK  Name = ZINC08856792
REMARK  8 active torsions:
REMARK  status: ('A' for Active; 'I' for Inactive)
REMARK    1  A    between atoms: C_1  and  C_2
REMARK    2  A    between atoms: C_2  and  C_3
REMARK    3  A    between atoms: C_3  and  C_5
REMARK    4  A    between atoms: C_3  and  N_6
REMARK    5  A    between atoms: C_11  and  O_13
REMARK    6  A    between atoms: O_13  and  C_14
REMARK    7  A    between atoms: C_14  and  C_15
REMARK    8  A    between atoms: C_24  and  N_68
REMARK                            x       y       z     vdW  Elec       q    Type
REMARK                         _______ _______ _______ _____ _____    ______ ____
ROOT
ATOM      1  N   UNL     1       2.602  -0.706   3.620  0.00  0.00    -0.311 N 
ATOM      2  C   UNL     1       1.465   0.075   3.582  0.00  0.00    +0.223 A 
ATOM      3  N   UNL     1       0.891   0.471   4.713  0.00  0.00    -0.181 NA
ATOM      4  C   UNL     1      -0.204   1.223   4.675  0.00  0.00    +0.225 A 
ATOM      5  N   UNL     1      -0.725   1.579   3.504  0.00  0.00    -0.161 NA
ATOM      6  C   UNL     1      -0.151   1.184   2.374  0.00  0.00    +0.324 A 
ATOM      7  N   UNL     1       0.940   0.428   2.412  0.00  0.00    -0.161 NA
ATOM      8  N   UNL     1      -0.801   1.634   5.849  0.00  0.00    -0.303 N 
ATOM      9  C   UNL     1      -1.138   0.483   6.699  0.00  0.00    +0.089 C 
ATOM     10  C   UNL     1      -1.723   0.984   8.022  0.00  0.00    -0.059 C 
ATOM     11  C   UNL     1      -2.577   2.951   6.900  0.00  0.00    -0.059 C 
ATOM     12  C   UNL     1      -1.992   2.451   5.577  0.00  0.00    +0.089 C 
ATOM     13  H   UNL     1       2.982  -0.967   4.473  0.00  0.00    +0.149 HD
ATOM     14  N   UNL     1      -2.932   1.785   7.736  0.00  0.00    +0.385 N 
ATOM     15  H   UNL     1      -3.606   1.202   7.225  0.00  0.00    -0.081 HD
ENDROOT
BRANCH  14  16
ATOM     16  C   UNL     1      -3.550   2.238   9.000  0.00  0.00    -0.065 C 
ATOM     17  C   UNL     1      -2.591   3.150   9.768  0.00  0.00    -0.009 C 
ATOM     18  C   UNL     1      -3.252   3.606  11.070  0.00  0.00    -0.012 C 
ATOM     19  C   UNL     1      -3.588   2.383  11.926  0.00  0.00    +0.007 C 
ATOM     20  C   UNL     1      -4.547   1.471  11.159  0.00  0.00    -0.012 C 
ATOM     21  C   UNL     1      -3.885   1.015   9.857  0.00  0.00    -0.009 C 
ATOM     22  C   UNL     1      -5.832   2.236  10.837  0.00  0.00    +0.007 C 
ATOM     23  C   UNL     1      -5.496   3.459   9.981  0.00  0.00    -0.012 C 
ATOM     24  C   UNL     1      -4.537   4.372  10.748  0.00  0.00    +0.007 C 
ATOM     25  C   UNL     1      -4.834   3.004   8.679  0.00  0.00    -0.009 C 
ENDBRANCH  14  16
BRANCH   1  26
ATOM     26  C   UNL     1       3.234  -1.142   2.373  0.00  0.00    +0.070 C 
ATOM     27  C   UNL     1       4.180  -0.049   1.871  0.00  0.00    +0.028 C 
BRANCH  26  29
ATOM     28  C   UNL     1       3.064  -3.553   3.005  0.00  0.00    +0.005 C 
ATOM     29  C   UNL     1       4.026  -2.426   2.624  0.00  0.00    +0.018 C 
ENDBRANCH  26  29
ENDBRANCH   1  26
BRANCH   6  30
ATOM     30  O   UNL     1      -0.682   1.547   1.184  0.00  0.00    -0.453 OA
BRANCH  30  31
ATOM     31  C   UNL     1      -0.013   1.086   0.008  0.00  0.00    +0.345 C 
BRANCH  31  32
ATOM     32  C   UNL     1      -0.753   1.593  -1.232  0.00  0.00    +0.424 C 
ATOM     33  F   UNL     1      -0.772   2.991  -1.224  0.00  0.00    -0.167 F 
ATOM     34  F   UNL     1      -0.098   1.141  -2.382  0.00  0.00    -0.167 F 
ATOM     35  F   UNL     1      -2.065   1.108  -1.222  0.00  0.00    -0.167 F 
ENDBRANCH  31  32
ENDBRANCH  30  31
ENDBRANCH   6  30
TORSDOF 6
