REMARK  Name = ZINC64870481
REMARK  6 active torsions:
REMARK  status: ('A' for Active; 'I' for Inactive)
REMARK    1  A    between atoms: C_1  and  O_2
REMARK    2  A    between atoms: O_2  and  C_3
REMARK    3  A    between atoms: C_8  and  C_9
REMARK    4  A    between atoms: C_9  and  N_10
REMARK    5  A    between atoms: C_16  and  C_23
REMARK    6  A    between atoms: C_26  and  C_30
REMARK                            x       y       z     vdW  Elec       q    Type
REMARK                         _______ _______ _______ _____ _____    ______ ____
ROOT
ATOM      1  N   UNL     1      -1.398  -2.912  -0.233  0.00  0.00    -0.256 N 
ATOM      2  C   UNL     1      -2.199  -1.981   0.329  0.00  0.00    +0.265 A 
ATOM      3  O   UNL     1      -1.733  -1.078   0.996  0.00  0.00    -0.267 OA
ATOM      4  C   UNL     1      -3.653  -2.089   0.113  0.00  0.00    +0.063 A 
ATOM      5  C   UNL     1      -4.545  -1.168   0.658  0.00  0.00    +0.016 A 
ATOM      6  C   UNL     1      -5.897  -1.312   0.426  0.00  0.00    +0.008 A 
ATOM      7  C   UNL     1      -6.368  -2.365  -0.344  0.00  0.00    -0.000 A 
ATOM      8  C   UNL     1      -5.495  -3.284  -0.890  0.00  0.00    +0.034 A 
ATOM      9  C   UNL     1      -4.132  -3.155  -0.668  0.00  0.00    +0.056 A 
ATOM     10  N   UNL     1      -3.221  -4.056  -1.199  0.00  0.00    -0.307 N 
ATOM     11  H   UNL     1      -3.537  -4.797  -1.740  0.00  0.00    +0.170 HD
ATOM     12  C   UNL     1      -1.903  -3.910  -0.975  0.00  0.00    +0.330 A 
ATOM     13  O   UNL     1      -1.137  -4.719  -1.462  0.00  0.00    -0.246 OA
ENDROOT
BRANCH   7  14
ATOM     14  C   UNL     1      -7.849  -2.507  -0.587  0.00  0.00    +0.242 C 
ATOM     15  N   UNL     1      -8.614  -1.928   0.541  0.00  0.00    -0.265 NA
ATOM     16  C   UNL     1      -9.803  -1.282  -0.055  0.00  0.00    +0.180 C 
ATOM     17  N   UNL     1      -9.692  -1.501  -1.516  0.00  0.00    -0.177 NA
ATOM     18  O   UNL     1      -8.247  -1.732  -1.741  0.00  0.00    -0.274 OA
ATOM     19  H   UNL     1      -8.883  -2.643   1.200  0.00  0.00    +0.127 HD
ATOM     20  H   UNL     1     -10.234  -2.302  -1.804  0.00  0.00    +0.156 HD
BRANCH  16  21
ATOM     21  C   UNL     1     -11.062  -1.921   0.474  0.00  0.00    -0.014 A 
ATOM     22  C   UNL     1     -11.081  -2.458   1.748  0.00  0.00    +0.008 A 
ATOM     23  C   UNL     1     -12.235  -3.045   2.233  0.00  0.00    +0.020 A 
ATOM     24  C   UNL     1     -13.370  -3.093   1.444  0.00  0.00    +0.041 A 
ATOM     25  C   UNL     1     -13.351  -2.555   0.170  0.00  0.00    +0.020 A 
ATOM     26  C   UNL     1     -12.198  -1.964  -0.312  0.00  0.00    +0.008 A 
ATOM     27 CL   UNL     1     -14.820  -3.829   2.053  0.00  0.00    -0.084 Cl
ENDBRANCH  16  21
ENDBRANCH   7  14
BRANCH   1  28
ATOM     28  C   UNL     1       0.051  -2.828  -0.033  0.00  0.00    +0.168 C 
BRANCH  28  34
ATOM     29  C   UNL     1       0.606  -0.607  -1.056  0.00  0.00    +0.125 A 
ATOM     30  C   UNL     1       1.173   0.161  -2.063  0.00  0.00    +0.046 A 
ATOM     31  C   UNL     1       1.786  -0.455  -3.136  0.00  0.00    +0.004 A 
ATOM     32  C   UNL     1       1.836  -1.835  -3.208  0.00  0.00    +0.001 A 
ATOM     33  C   UNL     1       1.271  -2.602  -2.207  0.00  0.00    +0.009 A 
ATOM     34  C   UNL     1       0.661  -1.991  -1.128  0.00  0.00    +0.014 A 
BRANCH  29  36
ATOM     35  C   UNL     1      -0.017   1.425   0.010  0.00  0.00    +0.277 C 
ATOM     36  O   UNL     1       0.002  -0.004   0.002  0.00  0.00    -0.495 OA
ENDBRANCH  29  36
ENDBRANCH  28  34
ENDBRANCH   1  28
TORSDOF 5
