REMARK  Name = ZINC40812327
REMARK  5 active torsions:
REMARK  status: ('A' for Active; 'I' for Inactive)
REMARK    1  A    between atoms: C_1  and  C_2
REMARK    2  A    between atoms: C_6  and  C_7
REMARK    3  A    between atoms: N_12  and  C_15
REMARK    4  A    between atoms: N_26  and  N_27
REMARK    5  A    between atoms: C_28  and  C_30
REMARK                            x       y       z     vdW  Elec       q    Type
REMARK                         _______ _______ _______ _____ _____    ______ ____
ROOT
ATOM      1  C   UNL     1       0.543   1.437   0.013  0.00  0.00    +0.048 C 
ATOM      2  C   UNL     1       0.189  -0.028   0.003  0.00  0.00    +0.009 A 
ATOM      3  C   UNL     1       0.028  -0.846  -1.122  0.00  0.00    +0.042 A 
ATOM      4  C   UNL     1      -0.293  -2.105  -0.673  0.00  0.00    +0.115 A 
ATOM      5  O   UNL     1      -0.326  -2.072   0.657  0.00  0.00    -0.454 OA
ATOM      6  C   UNL     1      -0.033  -0.825   1.091  0.00  0.00    +0.193 A 
ATOM      7  C   UNL     1      -0.550  -3.266  -1.601  0.00  0.00    +0.075 C 
ATOM      8  C   UNL     1      -0.904  -2.735  -2.993  0.00  0.00    +0.014 C 
ATOM      9  C   UNL     1       0.163  -1.751  -3.484  0.00  0.00    +0.058 C 
ATOM     10  C   UNL     1       0.152  -0.539  -2.564  0.00  0.00    +0.070 C 
ATOM     11  N   UNL     1       0.244   0.676  -3.012  0.00  0.00    -0.184 NA
ENDROOT
BRANCH   6  12
ATOM     12  C   UNL     1       0.032  -0.399   2.493  0.00  0.00    +0.282 C 
ATOM     13  O   UNL     1       0.157   0.780   2.766  0.00  0.00    -0.267 OA
ATOM     14  N   UNL     1      -0.048  -1.314   3.480  0.00  0.00    -0.292 N 
ATOM     15  C   UNL     1      -0.026  -2.751   3.171  0.00  0.00    +0.127 C 
ATOM     16  C   UNL     1       1.107  -3.407   3.969  0.00  0.00    +0.124 C 
ATOM     17  N   UNL     1       0.998  -2.986   5.373  0.00  0.00    -0.325 N 
ATOM     18  C   UNL     1       0.977  -1.549   5.682  0.00  0.00    +0.124 C 
ATOM     19  C   UNL     1      -0.151  -0.893   4.884  0.00  0.00    +0.127 C 
BRANCH  17  20
ATOM     20  C   UNL     1       0.916  -3.935   6.396  0.00  0.00    +0.065 A 
ATOM     21  C   UNL     1       2.072  -4.406   7.004  0.00  0.00    +0.026 A 
ATOM     22  C   UNL     1       1.988  -5.343   8.015  0.00  0.00    +0.002 A 
ATOM     23  C   UNL     1       0.753  -5.814   8.423  0.00  0.00    +0.003 A 
ATOM     24  C   UNL     1      -0.402  -5.349   7.821  0.00  0.00    +0.040 A 
ATOM     25  C   UNL     1      -0.325  -4.406   6.812  0.00  0.00    +0.144 A 
ATOM     26  F   UNL     1      -1.454  -3.946   6.228  0.00  0.00    -0.204 F 
ENDBRANCH  17  20
ENDBRANCH   6  12
BRANCH  11  27
ATOM     27  N   UNL     1       0.360   0.908  -4.388  0.00  0.00    -0.203 N 
ATOM     28  C   UNL     1       0.456   2.169  -4.854  0.00  0.00    +0.266 C 
ATOM     29  O   UNL     1       0.442   3.106  -4.078  0.00  0.00    -0.268 OA
ATOM     30  H   UNL     1       0.371   0.161  -5.007  0.00  0.00    +0.178 HD
BRANCH  28  31
ATOM     31  C   UNL     1       0.578   2.414  -6.305  0.00  0.00    +0.073 A 
ATOM     32  C   UNL     1       0.589   1.341  -7.199  0.00  0.00    +0.016 A 
ATOM     33  C   UNL     1       0.703   1.576  -8.552  0.00  0.00    +0.001 A 
ATOM     34  C   UNL     1       0.807   2.872  -9.028  0.00  0.00    +0.003 A 
ATOM     35  C   UNL     1       0.798   3.941  -8.151  0.00  0.00    +0.039 A 
ATOM     36  C   UNL     1       0.678   3.721  -6.791  0.00  0.00    +0.136 A 
ATOM     37  F   UNL     1       0.663   4.766  -5.935  0.00  0.00    -0.205 F 
ENDBRANCH  28  31
ENDBRANCH  11  27
TORSDOF 4
