REMARK  Name = ZINC09805273
REMARK  8 active torsions:
REMARK  status: ('A' for Active; 'I' for Inactive)
REMARK    1  A    between atoms: C_1  and  C_2
REMARK    2  A    between atoms: C_2  and  C_3
REMARK    3  A    between atoms: C_3  and  C_4
REMARK    4  A    between atoms: C_4  and  O_5
REMARK    5  A    between atoms: O_5  and  C_6
REMARK    6  A    between atoms: C_11  and  C_12
REMARK    7  A    between atoms: C_17  and  C_22
REMARK    8  A    between atoms: C_25  and  C_28
REMARK                            x       y       z     vdW  Elec       q    Type
REMARK                         _______ _______ _______ _____ _____    ______ ____
ROOT
ATOM      1  C   UNL     1       1.236  -0.873  -0.007  0.00  0.00    +0.139 C 
ATOM      2  C   UNL     1       0.042   0.049   0.025  0.00  0.00    +0.037 C 
ATOM      3  C   UNL     1       0.082   1.393   0.027  0.00  0.00    +0.017 C 
ATOM      4  C   UNL     1      -1.204   2.202   0.052  0.00  0.00    +0.059 C 
ATOM      5  C   UNL     1      -2.276   1.452   0.841  0.00  0.00    +0.032 C 
ATOM      6  C   UNL     1      -2.509   0.104   0.146  0.00  0.00    +0.088 C 
ATOM      7  C   UNL     1      -1.202  -0.626   0.069  0.00  0.00    +0.163 C 
ATOM      8  O   UNL     1      -1.210  -1.841   0.042  0.00  0.00    -0.292 OA
ATOM      9  N   UNL     1       1.220   2.131  -0.006  0.00  0.00    -0.316 N 
ATOM     10  C   UNL     1       2.341   1.904   0.784  0.00  0.00    +0.052 A 
ATOM     11  C   UNL     1       2.804   2.836   1.696  0.00  0.00    +0.025 A 
ATOM     12  C   UNL     1       3.991   2.597   2.367  0.00  0.00    +0.002 A 
ATOM     13  C   UNL     1       4.706   1.437   2.128  0.00  0.00    +0.002 A 
ATOM     14  C   UNL     1       4.232   0.493   1.233  0.00  0.00    +0.025 A 
ATOM     15  C   UNL     1       3.035   0.722   0.574  0.00  0.00    +0.049 A 
ATOM     16  N   UNL     1       2.494  -0.219  -0.301  0.00  0.00    -0.331 N 
ATOM     17  H   UNL     1       1.254   2.874  -0.630  0.00  0.00    +0.152 HD
ATOM     18  H   UNL     1       2.966  -0.438  -1.119  0.00  0.00    +0.147 HD
ENDROOT
BRANCH   5  19
ATOM     19  C   UNL     1      -3.555   2.248   0.851  0.00  0.00    -0.043 A 
ATOM     20  C   UNL     1      -4.161   2.598  -0.341  0.00  0.00    +0.004 A 
ATOM     21  C   UNL     1      -5.337   3.326  -0.331  0.00  0.00    +0.003 A 
ATOM     22  C   UNL     1      -5.902   3.710   0.871  0.00  0.00    -0.050 A 
ATOM     23  C   UNL     1      -5.293   3.364   2.063  0.00  0.00    +0.003 A 
ATOM     24  C   UNL     1      -4.119   2.634   2.053  0.00  0.00    +0.004 A 
ATOM     25  C   UNL     1      -7.181   4.506   0.882  0.00  0.00    +0.044 C 
ENDBRANCH   5  19
BRANCH   1  31
ATOM     26  C   UNL     1       2.123  -2.696   1.469  0.00  0.00    +0.126 A 
ATOM     27  C   UNL     1       2.232  -3.314   2.706  0.00  0.00    +0.046 A 
ATOM     28  C   UNL     1       1.566  -2.793   3.799  0.00  0.00    +0.004 A 
ATOM     29  C   UNL     1       0.795  -1.653   3.661  0.00  0.00    +0.001 A 
ATOM     30  C   UNL     1       0.689  -1.033   2.430  0.00  0.00    +0.009 A 
ATOM     31  C   UNL     1       1.353  -1.550   1.335  0.00  0.00    +0.019 A 
BRANCH  26  32
ATOM     32  O   UNL     1       2.773  -3.210   0.392  0.00  0.00    -0.492 OA
BRANCH  32  33
ATOM     33  C   UNL     1       3.547  -4.392   0.604  0.00  0.00    +0.229 C 
BRANCH  33  34
ATOM     34  C   UNL     1       4.199  -4.818  -0.713  0.00  0.00    +0.041 C 
BRANCH  34  36
ATOM     35  C   UNL     1       5.681  -6.509  -1.802  0.00  0.00    +0.004 C 
ATOM     36  C   UNL     1       5.028  -6.083  -0.485  0.00  0.00    -0.000 C 
ENDBRANCH  34  36
ENDBRANCH  33  34
ENDBRANCH  32  33
ENDBRANCH  26  32
ENDBRANCH   1  31
TORSDOF 6
