REMARK  Name = ZINC01625497
REMARK  10 active torsions:
REMARK  status: ('A' for Active; 'I' for Inactive)
REMARK    1  A    between atoms: C_1  and  C_2
REMARK    2  A    between atoms: C_5  and  S_8
REMARK    3  A    between atoms: S_8  and  N_11
REMARK    4  A    between atoms: C_19  and  O_22
REMARK    5  A    between atoms: C_23  and  C_25
REMARK    6  A    between atoms: C_25  and  C_26
REMARK    7  A    between atoms: C_26  and  C_28
REMARK    8  A    between atoms: N_29  and  N_30
REMARK    9  A    between atoms: N_30  and  C_31
REMARK   10  A    between atoms: N_30  and  C_32
REMARK                            x       y       z     vdW  Elec       q    Type
REMARK                         _______ _______ _______ _____ _____    ______ ____
ROOT
ATOM      1  N   UNL     1       2.680   2.192  -3.661  0.00  0.00    -0.195 N 
ATOM      2  C   UNL     1       3.696   2.653  -2.828  0.00  0.00    +0.060 A 
ATOM      3  C   UNL     1       4.952   3.193  -3.032  0.00  0.00    +0.025 A 
ATOM      4  C   UNL     1       5.742   3.562  -1.943  0.00  0.00    +0.002 A 
ATOM      5  C   UNL     1       5.334   3.415  -0.647  0.00  0.00    +0.008 A 
ATOM      6  C   UNL     1       4.064   2.869  -0.396  0.00  0.00    -0.016 A 
ATOM      7  C   UNL     1       3.284   2.505  -1.502  0.00  0.00    +0.013 A 
ATOM      8  C   UNL     1       2.011   1.955  -1.391  0.00  0.00    +0.026 A 
ATOM      9  C   UNL     1       1.507   1.766  -0.141  0.00  0.00    +0.123 A 
ATOM     10  C   UNL     1       2.265   2.127   0.984  0.00  0.00    +0.046 A 
ATOM     11  C   UNL     1       3.517   2.662   0.882  0.00  0.00    +0.012 A 
ATOM     12  C   UNL     1       1.563   1.727  -2.811  0.00  0.00    +0.136 C 
ENDROOT
BRANCH   1  13
ATOM     13  S   UNL     1       2.716   2.169  -5.316  0.00  0.00    +0.075 S 
ATOM     14  O   UNL     1       1.371   2.016  -5.750  0.00  0.00    -0.150 OA
ATOM     15  O   UNL     1       3.526   3.264  -5.720  0.00  0.00    -0.150 OA
BRANCH  13  20
ATOM     16  C   UNL     1       5.641  -2.843  -6.968  0.00  0.00    +0.044 C 
ATOM     17  C   UNL     1       4.910  -1.592  -6.556  0.00  0.00    -0.050 A 
ATOM     18  C   UNL     1       3.539  -1.617  -6.380  0.00  0.00    +0.005 A 
ATOM     19  C   UNL     1       2.869  -0.469  -6.002  0.00  0.00    +0.029 A 
ATOM     20  C   UNL     1       3.570   0.705  -5.798  0.00  0.00    +0.109 A 
ATOM     21  C   UNL     1       4.940   0.732  -5.979  0.00  0.00    +0.029 A 
ATOM     22  C   UNL     1       5.611  -0.418  -6.352  0.00  0.00    +0.005 A 
ENDBRANCH  13  20
ENDBRANCH   1  13
BRANCH   9  23
ATOM     23  O   UNL     1       0.268   1.232   0.019  0.00  0.00    -0.506 OA
ATOM     24  H   UNL     1       0.260   0.268   0.084  0.00  0.00    +0.292 HD
ENDBRANCH   9  23
BRANCH  12  25
ATOM     25  C   UNL     1       0.301   2.541  -3.105  0.00  0.00    +0.065 C 
BRANCH  25  26
ATOM     26  C   UNL     1       0.598   4.008  -2.931  0.00  0.00    -0.033 C 
ATOM     27  C   UNL     1       0.942   4.747  -3.984  0.00  0.00    +0.014 C 
BRANCH  26  28
ATOM     28  C   UNL     1       0.508   4.623  -1.602  0.00  0.00    +0.133 C 
ATOM     29  N   UNL     1       0.862   5.862  -1.433  0.00  0.00    -0.193 NA
BRANCH  29  30
ATOM     30  N   UNL     1       0.776   6.449  -0.164  0.00  0.00    -0.262 N 
ATOM     31  C   UNL     1       0.287   5.665   0.973  0.00  0.00    +0.151 C 
ATOM     32  C   UNL     1       1.175   7.846   0.026  0.00  0.00    +0.151 C 
ENDBRANCH  29  30
ENDBRANCH  26  28
ENDBRANCH  25  26
ENDBRANCH  12  25
TORSDOF 7
