REMARK  Name = ZINC08897065
REMARK  9 active torsions:
REMARK  status: ('A' for Active; 'I' for Inactive)
REMARK    1  A    between atoms: C_1  and  O_2
REMARK    2  A    between atoms: O_2  and  C_3
REMARK    3  A    between atoms: C_8  and  O_9
REMARK    4  A    between atoms: O_9  and  C_10
REMARK    5  A    between atoms: C_11  and  C_27
REMARK    6  A    between atoms: C_15  and  C_16
REMARK    7  A    between atoms: C_15  and  N_60
REMARK    8  A    between atoms: N_18  and  C_19
REMARK    9  A    between atoms: C_19  and  C_25
REMARK                            x       y       z     vdW  Elec       q    Type
REMARK                         _______ _______ _______ _____ _____    ______ ____
ROOT
ATOM      1  C   UNL     1       4.322   1.259   3.925  0.00  0.00    +0.162 A 
ATOM      2  C   UNL     1       5.029   1.834   2.884  0.00  0.00    +0.053 A 
ATOM      3  C   UNL     1       4.527   1.802   1.592  0.00  0.00    -0.043 A 
ATOM      4  C   UNL     1       3.317   1.191   1.339  0.00  0.00    -0.049 A 
ATOM      5  C   UNL     1       2.604   0.613   2.379  0.00  0.00    +0.052 A 
ATOM      6  C   UNL     1       3.100   0.644   3.670  0.00  0.00    +0.162 A 
ATOM      7  C   UNL     1       2.734   1.127  -0.049  0.00  0.00    +0.001 C 
ATOM      8  C   UNL     1       4.842   1.956  -0.870  0.00  0.00    -0.072 C 
ATOM      9  C   UNL     1       5.332   2.446   0.493  0.00  0.00    +0.017 C 
ATOM     10  N   UNL     1       3.376   2.132  -0.912  0.00  0.00    +0.393 N 
ATOM     11  H   UNL     1       3.141   3.070  -0.566  0.00  0.00    -0.080 HD
ENDROOT
BRANCH   7  12
ATOM     12  C   UNL     1       1.256   1.415   0.018  0.00  0.00    -0.019 A 
ATOM     13  C   UNL     1       0.216   0.546   0.012  0.00  0.00    +0.010 A 
ATOM     14  C   UNL     1      -1.073   1.043   0.077  0.00  0.00    +0.008 A 
ATOM     15  C   UNL     1      -1.257   2.383   0.157  0.00  0.00    +0.045 A 
ATOM     16  S   UNL     1       0.422   2.990   0.127  0.00  0.00    -0.103 S 
ENDBRANCH   7  12
BRANCH   1  18
ATOM     17  C   UNL     1       6.080   1.941   5.374  0.00  0.00    +0.277 C 
ATOM     18  O   UNL     1       4.819   1.293   5.190  0.00  0.00    -0.491 OA
ENDBRANCH   1  18
BRANCH   6  19
ATOM     19  O   UNL     1       2.396   0.076   4.686  0.00  0.00    -0.491 OA
ATOM     20  C   UNL     1       1.150  -0.536   4.349  0.00  0.00    +0.277 C 
ENDBRANCH   6  19
BRANCH  10  21
ATOM     21  C   UNL     1       2.887   1.994  -2.302  0.00  0.00    +0.020 C 
BRANCH  21  22
ATOM     22  C   UNL     1       3.317   0.670  -2.878  0.00  0.00    +0.198 C 
ATOM     23  O   UNL     1       3.880  -0.143  -2.176  0.00  0.00    -0.278 OA
ATOM     24  N   UNL     1       3.076   0.388  -4.174  0.00  0.00    -0.299 N 
ATOM     25  H   UNL     1       2.625   1.038  -4.736  0.00  0.00    +0.150 HD
BRANCH  24  26
ATOM     26  C   UNL     1       3.494  -0.899  -4.734  0.00  0.00    +0.121 C 
ATOM     27  C   UNL     1       5.011  -1.045  -4.600  0.00  0.00    +0.041 C 
ATOM     28  C   UNL     1       5.447  -2.390  -5.185  0.00  0.00    +0.003 C 
ATOM     29  C   UNL     1       5.057  -2.454  -6.663  0.00  0.00    +0.000 C 
ATOM     30  C   UNL     1       3.540  -2.308  -6.797  0.00  0.00    +0.003 C 
ATOM     31  C   UNL     1       3.103  -0.963  -6.212  0.00  0.00    +0.041 C 
BRANCH  26  32
ATOM     32  C   UNL     1       2.829  -1.991  -4.003  0.00  0.00    +0.088 C 
ATOM     33  N   UNL     1       2.316  -2.833  -3.440  0.00  0.00    -0.194 NA
ENDBRANCH  26  32
ENDBRANCH  24  26
ENDBRANCH  21  22
ENDBRANCH  10  21
TORSDOF 7
