REMARK  Name = ZINC01901112
REMARK  14 active torsions:
REMARK  status: ('A' for Active; 'I' for Inactive)
REMARK    1  A    between atoms: C_1  and  C_2
REMARK    2  A    between atoms: C_2  and  O_3
REMARK    3  A    between atoms: O_3  and  C_4
REMARK    4  A    between atoms: C_4  and  C_6
REMARK    5  A    between atoms: C_7  and  C_34
REMARK    6  A    between atoms: C_8  and  C_29
REMARK    7  A    between atoms: C_10  and  N_11
REMARK    8  A    between atoms: N_11  and  C_12
REMARK    9  A    between atoms: C_12  and  N_14
REMARK   10  A    between atoms: C_15  and  C_17
REMARK   11  A    between atoms: C_20  and  C_22
REMARK   12  A    between atoms: C_29  and  O_31
REMARK   13  A    between atoms: O_31  and  C_32
REMARK   14  A    between atoms: C_32  and  C_33
REMARK                            x       y       z     vdW  Elec       q    Type
REMARK                         _______ _______ _______ _____ _____    ______ ____
ROOT
ATOM      1  N   UNL     1      -2.071   5.679   0.043  0.00  0.00    -0.290 N 
ATOM      2  H   UNL     1      -1.190   6.086   0.041  0.00  0.00    +0.154 HD
ENDROOT
BRANCH   1   7
ATOM      3  C   UNL     1      -3.280   7.871   0.061  0.00  0.00    +0.091 A 
ATOM      4  C   UNL     1      -4.543   8.443   0.070  0.00  0.00    -0.014 A 
ATOM      5  C   UNL     1      -5.623   7.600   0.071  0.00  0.00    +0.102 A 
ATOM      6  S   UNL     1      -4.862   5.988   0.051  0.00  0.00    -0.066 S 
ATOM      7  C   UNL     1      -3.198   6.474   0.053  0.00  0.00    +0.086 A 
ATOM      8  C   UNL     1      -4.722   9.939   0.080  0.00  0.00    +0.046 C 
BRANCH   3   9
ATOM      9  C   UNL     1      -2.071   8.702   0.060  0.00  0.00    +0.342 C 
ATOM     10  O   UNL     1      -1.575   9.053  -0.994  0.00  0.00    -0.245 OA
BRANCH   9  11
ATOM     11  O   UNL     1      -1.510   9.077   1.227  0.00  0.00    -0.461 OA
BRANCH  11  13
ATOM     12  C   UNL     1       0.173  10.222   2.564  0.00  0.00    +0.048 C 
ATOM     13  C   UNL     1      -0.316   9.899   1.150  0.00  0.00    +0.229 C 
ENDBRANCH  11  13
ENDBRANCH   9  11
ENDBRANCH   3   9
BRANCH   5  14
ATOM     14  C   UNL     1      -7.045   7.939   0.079  0.00  0.00    +0.346 C 
ATOM     15  O   UNL     1      -7.393   9.105   0.086  0.00  0.00    -0.244 OA
BRANCH  14  16
ATOM     16  O   UNL     1      -7.972   6.958   0.079  0.00  0.00    -0.461 OA
BRANCH  16  17
ATOM     17  C   UNL     1      -9.343   7.362   0.087  0.00  0.00    +0.229 C 
ATOM     18  C   UNL     1     -10.239   6.122   0.085  0.00  0.00    +0.048 C 
ENDBRANCH  16  17
ENDBRANCH  14  16
ENDBRANCH   5  14
ENDBRANCH   1   7
BRANCH   1  19
ATOM     19  C   UNL     1      -2.193   4.337   0.036  0.00  0.00    +0.142 C 
ATOM     20  S   UNL     1      -3.747   3.618   0.040  0.00  0.00    -0.018 S 
BRANCH  19  21
ATOM     21  N   UNL     1      -1.091   3.560   0.027  0.00  0.00    -0.261 N 
ATOM     22  C   UNL     1      -1.213   2.218   0.020  0.00  0.00    +0.285 C 
ATOM     23  O   UNL     1      -2.318   1.707   0.023  0.00  0.00    -0.266 OA
ATOM     24  H   UNL     1      -0.211   3.967   0.025  0.00  0.00    +0.157 HD
BRANCH  22  25
ATOM     25  C   UNL     1      -0.017   1.374   0.010  0.00  0.00    +0.190 A 
ATOM     26  C   UNL     1       0.002  -0.004   0.002  0.00  0.00    +0.055 A 
ATOM     27  C   UNL     1       1.346  -0.389  -0.013  0.00  0.00    +0.050 A 
ATOM     28  C   UNL     1       2.092   0.755  -0.014  0.00  0.00    +0.136 A 
ATOM     29  O   UNL     1       1.261   1.811  -0.000  0.00  0.00    -0.450 OA
BRANCH  28  30
ATOM     30  C   UNL     1       3.567   0.821  -0.028  0.00  0.00    +0.017 A 
ATOM     31  C   UNL     1       4.321  -0.354  -0.037  0.00  0.00    +0.012 A 
ATOM     32  C   UNL     1       5.699  -0.286  -0.055  0.00  0.00    +0.016 A 
ATOM     33  C   UNL     1       6.334   0.945  -0.055  0.00  0.00    +0.018 A 
ATOM     34  C   UNL     1       5.592   2.114  -0.041  0.00  0.00    +0.016 A 
ATOM     35  C   UNL     1       4.214   2.059  -0.028  0.00  0.00    +0.012 A 
ATOM     36 BR   UNL     1       8.223   1.029  -0.073  0.00  0.00    -0.050 Br
ENDBRANCH  28  30
ENDBRANCH  22  25
ENDBRANCH  19  21
ENDBRANCH   1  19
TORSDOF 11
