REMARK  Name = ZINC09792832
REMARK  11 active torsions:
REMARK  status: ('A' for Active; 'I' for Inactive)
REMARK    1  A    between atoms: C_1  and  C_2
REMARK    2  A    between atoms: C_4  and  C_32
REMARK    3  A    between atoms: C_5  and  N_9
REMARK    4  A    between atoms: C_6  and  C_8
REMARK    5  A    between atoms: C_10  and  C_12
REMARK    6  A    between atoms: C_12  and  N_13
REMARK    7  A    between atoms: N_16  and  C_17
REMARK    8  A    between atoms: C_17  and  C_19
REMARK    9  A    between atoms: C_17  and  C_29
REMARK   10  A    between atoms: C_29  and  C_30
REMARK   11  A    between atoms: C_29  and  C_31
REMARK                            x       y       z     vdW  Elec       q    Type
REMARK                         _______ _______ _______ _____ _____    ______ ____
ROOT
ATOM      1  N   UNL     1      -6.037  -0.981  -3.572  0.00  0.00    -0.291 N 
ATOM      2  C   UNL     1      -5.084  -1.626  -2.870  0.00  0.00    +0.300 C 
ATOM      3  O   UNL     1      -5.398  -2.477  -2.060  0.00  0.00    -0.253 OA
ATOM      4  N   UNL     1      -3.785  -1.328  -3.065  0.00  0.00    -0.292 N 
ATOM      5  H   UNL     1      -5.787  -0.302  -4.218  0.00  0.00    +0.151 HD
ATOM      6  H   UNL     1      -3.535  -0.649  -3.711  0.00  0.00    +0.151 HD
ENDROOT
BRANCH   1   7
ATOM      7  C   UNL     1      -7.450  -1.305  -3.359  0.00  0.00    +0.202 C 
BRANCH   7   9
ATOM      8  N   UNL     1      -9.644  -0.575  -4.237  0.00  0.00    -0.284 N 
ATOM      9  C   UNL     1      -8.302  -0.449  -4.260  0.00  0.00    +0.234 C 
ATOM     10  O   UNL     1      -7.781   0.353  -5.006  0.00  0.00    -0.274 OA
ATOM     11  H   UNL     1     -10.057  -1.263  -3.693  0.00  0.00    +0.155 HD
BRANCH   8  16
ATOM     12  C   UNL     1     -12.875   2.925  -7.319  0.00  0.00    +0.044 C 
ATOM     13  C   UNL     1     -12.017   1.996  -6.500  0.00  0.00    -0.050 A 
ATOM     14  C   UNL     1     -11.059   2.513  -5.646  0.00  0.00    +0.008 A 
ATOM     15  C   UNL     1     -10.271   1.663  -4.895  0.00  0.00    -0.029 A 
ATOM     16  C   UNL     1     -10.441   0.289  -4.997  0.00  0.00    +0.039 A 
ATOM     17  C   UNL     1     -11.399  -0.228  -5.859  0.00  0.00    -0.029 A 
ATOM     18  C   UNL     1     -12.188   0.627  -6.603  0.00  0.00    +0.008 A 
ATOM     19  C   UNL     1     -11.583  -1.719  -5.977  0.00  0.00    +0.045 C 
ATOM     20  C   UNL     1      -9.228   2.227  -3.965  0.00  0.00    +0.045 C 
ENDBRANCH   8  16
ENDBRANCH   7   9
ENDBRANCH   1   7
BRANCH   4  21
ATOM     21  C   UNL     1      -2.749  -2.029  -2.302  0.00  0.00    +0.107 C 
BRANCH  21  22
ATOM     22  C   UNL     1      -1.454  -2.004  -3.072  0.00  0.00    -0.023 A 
ATOM     23  C   UNL     1      -1.077  -0.861  -3.751  0.00  0.00    +0.009 A 
ATOM     24  C   UNL     1       0.108  -0.836  -4.462  0.00  0.00    +0.050 A 
ATOM     25  C   UNL     1       0.925  -1.956  -4.490  0.00  0.00    +0.162 A 
ATOM     26  C   UNL     1       0.548  -3.104  -3.805  0.00  0.00    +0.162 A 
ATOM     27  C   UNL     1      -0.645  -3.124  -3.097  0.00  0.00    +0.055 A 
ATOM     28  O   UNL     1       1.335  -4.214  -3.819  0.00  0.00    -0.485 OA
ATOM     29  C   UNL     1       2.334  -4.282  -4.842  0.00  0.00    +0.270 C 
ATOM     30  C   UNL     1       3.056  -2.929  -4.898  0.00  0.00    +0.270 C 
ATOM     31  O   UNL     1       2.089  -1.916  -5.195  0.00  0.00    -0.485 OA
ENDBRANCH  21  22
BRANCH  21  32
ATOM     32  C   UNL     1      -2.554  -1.337  -0.952  0.00  0.00    +0.008 C 
ATOM     33  C   UNL     1      -3.869  -1.362  -0.170  0.00  0.00    +0.009 C 
ATOM     34  C   UNL     1      -1.472  -2.069  -0.155  0.00  0.00    +0.009 C 
ENDBRANCH  21  32
ENDBRANCH   4  21
TORSDOF 6
