REMARK  Name = ZINC60082630
REMARK  12 active torsions:
REMARK  status: ('A' for Active; 'I' for Inactive)
REMARK    1  A    between atoms: C_1  and  C_2
REMARK    2  A    between atoms: C_2  and  C_3
REMARK    3  A    between atoms: C_2  and  C_4
REMARK    4  A    between atoms: C_4  and  C_5
REMARK    5  A    between atoms: C_5  and  C_7
REMARK    6  A    between atoms: C_5  and  N_25
REMARK    7  A    between atoms: N_9  and  C_10
REMARK    8  A    between atoms: C_10  and  C_11
REMARK    9  A    between atoms: C_11  and  C_13
REMARK   10  A    between atoms: C_11  and  N_20
REMARK   11  A    between atoms: C_26  and  O_28
REMARK   12  A    between atoms: O_28  and  C_29
REMARK                            x       y       z     vdW  Elec       q    Type
REMARK                         _______ _______ _______ _____ _____    ______ ____
ROOT
ATOM      1  C   UNL     1      -3.549  -1.387  -1.298  0.00  0.00    +0.233 C 
ATOM      2  O   UNL     1      -4.218  -2.305  -0.873  0.00  0.00    -0.274 OA
ATOM      3  N   UNL     1      -4.130  -0.401  -2.010  0.00  0.00    -0.315 N 
ATOM      4  H   UNL     1      -3.595   0.333  -2.350  0.00  0.00    +0.149 HD
ENDROOT
BRANCH   1   5
ATOM      5  C   UNL     1      -2.066  -1.349  -1.030  0.00  0.00    +0.162 C 
BRANCH   5   6
ATOM      6  N   UNL     1      -1.676  -2.542  -0.275  0.00  0.00    -0.270 N 
ATOM      7  C   UNL     1      -0.405  -2.989  -0.331  0.00  0.00    +0.401 C 
ATOM      8  O   UNL     1       0.436  -2.354  -0.935  0.00  0.00    -0.226 OA
ATOM      9  H   UNL     1      -2.331  -3.011   0.265  0.00  0.00    +0.153 HD
BRANCH   7  10
ATOM     10  O   UNL     1      -0.069  -4.139   0.282  0.00  0.00    -0.454 OA
ATOM     11  C   UNL     1       1.296  -4.553   0.182  0.00  0.00    +0.282 C 
ENDBRANCH   7  10
ENDBRANCH   5   6
BRANCH   5  12
ATOM     12  C   UNL     1      -1.726  -0.098  -0.218  0.00  0.00    +0.035 C 
BRANCH  12  14
ATOM     13  C   UNL     1      -1.859   0.939   2.051  0.00  0.00    +0.007 C 
ATOM     14  C   UNL     1      -2.378  -0.194   1.163  0.00  0.00    -0.015 C 
ATOM     15  C   UNL     1      -3.896  -0.076   1.020  0.00  0.00    +0.007 C 
ENDBRANCH  12  14
ENDBRANCH   5  12
ENDBRANCH   1   5
BRANCH   3  16
ATOM     16  C   UNL     1      -5.572  -0.438  -2.270  0.00  0.00    +0.093 C 
BRANCH  16  17
ATOM     17  C   UNL     1      -5.951   0.715  -3.202  0.00  0.00    -0.020 C 
BRANCH  17  18
ATOM     18  C   UNL     1      -5.263   0.534  -4.530  0.00  0.00    -0.058 A 
ATOM     19  C   UNL     1      -5.784  -0.341  -5.465  0.00  0.00    +0.002 A 
ATOM     20  C   UNL     1      -5.153  -0.506  -6.684  0.00  0.00    +0.002 A 
ATOM     21  C   UNL     1      -4.001   0.202  -6.968  0.00  0.00    +0.020 A 
ATOM     22  C   UNL     1      -3.479   1.078  -6.033  0.00  0.00    +0.041 A 
ATOM     23  C   UNL     1      -4.114   1.248  -4.816  0.00  0.00    +0.022 A 
ATOM     24 CL   UNL     1      -2.032   1.968  -6.389  0.00  0.00    -0.084 Cl
ENDBRANCH  17  18
BRANCH  17  25
ATOM     25  N   UNL     1      -7.407   0.724  -3.402  0.00  0.00    +0.385 N 
ATOM     26  C   UNL     1      -8.098   1.016  -2.120  0.00  0.00    -0.078 C 
ATOM     27  C   UNL     1      -9.483   1.540  -2.576  0.00  0.00    -0.020 C 
ATOM     28  C   UNL     1      -9.143   2.364  -3.839  0.00  0.00    -0.020 C 
ATOM     29  C   UNL     1      -7.788   1.815  -4.324  0.00  0.00    -0.078 C 
ATOM     30  H   UNL     1      -7.713  -0.165  -3.768  0.00  0.00    -0.081 HD
ENDBRANCH  17  25
ENDBRANCH  16  17
ENDBRANCH   3  16
TORSDOF 9
