REMARK  Name = ZINC65283975
REMARK  8 active torsions:
REMARK  status: ('A' for Active; 'I' for Inactive)
REMARK    1  A    between atoms: C_1  and  C_2
REMARK    2  A    between atoms: C_2  and  C_3
REMARK    3  A    between atoms: C_6  and  N_12
REMARK    4  A    between atoms: N_12  and  S_13
REMARK    5  A    between atoms: S_13  and  C_16
REMARK    6  A    between atoms: C_17  and  C_23
REMARK    7  A    between atoms: N_19  and  C_22
REMARK    8  A    between atoms: C_20  and  C_21
REMARK                            x       y       z     vdW  Elec       q    Type
REMARK                         _______ _______ _______ _____ _____    ______ ____
ROOT
ATOM      1  N   UNL     1      -4.408  -1.642   2.899  0.00  0.00    -0.094 NA
ENDROOT
BRANCH   1   5
ATOM      2  C   UNL     1      -1.412  -0.526   0.013  0.00  0.00    +0.152 A 
ATOM      3  N   UNL     1      -2.120  -0.791   1.101  0.00  0.00    -0.209 NA
ATOM      4  C   UNL     1      -3.323  -1.234   0.754  0.00  0.00    +0.180 A 
ATOM      5  C   UNL     1      -4.446  -1.650   1.503  0.00  0.00    +0.118 A 
ATOM      6  C   UNL     1      -5.571  -2.062   0.843  0.00  0.00    +0.032 A 
ATOM      7  C   UNL     1      -5.589  -2.064  -0.559  0.00  0.00    +0.022 A 
ATOM      8  C   UNL     1      -4.502  -1.661  -1.255  0.00  0.00    +0.115 A 
ATOM      9  N   UNL     1      -3.377  -1.248  -0.609  0.00  0.00    -0.218 N 
ATOM     10  N   UNL     1      -2.132  -0.781  -1.055  0.00  0.00    -0.150 NA
BRANCH   2  12
ATOM     11  C   UNL     1      -0.019   1.526   0.010  0.00  0.00    +0.012 C 
ATOM     12  C   UNL     1       0.002  -0.004   0.002  0.00  0.00    +0.075 C 
ENDBRANCH   2  12
ENDBRANCH   1   5
BRANCH   1  13
ATOM     13  S   UNL     1      -5.731  -2.132   3.766  0.00  0.00    +0.095 S 
ATOM     14  O   UNL     1      -6.757  -1.182   3.514  0.00  0.00    -0.148 OA
ATOM     15  O   UNL     1      -5.896  -3.519   3.505  0.00  0.00    -0.148 OA
BRANCH  13  16
ATOM     16  C   UNL     1      -5.318  -1.987   5.473  0.00  0.00    +0.153 A 
ATOM     17  C   UNL     1      -4.729  -2.979   6.264  0.00  0.00    +0.087 A 
ATOM     18  N   UNL     1      -4.577  -2.500   7.473  0.00  0.00    -0.174 NA
ATOM     19  N   UNL     1      -5.066  -1.188   7.488  0.00  0.00    -0.269 N 
ATOM     20  C   UNL     1      -5.510  -0.895   6.248  0.00  0.00    +0.063 A 
ATOM     21  C   UNL     1      -6.114   0.413   5.807  0.00  0.00    +0.067 C 
ATOM     22  C   UNL     1      -5.086  -0.289   8.646  0.00  0.00    +0.172 C 
ATOM     23  C   UNL     1      -4.337  -4.359   5.805  0.00  0.00    +0.069 C 
ENDBRANCH  13  16
ENDBRANCH   1  13
TORSDOF 4
