REMARK  Name = ZINC49227195
REMARK  11 active torsions:
REMARK  status: ('A' for Active; 'I' for Inactive)
REMARK    1  A    between atoms: C_1  and  C_2
REMARK    2  A    between atoms: C_2  and  C_4
REMARK    3  A    between atoms: C_2  and  N_8
REMARK    4  A    between atoms: C_4  and  C_5
REMARK    5  A    between atoms: C_4  and  C_6
REMARK    6  A    between atoms: C_4  and  C_7
REMARK    7  A    between atoms: N_8  and  C_9
REMARK    8  A    between atoms: C_10  and  C_12
REMARK    9  A    between atoms: C_14  and  C_18
REMARK   10  A    between atoms: C_18  and  C_19
REMARK   11  A    between atoms: C_18  and  C_20
REMARK                            x       y       z     vdW  Elec       q    Type
REMARK                         _______ _______ _______ _____ _____    ______ ____
ROOT
ATOM      1  N   UNL     1       0.499  -0.062  -0.768  0.00  0.00    -0.296 N 
ATOM      2  C   UNL     1       1.947   0.082  -0.934  0.00  0.00    +0.132 C 
ATOM      3  C   UNL     1      -0.230  -0.684  -1.716  0.00  0.00    +0.267 C 
ATOM      4  O   UNL     1      -1.442  -0.716  -1.627  0.00  0.00    -0.268 OA
ENDROOT
BRANCH   3   5
ATOM      5  C   UNL     1       0.444  -1.326  -2.863  0.00  0.00    +0.147 A 
ATOM      6  C   UNL     1      -0.183  -1.912  -3.988  0.00  0.00    +0.057 A 
ATOM      7  C   UNL     1       0.826  -2.368  -4.767  0.00  0.00    +0.039 A 
ATOM      8  N   UNL     1       1.983  -2.069  -4.139  0.00  0.00    -0.281 N 
ATOM      9  H   UNL     1       2.868  -2.281  -4.476  0.00  0.00    +0.189 HD
ATOM     10  N   UNL     1       1.744  -1.458  -3.035  0.00  0.00    -0.169 NA
BRANCH   7  11
ATOM     11  C   UNL     1       0.683  -3.077  -6.089  0.00  0.00    +0.031 C 
ATOM     12  C   UNL     1       1.835  -2.674  -7.011  0.00  0.00    +0.014 C 
ATOM     13  C   UNL     1       0.716  -4.590  -5.862  0.00  0.00    +0.014 C 
ENDBRANCH   7  11
ENDBRANCH   3   5
BRANCH   1  15
ATOM     14  C   UNL     1       0.222   1.942   0.607  0.00  0.00    +0.028 C 
ATOM     15  C   UNL     1      -0.158   0.471   0.429  0.00  0.00    +0.078 C 
BRANCH  15  16
ATOM     16  C   UNL     1       0.295  -0.325   1.655  0.00  0.00    -0.019 C 
ATOM     17  C   UNL     1      -0.504   0.127   2.879  0.00  0.00    +0.012 C 
ATOM     18  C   UNL     1       0.057  -1.816   1.412  0.00  0.00    +0.012 C 
ATOM     19  C   UNL     1       1.785  -0.079   1.900  0.00  0.00    +0.012 C 
ENDBRANCH  15  16
ENDBRANCH   1  15
TORSDOF 4
