REMARK  Name = ZINC39696160
REMARK  9 active torsions:
REMARK  status: ('A' for Active; 'I' for Inactive)
REMARK    1  A    between atoms: C_1  and  C_2
REMARK    2  A    between atoms: C_2  and  C_3
REMARK    3  A    between atoms: C_6  and  C_9
REMARK    4  A    between atoms: C_9  and  C_11
REMARK    5  A    between atoms: C_9  and  N_12
REMARK    6  A    between atoms: C_13  and  C_15
REMARK    7  A    between atoms: C_26  and  C_28
REMARK    8  A    between atoms: C_30  and  O_35
REMARK    9  A    between atoms: O_35  and  C_36
REMARK                            x       y       z     vdW  Elec       q    Type
REMARK                         _______ _______ _______ _____ _____    ______ ____
ROOT
ATOM      1  C   UNL     1       4.676  -4.661  -5.319  0.00  0.00    +0.100 C 
ATOM      2  C   UNL     1       4.413  -5.397  -3.986  0.00  0.00    +0.121 C 
ATOM      3  N   UNL     1       3.931  -6.739  -4.388  0.00  0.00    -0.296 N 
ATOM      4  C   UNL     1       4.767  -7.096  -5.559  0.00  0.00    +0.115 C 
ATOM      5  C   UNL     1       4.911  -5.779  -6.348  0.00  0.00    -0.004 C 
ATOM      6  C   UNL     1       6.314  -5.668  -6.938  0.00  0.00    -0.010 C 
ATOM      7  C   UNL     1       6.503  -6.754  -8.001  0.00  0.00    -0.082 C 
ATOM      8  N   UNL     1       5.493  -6.593  -9.054  0.00  0.00    +0.379 N 
ATOM      9  C   UNL     1       4.151  -6.794  -8.495  0.00  0.00    -0.082 C 
ATOM     10  C   UNL     1       3.862  -5.710  -7.453  0.00  0.00    -0.010 C 
ATOM     11  C   UNL     1       2.953  -7.471  -3.818  0.00  0.00    +0.248 C 
ATOM     12  O   UNL     1       2.736  -8.602  -4.206  0.00  0.00    -0.270 OA
ATOM     13  H   UNL     1       5.559  -5.664  -9.442  0.00  0.00    -0.086 HD
ATOM     14  H   UNL     1       5.658  -7.271  -9.782  0.00  0.00    -0.086 HD
ENDROOT
BRANCH  11  15
ATOM     15  C   UNL     1       2.144  -6.897  -2.722  0.00  0.00    +0.054 A 
ATOM     16  C   UNL     1       2.735  -6.044  -1.788  0.00  0.00    +0.059 A 
ATOM     17  C   UNL     1       1.971  -5.510  -0.765  0.00  0.00    +0.121 A 
ATOM     18  C   UNL     1       0.622  -5.823  -0.668  0.00  0.00    +0.047 A 
ATOM     19  C   UNL     1       0.034  -6.667  -1.591  0.00  0.00    +0.019 A 
ATOM     20  C   UNL     1       0.785  -7.202  -2.620  0.00  0.00    +0.030 A 
ATOM     21 BR   UNL     1      -0.025  -8.351  -3.885  0.00  0.00    -0.050 Br
BRANCH  17  22
ATOM     22  O   UNL     1       2.543  -4.680   0.147  0.00  0.00    -0.495 OA
ATOM     23  C   UNL     1       1.697  -4.165   1.176  0.00  0.00    +0.277 C 
ENDBRANCH  17  22
ENDBRANCH  11  15
BRANCH   1  25
ATOM     24  N   UNL     1       3.635  -2.732  -6.465  0.00  0.00    -0.308 N 
ATOM     25  C   UNL     1       3.476  -3.835  -5.707  0.00  0.00    +0.219 C 
ATOM     26  O   UNL     1       2.369  -4.163  -5.337  0.00  0.00    -0.275 OA
ATOM     27  H   UNL     1       4.521  -2.470  -6.761  0.00  0.00    +0.149 HD
BRANCH  24  28
ATOM     28  C   UNL     1       2.469  -1.929  -6.842  0.00  0.00    +0.100 C 
ATOM     29  C   UNL     1       1.827  -2.521  -8.098  0.00  0.00    +0.033 C 
BRANCH  28  33
ATOM     30  C   UNL     1       3.701   2.085  -7.628  0.00  0.00    -0.048 A 
ATOM     31  C   UNL     1       2.519   1.845  -6.953  0.00  0.00    +0.004 A 
ATOM     32  C   UNL     1       2.120   0.546  -6.699  0.00  0.00    +0.006 A 
ATOM     33  C   UNL     1       2.904  -0.513  -7.120  0.00  0.00    -0.027 A 
ATOM     34  C   UNL     1       4.085  -0.272  -7.796  0.00  0.00    +0.006 A 
ATOM     35  C   UNL     1       4.482   1.027  -8.054  0.00  0.00    +0.004 A 
BRANCH  30  37
ATOM     36  C   UNL     1       3.567   3.956  -9.251  0.00  0.00    +0.009 C 
ATOM     37  C   UNL     1       4.136   3.501  -7.905  0.00  0.00    +0.032 C 
ENDBRANCH  30  37
ENDBRANCH  28  33
ENDBRANCH  24  28
ENDBRANCH   1  25
TORSDOF 6
