REMARK  Name = ZINC38976546
REMARK  5 active torsions:
REMARK  status: ('A' for Active; 'I' for Inactive)
REMARK    1  A    between atoms: C_4  and  C_7
REMARK    2  A    between atoms: C_7  and  N_8
REMARK    3  A    between atoms: N_8  and  C_9
REMARK    4  A    between atoms: N_12  and  S_13
REMARK    5  A    between atoms: S_13  and  C_16
REMARK                            x       y       z     vdW  Elec       q    Type
REMARK                         _______ _______ _______ _____ _____    ______ ____
ROOT
ATOM      1  C   UNL     1       5.435  -1.670   1.364  0.00  0.00    +0.220 C 
ATOM      2  C   UNL     1       6.356  -0.939   2.313  0.00  0.00    +0.188 C 
ATOM      3  N   UNL     1       6.641   0.316   2.121  0.00  0.00    -0.110 NA
ATOM      4  N   UNL     1       6.876  -1.603   3.358  0.00  0.00    -0.226 NA
ATOM      5  C   UNL     1       6.602  -2.873   3.575  0.00  0.00    +0.089 A 
ATOM      6  C   UNL     1       7.168  -3.543   4.688  0.00  0.00    +0.030 A 
ATOM      7  C   UNL     1       6.891  -4.845   4.915  0.00  0.00    +0.002 A 
ATOM      8  C   UNL     1       6.047  -5.598   4.082  0.00  0.00    +0.002 A 
ATOM      9  C   UNL     1       5.456  -5.058   2.994  0.00  0.00    +0.027 A 
ATOM     10  C   UNL     1       5.706  -3.644   2.678  0.00  0.00    +0.063 A 
ATOM     11  N   UNL     1       5.152  -3.088   1.638  0.00  0.00    -0.362 N 
ATOM     12  H   UNL     1       4.566  -3.598   1.057  0.00  0.00    +0.162 HD
ENDROOT
BRANCH   3  13
ATOM     13  S   UNL     1       7.652   1.105   3.169  0.00  0.00    +0.100 S 
ATOM     14  O   UNL     1       6.976   1.166   4.418  0.00  0.00    -0.146 OA
ATOM     15  O   UNL     1       8.934   0.507   3.025  0.00  0.00    -0.146 OA
BRANCH  13  16
ATOM     16  C   UNL     1       7.803   2.764   2.597  0.00  0.00    +0.113 A 
ATOM     17  C   UNL     1       8.800   3.097   1.698  0.00  0.00    +0.032 A 
ATOM     18  C   UNL     1       8.919   4.398   1.248  0.00  0.00    +0.040 A 
ATOM     19  C   UNL     1       8.040   5.369   1.698  0.00  0.00    +0.124 A 
ATOM     20  C   UNL     1       7.042   5.034   2.597  0.00  0.00    +0.040 A 
ATOM     21  C   UNL     1       6.921   3.731   3.042  0.00  0.00    +0.032 A 
ATOM     22  F   UNL     1       8.155   6.641   1.259  0.00  0.00    -0.205 F 
ENDBRANCH  13  16
ENDBRANCH   3  13
BRANCH   1  23
ATOM     23  N   UNL     1       4.153  -0.953   1.342  0.00  0.00    -0.287 NA
ATOM     24  H   UNL     1       4.212  -0.090   1.862  0.00  0.00    +0.125 HD
BRANCH  23  25
ATOM     25  C   UNL     1       3.711  -0.707  -0.038  0.00  0.00    +0.118 C 
BRANCH  25  29
ATOM     26  C   UNL     1      -0.017   1.378   0.010  0.00  0.00    +0.000 A 
ATOM     27  C   UNL     1       1.171   2.086   0.002  0.00  0.00    +0.000 A 
ATOM     28  C   UNL     1       2.377   1.411  -0.013  0.00  0.00    +0.005 A 
ATOM     29  C   UNL     1       2.396   0.029  -0.020  0.00  0.00    -0.034 A 
ATOM     30  C   UNL     1       1.208  -0.679  -0.012  0.00  0.00    +0.005 A 
ATOM     31  C   UNL     1       0.002  -0.004   0.002  0.00  0.00    +0.000 A 
ENDBRANCH  25  29
ENDBRANCH  23  25
ENDBRANCH   1  23
TORSDOF 5
