REMARK  Name = ZINC36052086
REMARK  8 active torsions:
REMARK  status: ('A' for Active; 'I' for Inactive)
REMARK    1  A    between atoms: C_1  and  C_2
REMARK    2  A    between atoms: C_5  and  N_9
REMARK    3  A    between atoms: C_11  and  C_32
REMARK    4  A    between atoms: C_15  and  C_17
REMARK    5  A    between atoms: C_17  and  N_18
REMARK    6  A    between atoms: N_18  and  C_19
REMARK    7  A    between atoms: C_19  and  C_20
REMARK    8  A    between atoms: C_25  and  C_27
REMARK                            x       y       z     vdW  Elec       q    Type
REMARK                         _______ _______ _______ _____ _____    ______ ____
ROOT
ATOM      1  N   UNL     1       0.536  -3.517  -0.431  0.00  0.00    -0.287 N 
ATOM      2  C   UNL     1      -0.447  -4.221  -1.084  0.00  0.00    +0.122 A 
ATOM      3  C   UNL     1      -0.340  -5.512  -0.679  0.00  0.00    +0.091 A 
ATOM      4  N   UNL     1       0.682  -5.591   0.199  0.00  0.00    -0.214 NA
ATOM      5  C   UNL     1       1.216  -4.405   0.350  0.00  0.00    +0.207 A 
ATOM      6  N   UNL     1       2.293  -4.100   1.171  0.00  0.00    -0.254 N 
ATOM      7  C   UNL     1       2.882  -5.071   1.897  0.00  0.00    +0.237 C 
ATOM      8  O   UNL     1       2.472  -6.210   1.833  0.00  0.00    -0.274 OA
ATOM      9  H   UNL     1       2.621  -3.189   1.223  0.00  0.00    +0.158 HD
ENDROOT
BRANCH   1  14
ATOM     10  C   UNL     1       1.584   2.041  -0.917  0.00  0.00    +0.047 C 
ATOM     11  C   UNL     1       1.306   0.566  -0.787  0.00  0.00    -0.015 A 
ATOM     12  C   UNL     1       1.173  -0.214  -1.922  0.00  0.00    +0.008 A 
ATOM     13  C   UNL     1       0.918  -1.566  -1.806  0.00  0.00    +0.026 A 
ATOM     14  C   UNL     1       0.795  -2.145  -0.550  0.00  0.00    +0.052 A 
ATOM     15  C   UNL     1       0.929  -1.362   0.588  0.00  0.00    +0.064 A 
ATOM     16  C   UNL     1       1.189  -0.008   0.468  0.00  0.00    +0.128 A 
ATOM     17  F   UNL     1       1.324   0.755   1.574  0.00  0.00    -0.205 F 
ENDBRANCH   1  14
BRANCH   3  18
ATOM     18  C   UNL     1      -1.198  -6.638  -1.123  0.00  0.00    +0.002 A 
ATOM     19  C   UNL     1      -2.221  -6.417  -2.044  0.00  0.00    +0.010 A 
ATOM     20  C   UNL     1      -3.015  -7.469  -2.453  0.00  0.00    +0.001 A 
ATOM     21  C   UNL     1      -2.798  -8.739  -1.952  0.00  0.00    +0.000 A 
ATOM     22  C   UNL     1      -1.784  -8.964  -1.038  0.00  0.00    +0.001 A 
ATOM     23  C   UNL     1      -0.979  -7.921  -0.626  0.00  0.00    +0.010 A 
ENDBRANCH   3  18
BRANCH   7  24
ATOM     24  C   UNL     1       4.052  -4.740   2.789  0.00  0.00    +0.204 C 
BRANCH  24  25
ATOM     25  N   UNL     1       4.509  -5.956   3.465  0.00  0.00    -0.281 N 
ATOM     26  C   UNL     1       3.927  -6.347   4.616  0.00  0.00    +0.254 C 
ATOM     27  O   UNL     1       4.371  -7.300   5.230  0.00  0.00    -0.269 OA
BRANCH  26  28
ATOM     28  C   UNL     1       2.760  -5.624   5.130  0.00  0.00    +0.074 A 
ATOM     29  C   UNL     1       2.093  -5.785   6.335  0.00  0.00    +0.021 A 
ATOM     30  C   UNL     1       1.020  -4.951   6.539  0.00  0.00    +0.008 A 
ATOM     31  C   UNL     1       0.693  -4.051   5.579  0.00  0.00    +0.046 A 
ATOM     32  S   UNL     1       1.835  -4.302   4.372  0.00  0.00    -0.092 S 
ENDBRANCH  26  28
BRANCH  25  33
ATOM     33  C   UNL     1       5.599  -6.748   2.890  0.00  0.00    +0.182 C 
BRANCH  33  34
ATOM     34  C   UNL     1       6.921  -6.203   3.365  0.00  0.00    +0.122 A 
ATOM     35  C   UNL     1       7.626  -6.655   4.418  0.00  0.00    +0.046 A 
ATOM     36  C   UNL     1       8.793  -5.861   4.501  0.00  0.00    +0.041 A 
ATOM     37  C   UNL     1       8.731  -4.971   3.494  0.00  0.00    +0.195 A 
ATOM     38  O   UNL     1       7.598  -5.186   2.806  0.00  0.00    -0.466 OA
ENDBRANCH  33  34
ENDBRANCH  25  33
ENDBRANCH  24  25
ENDBRANCH   7  24
TORSDOF 7
