REMARK  Name = ZINC14544913
REMARK  6 active torsions:
REMARK  status: ('A' for Active; 'I' for Inactive)
REMARK    1  A    between atoms: C_1  and  C_2
REMARK    2  A    between atoms: C_2  and  C_3
REMARK    3  A    between atoms: C_2  and  C_4
REMARK    4  A    between atoms: C_2  and  N_5
REMARK    5  A    between atoms: C_6  and  C_8
REMARK    6  A    between atoms: C_15  and  C_24
REMARK                            x       y       z     vdW  Elec       q    Type
REMARK                         _______ _______ _______ _____ _____    ______ ____
ROOT
ATOM      1  C   UNL     1       6.421   3.877   0.493  0.00  0.00    +0.058 A 
ATOM      2  C   UNL     1       7.370   3.139  -0.215  0.00  0.00    +0.015 A 
ATOM      3  C   UNL     1       7.191   2.915  -1.562  0.00  0.00    +0.001 A 
ATOM      4  C   UNL     1       6.078   3.417  -2.211  0.00  0.00    +0.006 A 
ATOM      5  C   UNL     1       5.122   4.152  -1.524  0.00  0.00    -0.019 A 
ATOM      6  C   UNL     1       5.288   4.388  -0.171  0.00  0.00    +0.044 A 
ATOM      7  N   UNL     1       4.373   5.119   0.572  0.00  0.00    -0.336 N 
ATOM      8  C   UNL     1       3.027   5.065   0.000  0.00  0.00    +0.107 C 
ATOM      9  C   UNL     1       3.063   5.595  -1.435  0.00  0.00    +0.029 C 
ATOM     10  C   UNL     1       3.936   4.655  -2.294  0.00  0.00    +0.049 C 
ATOM     11  C   UNL     1       3.011   3.515  -2.650  0.00  0.00    -0.023 C 
ATOM     12  C   UNL     1       1.760   3.883  -2.527  0.00  0.00    -0.030 C 
ATOM     13  C   UNL     1       1.673   5.328  -2.077  0.00  0.00    +0.033 C 
ATOM     14  H   UNL     1       4.680   6.073   0.686  0.00  0.00    +0.147 HD
ENDROOT
BRANCH   8  15
ATOM     15  C   UNL     1       2.539   3.639  -0.003  0.00  0.00    -0.002 A 
ATOM     16  C   UNL     1       3.300   2.535  -0.061  0.00  0.00    +0.089 A 
ATOM     17  N   UNL     1       2.506   1.420  -0.043  0.00  0.00    -0.360 N 
ATOM     18  H   UNL     1       2.829   0.506  -0.075  0.00  0.00    +0.165 HD
ATOM     19  C   UNL     1       1.182   1.790   0.029  0.00  0.00    +0.047 A 
ATOM     20  C   UNL     1       1.144   3.196   0.057  0.00  0.00    +0.005 A 
ATOM     21  C   UNL     1      -0.082   3.858   0.130  0.00  0.00    +0.010 A 
ATOM     22  C   UNL     1      -1.242   3.136   0.173  0.00  0.00    +0.001 A 
ATOM     23  C   UNL     1      -1.210   1.749   0.140  0.00  0.00    +0.002 A 
ATOM     24  C   UNL     1      -0.011   1.075   0.074  0.00  0.00    +0.026 A 
ENDBRANCH   8  15
BRANCH   1  26
ATOM     25  N   UNL     1       7.687   3.634   2.570  0.00  0.00    -0.307 N 
ATOM     26  C   UNL     1       6.604   4.123   1.935  0.00  0.00    +0.246 C 
ATOM     27  O   UNL     1       5.777   4.767   2.552  0.00  0.00    -0.270 OA
ATOM     28  H   UNL     1       8.347   3.120   2.078  0.00  0.00    +0.150 HD
BRANCH  25  30
ATOM     29  C   UNL     1       6.689   3.284   4.775  0.00  0.00    +0.031 C 
ATOM     30  C   UNL     1       7.869   3.878   4.003  0.00  0.00    +0.026 C 
ATOM     31  C   UNL     1       9.168   3.219   4.472  0.00  0.00    +0.031 C 
ATOM     32  C   UNL     1       7.940   5.385   4.259  0.00  0.00    +0.031 C 
ENDBRANCH  25  30
ENDBRANCH   1  26
TORSDOF 3
