REMARK  Name = ZINC60164705
REMARK  12 active torsions:
REMARK  status: ('A' for Active; 'I' for Inactive)
REMARK    1  A    between atoms: C_1  and  C_2
REMARK    2  A    between atoms: C_2  and  C_3
REMARK    3  A    between atoms: C_3  and  C_5
REMARK    4  A    between atoms: C_3  and  N_6
REMARK    5  A    between atoms: C_7  and  C_9
REMARK    6  A    between atoms: C_9  and  C_11
REMARK    7  A    between atoms: C_9  and  N_12
REMARK    8  A    between atoms: C_13  and  C_15
REMARK    9  A    between atoms: C_15  and  N_16
REMARK   10  A    between atoms: C_19  and  C_23
REMARK   11  A    between atoms: C_19  and  C_25
REMARK   12  A    between atoms: C_23  and  C_24
REMARK                            x       y       z     vdW  Elec       q    Type
REMARK                         _______ _______ _______ _____ _____    ______ ____
ROOT
ATOM      1  N   UNL     1       0.496   0.118   9.668  0.00  0.00    -0.215 N 
ATOM      2  C   UNL     1      -0.088   1.095  10.389  0.00  0.00    +0.251 C 
ATOM      3  O   UNL     1      -0.094   2.283  10.144  0.00  0.00    -0.272 OA
ATOM      4  C   UNL     1      -0.738   0.402  11.570  0.00  0.00    +0.138 C 
ATOM      5  N   UNL     1      -0.414  -1.020  11.358  0.00  0.00    -0.281 N 
ATOM      6  C   UNL     1       0.303  -1.085  10.222  0.00  0.00    +0.310 C 
ATOM      7  O   UNL     1       0.731  -2.121   9.752  0.00  0.00    -0.252 OA
ATOM      8  H   UNL     1      -0.670  -1.764  11.925  0.00  0.00    +0.152 HD
ENDROOT
BRANCH   4   9
ATOM      9  C   UNL     1      -2.230   0.614  11.555  0.00  0.00    -0.015 A 
ATOM     10  C   UNL     1      -2.781   1.698  12.211  0.00  0.00    +0.006 A 
ATOM     11  C   UNL     1      -4.149   1.892  12.197  0.00  0.00    +0.000 A 
ATOM     12  C   UNL     1      -4.967   1.002  11.526  0.00  0.00    +0.000 A 
ATOM     13  C   UNL     1      -4.416  -0.082  10.868  0.00  0.00    +0.000 A 
ATOM     14  C   UNL     1      -3.047  -0.273  10.879  0.00  0.00    +0.006 A 
ENDBRANCH   4   9
BRANCH   4  15
ATOM     15  C   UNL     1      -0.136   0.900  12.885  0.00  0.00    +0.037 C 
ATOM     16  C   UNL     1       1.369   0.623  12.895  0.00  0.00    +0.007 C 
ENDBRANCH   4  15
BRANCH   1  17
ATOM     17  C   UNL     1       1.244   0.344   8.429  0.00  0.00    +0.213 C 
BRANCH  17  19
ATOM     18  N   UNL     1       0.772   0.445   6.003  0.00  0.00    -0.303 N 
ATOM     19  C   UNL     1       0.303   0.267   7.254  0.00  0.00    +0.232 C 
ATOM     20  O   UNL     1      -0.875   0.046   7.434  0.00  0.00    -0.274 OA
ATOM     21  H   UNL     1       1.715   0.622   5.859  0.00  0.00    +0.149 HD
BRANCH  18  22
ATOM     22  C   UNL     1      -0.142   0.370   4.861  0.00  0.00    +0.156 C 
ATOM     23  C   UNL     1      -0.804   1.733   4.648  0.00  0.00    +0.038 C 
BRANCH  22  25
ATOM     24  N   UNL     1      -0.008  -0.140   2.444  0.00  0.00    -0.311 N 
ATOM     25  C   UNL     1       0.630  -0.011   3.624  0.00  0.00    +0.233 C 
ATOM     26  O   UNL     1       1.826  -0.202   3.690  0.00  0.00    -0.274 OA
ATOM     27  H   UNL     1      -0.965   0.013   2.391  0.00  0.00    +0.149 HD
BRANCH  24  28
ATOM     28  C   UNL     1       0.742  -0.511   1.242  0.00  0.00    +0.070 C 
ATOM     29  C   UNL     1       0.872  -2.034   1.171  0.00  0.00    +0.028 C 
BRANCH  28  31
ATOM     30  C   UNL     1      -0.019   1.526   0.010  0.00  0.00    +0.005 C 
ATOM     31  C   UNL     1       0.002  -0.004   0.002  0.00  0.00    +0.018 C 
ENDBRANCH  28  31
ENDBRANCH  24  28
ENDBRANCH  22  25
ENDBRANCH  18  22
ENDBRANCH  17  19
ENDBRANCH   1  17
TORSDOF 8
