REMARK  Name = ZINC56523178
REMARK  9 active torsions:
REMARK  status: ('A' for Active; 'I' for Inactive)
REMARK    1  A    between atoms: C_1  and  C_2
REMARK    2  A    between atoms: C_2  and  C_4
REMARK    3  A    between atoms: C_2  and  N_15
REMARK    4  A    between atoms: C_12  and  C_14
REMARK    5  A    between atoms: C_18  and  C_21
REMARK    6  A    between atoms: C_21  and  C_22
REMARK    7  A    between atoms: C_22  and  N_23
REMARK    8  A    between atoms: N_23  and  C_24
REMARK    9  A    between atoms: N_23  and  C_25
REMARK                            x       y       z     vdW  Elec       q    Type
REMARK                         _______ _______ _______ _____ _____    ______ ____
ROOT
ATOM      1  C   UNL     1      -0.065   1.486   0.011  0.00  0.00    -0.004 C 
ATOM      2  C   UNL     1       0.009  -0.041   0.078  0.00  0.00    +0.016 C 
ENDROOT
BRANCH   2   3
ATOM      3  C   UNL     1       0.628  -0.457   1.387  0.00  0.00    +0.202 C 
ATOM      4  O   UNL     1      -0.080  -0.788   2.315  0.00  0.00    -0.277 OA
ATOM      5  N   UNL     1       1.968  -0.462   1.527  0.00  0.00    -0.300 N 
ATOM      6  C   UNL     1       2.841  -0.161   0.384  0.00  0.00    +0.126 C 
ATOM      7  C   UNL     1       3.772   0.995   0.769  0.00  0.00    +0.126 C 
ATOM      8  N   UNL     1       4.388   0.689   2.068  0.00  0.00    -0.299 N 
ATOM      9  C   UNL     1       3.515   0.388   3.212  0.00  0.00    +0.126 C 
ATOM     10  C   UNL     1       2.583  -0.762   2.828  0.00  0.00    +0.126 C 
ATOM     11  C   UNL     1       5.728   0.684   2.209  0.00  0.00    +0.213 C 
ATOM     12  O   UNL     1       6.438   0.934   1.258  0.00  0.00    -0.276 OA
ATOM     13  C   UNL     1       6.345   0.369   3.547  0.00  0.00    +0.109 C 
ENDBRANCH   2   3
BRANCH   2  14
ATOM     14  N   UNL     1      -1.346  -0.601  -0.023  0.00  0.00    +0.387 N 
ATOM     15  C   UNL     1      -1.989  -0.104  -1.246  0.00  0.00    -0.078 C 
ATOM     16  C   UNL     1      -3.428  -0.620  -1.315  0.00  0.00    -0.015 C 
ATOM     17  C   UNL     1      -3.416  -2.151  -1.328  0.00  0.00    -0.016 C 
ATOM     18  C   UNL     1      -2.678  -2.657  -0.086  0.00  0.00    -0.015 C 
ATOM     19  C   UNL     1      -1.266  -2.066  -0.062  0.00  0.00    -0.078 C 
ATOM     20  H   UNL     1      -1.887  -0.316   0.779  0.00  0.00    -0.081 HD
BRANCH  17  21
ATOM     21  C   UNL     1      -4.854  -2.674  -1.317  0.00  0.00    -0.015 C 
BRANCH  21  22
ATOM     22  C   UNL     1      -4.843  -4.198  -1.456  0.00  0.00    -0.079 C 
BRANCH  22  23
ATOM     23  N   UNL     1      -6.224  -4.700  -1.446  0.00  0.00    +0.376 N 
ATOM     24  C   UNL     1      -6.934  -4.206  -2.633  0.00  0.00    -0.097 C 
ATOM     25  C   UNL     1      -6.210  -6.169  -1.459  0.00  0.00    -0.097 C 
ATOM     26  H   UNL     1      -6.693  -4.375  -0.614  0.00  0.00    -0.083 HD
ENDBRANCH  22  23
ENDBRANCH  21  22
ENDBRANCH  17  21
ENDBRANCH   2  14
TORSDOF 5
