REMARK  Name = ZINC16955713
REMARK  1 active torsions:
REMARK  status: ('A' for Active; 'I' for Inactive)
REMARK    1  A    between atoms: C_4  and  C_7
REMARK                            x       y       z     vdW  Elec       q    Type
REMARK                         _______ _______ _______ _____ _____    ______ ____
ROOT
ATOM      1  C   UNL     1       3.711  -0.707  -0.038  0.00  0.00    +0.140 C 
ATOM      2  C   UNL     1       4.018  -1.182  -1.461  0.00  0.00    +0.127 C 
ATOM      3  C   UNL     1       3.233  -2.419  -1.798  0.00  0.00    +0.241 C 
ATOM      4  O   UNL     1       2.865  -2.588  -2.945  0.00  0.00    -0.274 OA
ATOM      5  N   UNL     1       2.926  -3.332  -0.885  0.00  0.00    -0.148 NA
ATOM      6  C   UNL     1       3.232  -3.100   0.391  0.00  0.00    +0.222 C 
ATOM      7  N   UNL     1       3.631  -1.881   0.834  0.00  0.00    -0.184 N 
ATOM      8  N   UNL     1       3.912  -1.997   2.192  0.00  0.00    -0.142 NA
ATOM      9  C   UNL     1       3.627  -3.215   2.561  0.00  0.00    +0.238 C 
ATOM     10  N   UNL     1       3.164  -3.914   1.466  0.00  0.00    -0.148 NA
ATOM     11  N   UNL     1       3.766  -3.726   3.851  0.00  0.00    -0.178 N 
ATOM     12  C   UNL     1       4.222  -2.990   4.900  0.00  0.00    +0.232 C 
ATOM     13  O   UNL     1       4.363  -1.786   4.941  0.00  0.00    -0.274 OA
ATOM     14  C   UNL     1       4.516  -3.968   5.994  0.00  0.00    +0.088 C 
ATOM     15  C   UNL     1       4.309  -3.556   7.435  0.00  0.00    +0.013 C 
ATOM     16  C   UNL     1       4.657  -4.791   8.289  0.00  0.00    +0.001 C 
ATOM     17  C   UNL     1       3.808  -6.000   7.913  0.00  0.00    +0.001 C 
ATOM     18  C   UNL     1       3.868  -6.303   6.404  0.00  0.00    +0.013 C 
ATOM     19  C   UNL     1       3.446  -5.056   5.678  0.00  0.00    +0.088 C 
ATOM     20  C   UNL     1       3.453  -5.007   4.185  0.00  0.00    +0.232 C 
ATOM     21  O   UNL     1       3.229  -5.925   3.425  0.00  0.00    -0.274 OA
ENDROOT
BRANCH   1  25
ATOM     22  C   UNL     1      -0.017   1.378   0.010  0.00  0.00    +0.000 A 
ATOM     23  C   UNL     1       1.171   2.086   0.002  0.00  0.00    +0.000 A 
ATOM     24  C   UNL     1       2.377   1.411  -0.013  0.00  0.00    +0.005 A 
ATOM     25  C   UNL     1       2.396   0.029  -0.020  0.00  0.00    -0.025 A 
ATOM     26  C   UNL     1       1.208  -0.679  -0.012  0.00  0.00    +0.005 A 
ATOM     27  C   UNL     1       0.002  -0.004   0.002  0.00  0.00    +0.000 A 
ENDBRANCH   1  25
TORSDOF 1
