REMARK  Name = ZINC04395524
REMARK  6 active torsions:
REMARK  status: ('A' for Active; 'I' for Inactive)
REMARK    1  A    between atoms: C_1  and  N_2
REMARK    2  A    between atoms: N_5  and  C_8
REMARK    3  A    between atoms: C_8  and  N_9
REMARK    4  A    between atoms: N_15  and  C_20
REMARK    5  A    between atoms: N_18  and  C_19
REMARK    6  A    between atoms: C_20  and  N_21
REMARK                            x       y       z     vdW  Elec       q    Type
REMARK                         _______ _______ _______ _____ _____    ______ ____
ROOT
ATOM      1  C   UNL     1      -0.532   1.277  -0.976  0.00  0.00    +0.135 C 
ATOM      2  N   UNL     1      -0.338  -0.124  -0.595  0.00  0.00    -0.266 N 
ATOM      3  C   UNL     1      -1.365  -0.995  -0.007  0.00  0.00    +0.207 C 
ATOM      4  C   UNL     1      -0.631  -2.345   0.193  0.00  0.00    +0.204 C 
ATOM      5  N   UNL     1       0.726  -2.080  -0.306  0.00  0.00    -0.280 N 
ATOM      6  C   UNL     1       0.802  -0.814  -0.734  0.00  0.00    +0.306 C 
ATOM      7  O   UNL     1       1.815  -0.332  -1.202  0.00  0.00    -0.252 OA
ATOM      8  N   UNL     1      -1.326  -3.258  -0.726  0.00  0.00    -0.280 N 
ATOM      9  C   UNL     1      -2.297  -2.592  -1.362  0.00  0.00    +0.306 C 
ATOM     10  O   UNL     1      -3.030  -3.112  -2.182  0.00  0.00    -0.252 OA
ATOM     11  N   UNL     1      -2.389  -1.302  -1.015  0.00  0.00    -0.266 N 
ATOM     12  C   UNL     1      -3.361  -0.347  -1.554  0.00  0.00    +0.135 C 
ENDROOT
BRANCH   5  13
ATOM     13  C   UNL     1       1.822  -3.052  -0.337  0.00  0.00    +0.036 C 
BRANCH  13  14
ATOM     14  N   UNL     1       2.388  -3.195   1.011  0.00  0.00    +0.390 N 
ATOM     15  C   UNL     1       2.974  -1.917   1.432  0.00  0.00    -0.077 C 
ATOM     16  C   UNL     1       3.492  -2.038   2.867  0.00  0.00    -0.019 C 
ATOM     17  C   UNL     1       4.559  -3.135   2.928  0.00  0.00    -0.004 C 
ATOM     18  C   UNL     1       3.957  -4.447   2.416  0.00  0.00    -0.019 C 
ATOM     19  C   UNL     1       3.421  -4.237   0.998  0.00  0.00    -0.077 C 
ATOM     20  H   UNL     1       1.656  -3.456   1.655  0.00  0.00    -0.080 HD
ENDBRANCH  13  14
ENDBRANCH   5  13
BRANCH   8  21
ATOM     21  C   UNL     1      -1.006  -4.675  -0.915  0.00  0.00    +0.036 C 
BRANCH  21  22
ATOM     22  N   UNL     1      -1.991  -5.499  -0.202  0.00  0.00    +0.390 N 
ATOM     23  C   UNL     1      -1.877  -5.256   1.241  0.00  0.00    -0.077 C 
ATOM     24  C   UNL     1      -2.955  -6.051   1.982  0.00  0.00    -0.019 C 
ATOM     25  C   UNL     1      -2.767  -7.544   1.698  0.00  0.00    -0.004 C 
ATOM     26  C   UNL     1      -2.813  -7.775   0.185  0.00  0.00    -0.019 C 
ATOM     27  C   UNL     1      -1.741  -6.917  -0.490  0.00  0.00    -0.077 C 
ATOM     28  H   UNL     1      -2.920  -5.253  -0.510  0.00  0.00    -0.080 HD
ENDBRANCH  21  22
ENDBRANCH   8  21
TORSDOF 4
