REMARK  Name = ZINC09745183
REMARK  7 active torsions:
REMARK  status: ('A' for Active; 'I' for Inactive)
REMARK    1  A    between atoms: C_1  and  C_2
REMARK    2  A    between atoms: C_2  and  O_3
REMARK    3  A    between atoms: O_3  and  C_4
REMARK    4  A    between atoms: C_4  and  C_6
REMARK    5  A    between atoms: C_12  and  C_14
REMARK    6  A    between atoms: C_14  and  C_15
REMARK    7  A    between atoms: C_15  and  C_16
REMARK                            x       y       z     vdW  Elec       q    Type
REMARK                         _______ _______ _______ _____ _____    ______ ____
ROOT
ATOM      1  C   UNL     1       2.041   0.612  -0.014  0.00  0.00    +0.156 A 
ATOM      2  N   UNL     1       1.223  -0.412  -0.012  0.00  0.00    -0.132 NA
ATOM      3  N   UNL     1       0.002  -0.004   0.002  0.00  0.00    -0.128 NA
ATOM      4  C   UNL     1      -0.016   1.319   0.009  0.00  0.00    +0.178 A 
ATOM      5  N   UNL     1       1.292   1.735  -0.001  0.00  0.00    -0.195 N 
ATOM      6  N   UNL     1       1.593   3.099   0.004  0.00  0.00    -0.148 NA
ATOM      7  C   UNL     1       0.633   3.993   0.018  0.00  0.00    +0.142 A 
ATOM      8  C   UNL     1      -0.720   3.599   0.029  0.00  0.00    +0.049 A 
ATOM      9  C   UNL     1      -1.046   2.280   0.029  0.00  0.00    +0.053 A 
ATOM     10  N   UNL     1       0.954   5.346   0.023  0.00  0.00    -0.313 N 
ATOM     11  C   UNL     1       0.335   6.030   1.166  0.00  0.00    +0.112 C 
ATOM     12  C   UNL     1       0.583   7.536   1.056  0.00  0.00    +0.084 C 
ATOM     13  C   UNL     1       2.091   7.798   1.030  0.00  0.00    +0.173 C 
ATOM     14  C   UNL     1       2.724   7.032  -0.135  0.00  0.00    +0.084 C 
ATOM     15  C   UNL     1       2.409   5.542   0.011  0.00  0.00    +0.112 C 
ATOM     16  O   UNL     1       2.331   9.204   0.866  0.00  0.00    -0.346 OA
ATOM     17  C   UNL     1       2.527   9.705   2.211  0.00  0.00    +0.191 C 
ATOM     18  C   UNL     1       3.276   8.525   2.880  0.00  0.00    +0.191 C 
ATOM     19  O   UNL     1       2.677   7.367   2.264  0.00  0.00    -0.346 OA
ENDROOT
BRANCH   1  20
ATOM     20  C   UNL     1       3.547   0.547  -0.028  0.00  0.00    +0.087 C 
BRANCH  20  21
ATOM     21  C   UNL     1       4.043   0.533  -1.475  0.00  0.00    +0.104 C 
BRANCH  21  28
ATOM     22  C   UNL     1       7.452  -0.669  -4.947  0.00  0.00    +0.101 C 
ATOM     23  C   UNL     1       8.104  -0.800  -3.568  0.00  0.00    +0.033 C 
ATOM     24  C   UNL     1       7.679   0.383  -2.692  0.00  0.00    +0.108 C 
ATOM     25  N   UNL     1       6.211   0.446  -2.663  0.00  0.00    -0.301 N 
ATOM     26  C   UNL     1       5.480   0.478  -3.936  0.00  0.00    +0.108 C 
ATOM     27  C   UNL     1       5.930  -0.701  -4.798  0.00  0.00    +0.033 C 
ATOM     28  C   UNL     1       5.549   0.469  -1.489  0.00  0.00    +0.216 C 
ATOM     29  O   UNL     1       6.164   0.437  -0.445  0.00  0.00    -0.276 OA
BRANCH  22  30
ATOM     30  C   UNL     1       7.895  -1.813  -5.822  0.00  0.00    +0.310 C 
ATOM     31  O   UNL     1       8.654  -2.647  -5.388  0.00  0.00    -0.251 OA
BRANCH  30  32
ATOM     32  O   UNL     1       7.447  -1.905  -7.084  0.00  0.00    -0.465 OA
BRANCH  32  34
ATOM     33  C   UNL     1       7.302  -2.969  -9.269  0.00  0.00    +0.048 C 
ATOM     34  C   UNL     1       7.915  -3.033  -7.869  0.00  0.00    +0.229 C 
ENDBRANCH  32  34
ENDBRANCH  30  32
ENDBRANCH  22  30
ENDBRANCH  21  28
ENDBRANCH  20  21
ENDBRANCH   1  20
TORSDOF 6
