REMARK  Name = ZINC37984538
REMARK  7 active torsions:
REMARK  status: ('A' for Active; 'I' for Inactive)
REMARK    1  A    between atoms: C_1  and  C_2
REMARK    2  A    between atoms: C_2  and  N_3
REMARK    3  A    between atoms: C_7  and  C_9
REMARK    4  A    between atoms: C_9  and  C_11
REMARK    5  A    between atoms: C_9  and  N_12
REMARK    6  A    between atoms: N_12  and  C_13
REMARK    7  A    between atoms: C_13  and  C_14
REMARK                            x       y       z     vdW  Elec       q    Type
REMARK                         _______ _______ _______ _____ _____    ______ ____
ROOT
ATOM      1  C   UNL     1      -4.507  -4.156   0.023  0.00  0.00    +0.014 C 
ATOM      2  C   UNL     1      -5.223  -3.662   1.282  0.00  0.00    -0.004 C 
ENDROOT
BRANCH   1   7
ATOM      3  N   UNL     1      -1.372  -0.511   0.012  0.00  0.00    -0.299 N 
ATOM      4  C   UNL     1      -1.601  -1.839   0.007  0.00  0.00    +0.306 C 
ATOM      5  O   UNL     1      -0.666  -2.617  -0.006  0.00  0.00    -0.252 OA
ATOM      6  N   UNL     1      -2.865  -2.306   0.017  0.00  0.00    -0.242 N 
ATOM      7  C   UNL     1      -3.093  -3.634   0.012  0.00  0.00    +0.206 C 
ATOM      8  O   UNL     1      -2.161  -4.409  -0.001  0.00  0.00    -0.277 OA
ATOM      9  H   UNL     1      -2.118   0.109   0.023  0.00  0.00    +0.150 HD
ATOM     10  H   UNL     1      -3.611  -1.686   0.028  0.00  0.00    +0.159 HD
BRANCH   3  12
ATOM     11  C   UNL     1      -0.019   1.526   0.010  0.00  0.00    +0.024 C 
ATOM     12  C   UNL     1       0.002  -0.004   0.002  0.00  0.00    +0.102 C 
ENDBRANCH   3  12
ENDBRANCH   1   7
BRANCH   1  13
ATOM     13  N   UNL     1      -4.487  -5.625   0.015  0.00  0.00    +0.389 N 
ATOM     14  H   UNL     1      -3.945  -5.949  -0.771  0.00  0.00    -0.084 HD
ATOM     15  H   UNL     1      -4.072  -5.960   0.871  0.00  0.00    -0.084 HD
BRANCH  13  16
ATOM     16  C   UNL     1      -5.861  -6.132  -0.096  0.00  0.00    -0.038 C 
BRANCH  16  17
ATOM     17  C   UNL     1      -5.841  -7.639  -0.104  0.00  0.00    -0.026 A 
ATOM     18  C   UNL     1      -5.917  -8.499   0.941  0.00  0.00    +0.010 A 
ATOM     19  C   UNL     1      -5.878  -9.859   0.694  0.00  0.00    +0.023 A 
ATOM     20  C   UNL     1      -5.766 -10.292  -0.587  0.00  0.00    +0.055 A 
ATOM     21  S   UNL     1      -5.718  -8.754  -1.493  0.00  0.00    -0.088 S 
ATOM     22 BR   UNL     1      -5.687 -12.063  -1.243  0.00  0.00    -0.043 Br
ENDBRANCH  16  17
ENDBRANCH  13  16
ENDBRANCH   1  13
TORSDOF 5
