REMARK  Name = ZINC65227631
REMARK  8 active torsions:
REMARK  status: ('A' for Active; 'I' for Inactive)
REMARK    1  A    between atoms: C_1  and  C_2
REMARK    2  A    between atoms: C_2  and  C_3
REMARK    3  A    between atoms: C_6  and  C_9
REMARK    4  A    between atoms: C_9  and  C_11
REMARK    5  A    between atoms: C_9  and  N_12
REMARK    6  A    between atoms: C_13  and  C_15
REMARK    7  A    between atoms: C_22  and  C_27
REMARK    8  A    between atoms: C_29  and  C_32
REMARK                            x       y       z     vdW  Elec       q    Type
REMARK                         _______ _______ _______ _____ _____    ______ ____
ROOT
ATOM      1  C   UNL     1       2.446  -0.441   8.184  0.00  0.00    +0.078 C 
ATOM      2  C   UNL     1       2.069   1.004   7.846  0.00  0.00    +0.031 C 
ATOM      3  C   UNL     1       1.472   1.675   9.086  0.00  0.00    +0.107 C 
ATOM      4  N   UNL     1       2.424   1.545  10.198  0.00  0.00    -0.316 N 
ATOM      5  C   UNL     1       2.921   0.208  10.549  0.00  0.00    +0.107 C 
ATOM      6  C   UNL     1       3.502  -0.447   9.292  0.00  0.00    +0.031 C 
ATOM      7  C   UNL     1       2.844   2.663  10.903  0.00  0.00    +0.110 A 
ATOM      8  C   UNL     1       2.083   3.132  11.983  0.00  0.00    +0.060 A 
ATOM      9  C   UNL     1       2.524   4.259  12.679  0.00  0.00    +0.016 A 
ATOM     10  C   UNL     1       3.700   4.867  12.270  0.00  0.00    +0.018 A 
ATOM     11  C   UNL     1       4.396   4.347  11.196  0.00  0.00    +0.084 A 
ATOM     12  N   UNL     1       3.963   3.277  10.556  0.00  0.00    -0.349 N 
ATOM     13  H   UNL     1       4.478   2.934   9.808  0.00  0.00    +0.167 HD
ENDROOT
BRANCH   8  14
ATOM     14  C   UNL     1       0.831   2.444  12.379  0.00  0.00    +0.205 A 
ATOM     15  N   UNL     1      -0.033   2.866  13.321  0.00  0.00    -0.191 NA
ATOM     16  C   UNL     1      -1.028   2.031  13.420  0.00  0.00    +0.225 A 
ATOM     17  O   UNL     1      -0.838   1.038  12.542  0.00  0.00    -0.338 OA
ATOM     18  N   UNL     1       0.378   1.326  11.867  0.00  0.00    -0.056 NA
ATOM     19  C   UNL     1      -2.195   2.161  14.364  0.00  0.00    +0.112 C 
ENDBRANCH   8  14
BRANCH   1  21
ATOM     20  N   UNL     1       2.245  -1.227   5.848  0.00  0.00    -0.309 N 
ATOM     21  C   UNL     1       3.003  -1.115   6.957  0.00  0.00    +0.217 C 
ATOM     22  O   UNL     1       4.132  -1.558   6.967  0.00  0.00    -0.275 OA
ATOM     23  H   UNL     1       1.342  -0.873   5.839  0.00  0.00    +0.149 HD
BRANCH  20  24
ATOM     24  C   UNL     1       2.786  -1.883   4.654  0.00  0.00    +0.100 C 
ATOM     25  C   UNL     1       2.583  -3.395   4.767  0.00  0.00    +0.033 C 
BRANCH  24  29
ATOM     26  C   UNL     1       0.757  -0.431   1.187  0.00  0.00    -0.048 A 
ATOM     27  C   UNL     1       2.121  -0.650   1.148  0.00  0.00    +0.004 A 
ATOM     28  C   UNL     1       2.778  -1.120   2.270  0.00  0.00    +0.006 A 
ATOM     29  C   UNL     1       2.070  -1.370   3.431  0.00  0.00    -0.027 A 
ATOM     30  C   UNL     1       0.706  -1.149   3.470  0.00  0.00    +0.006 A 
ATOM     31  C   UNL     1       0.050  -0.675   2.350  0.00  0.00    +0.004 A 
BRANCH  26  33
ATOM     32  C   UNL     1       0.035   1.611  -0.021  0.00  0.00    +0.009 C 
ATOM     33  C   UNL     1       0.041   0.081  -0.036  0.00  0.00    +0.032 C 
ENDBRANCH  26  33
ENDBRANCH  24  29
ENDBRANCH  20  24
ENDBRANCH   1  21
TORSDOF 5
