REMARK  Name = ZINC63282353
REMARK  8 active torsions:
REMARK  status: ('A' for Active; 'I' for Inactive)
REMARK    1  A    between atoms: C_1  and  N_2
REMARK    2  A    between atoms: C_3  and  C_5
REMARK    3  A    between atoms: C_8  and  N_11
REMARK    4  A    between atoms: N_11  and  C_12
REMARK    5  A    between atoms: C_15  and  N_22
REMARK    6  A    between atoms: C_16  and  C_18
REMARK    7  A    between atoms: C_18  and  O_20
REMARK    8  A    between atoms: O_20  and  C_21
REMARK                            x       y       z     vdW  Elec       q    Type
REMARK                         _______ _______ _______ _____ _____    ______ ____
ROOT
ATOM      1  N   UNL     1      -1.809  -6.187   1.257  0.00  0.00    -0.341 N 
ATOM      2  H   UNL     1      -1.026  -6.644   0.911  0.00  0.00    +0.146 HD
ENDROOT
BRANCH   1   6
ATOM      3  C   UNL     1      -1.238  -2.155  -0.013  0.00  0.00    +0.075 C 
ATOM      4  C   UNL     1      -0.507  -2.628   1.245  0.00  0.00    +0.014 C 
ATOM      5  C   UNL     1      -0.447  -4.157   1.256  0.00  0.00    +0.023 C 
ATOM      6  C   UNL     1      -1.868  -4.724   1.247  0.00  0.00    +0.070 C 
ATOM      7  C   UNL     1      -2.598  -4.251  -0.012  0.00  0.00    +0.023 C 
ATOM      8  C   UNL     1      -2.659  -2.722  -0.022  0.00  0.00    +0.014 C 
BRANCH   3  11
ATOM      9  C   UNL     1      -0.216   1.534  -0.028  0.00  0.00    +0.128 C 
ATOM     10  N   UNL     1      -0.158   0.070  -0.018  0.00  0.00    -0.318 N 
ATOM     11  C   UNL     1      -1.298  -0.649  -0.024  0.00  0.00    +0.216 C 
ATOM     12  O   UNL     1      -2.371  -0.085  -0.036  0.00  0.00    -0.276 OA
ATOM     13  H   UNL     1       0.701  -0.381  -0.008  0.00  0.00    +0.148 HD
ENDBRANCH   3  11
ENDBRANCH   1   6
BRANCH   1  14
ATOM     14  C   UNL     1      -2.882  -6.926   1.764  0.00  0.00    +0.028 A 
ATOM     15  C   UNL     1      -4.006  -6.271   2.254  0.00  0.00    +0.025 A 
ATOM     16  C   UNL     1      -5.070  -6.997   2.756  0.00  0.00    +0.035 A 
ATOM     17  C   UNL     1      -5.023  -8.376   2.775  0.00  0.00    +0.140 A 
ATOM     18  C   UNL     1      -3.898  -9.043   2.285  0.00  0.00    +0.091 A 
ATOM     19  C   UNL     1      -2.827  -8.311   1.773  0.00  0.00    +0.040 A 
BRANCH  17  20
ATOM     20  N   UNL     1      -6.165  -9.149   3.314  0.00  0.00    +0.057 N 
ATOM     21  O   UNL     1      -7.087  -8.574   3.845  0.00  0.00    -0.126 OA
ATOM     22  O   UNL     1      -6.176 -10.354   3.223  0.00  0.00    -0.126 OA
ENDBRANCH  17  20
BRANCH  18  23
ATOM     23  C   UNL     1      -3.846 -10.520   2.304  0.00  0.00    +0.341 C 
ATOM     24  O   UNL     1      -4.010 -11.120   3.347  0.00  0.00    -0.245 OA
BRANCH  23  25
ATOM     25  O   UNL     1      -3.615 -11.200   1.164  0.00  0.00    -0.464 OA
ATOM     26  C   UNL     1      -3.577 -12.626   1.256  0.00  0.00    +0.280 C 
ENDBRANCH  23  25
ENDBRANCH  18  23
ENDBRANCH   1  14
TORSDOF 6
