REMARK  Name = ZINC06905810
REMARK  8 active torsions:
REMARK  status: ('A' for Active; 'I' for Inactive)
REMARK    1  A    between atoms: C_1  and  O_2
REMARK    2  A    between atoms: O_2  and  C_3
REMARK    3  A    between atoms: C_7  and  C_10
REMARK    4  A    between atoms: C_8  and  O_9
REMARK    5  A    between atoms: N_11  and  N_12
REMARK    6  A    between atoms: N_12  and  C_13
REMARK    7  A    between atoms: C_16  and  N_22
REMARK    8  A    between atoms: C_18  and  N_19
REMARK                            x       y       z     vdW  Elec       q    Type
REMARK                         _______ _______ _______ _____ _____    ______ ____
ROOT
ATOM      1  C   UNL     1       2.252  -4.231   1.738  0.00  0.00    +0.143 C 
ATOM      2  N   UNL     1       2.644  -4.774   2.851  0.00  0.00    -0.190 NA
ENDROOT
BRANCH   1   7
ATOM      3  C   UNL     1       2.113  -0.819   0.159  0.00  0.00    +0.163 A 
ATOM      4  C   UNL     1       2.667  -0.040   1.163  0.00  0.00    +0.065 A 
ATOM      5  C   UNL     1       3.083  -0.620   2.349  0.00  0.00    +0.036 A 
ATOM      6  C   UNL     1       2.951  -1.981   2.542  0.00  0.00    +0.044 A 
ATOM      7  C   UNL     1       2.395  -2.778   1.538  0.00  0.00    +0.055 A 
ATOM      8  C   UNL     1       1.969  -2.188   0.341  0.00  0.00    +0.168 A 
ATOM      9 BR   UNL     1       3.524  -2.767   4.164  0.00  0.00    -0.048 Br
ATOM     10 BR   UNL     1       3.837   0.455   3.711  0.00  0.00    -0.049 Br
BRANCH   3  12
ATOM     11  C   UNL     1       1.885   1.172  -1.122  0.00  0.00    +0.277 C 
ATOM     12  O   UNL     1       1.706  -0.241  -1.003  0.00  0.00    -0.491 OA
ENDBRANCH   3  12
BRANCH   8  13
ATOM     13  O   UNL     1       1.421  -2.953  -0.640  0.00  0.00    -0.503 OA
ATOM     14  H   UNL     1       2.065  -3.305  -1.270  0.00  0.00    +0.292 HD
ENDBRANCH   8  13
ENDBRANCH   1   7
BRANCH   2  15
ATOM     15  N   UNL     1       2.509  -6.155   3.042  0.00  0.00    -0.236 N 
ATOM     16  H   UNL     1       2.122  -6.706   2.343  0.00  0.00    +0.174 HD
BRANCH  15  17
ATOM     17  C   UNL     1       2.929  -6.739   4.237  0.00  0.00    +0.079 A 
ATOM     18  C   UNL     1       3.588  -5.973   5.192  0.00  0.00    +0.029 A 
ATOM     19  C   UNL     1       4.003  -6.554   6.374  0.00  0.00    +0.035 A 
ATOM     20  C   UNL     1       3.765  -7.897   6.608  0.00  0.00    +0.128 A 
ATOM     21  C   UNL     1       3.111  -8.662   5.660  0.00  0.00    +0.067 A 
ATOM     22  C   UNL     1       2.687  -8.086   4.478  0.00  0.00    +0.151 A 
BRANCH  22  23
ATOM     23  N   UNL     1       1.980  -8.904   3.466  0.00  0.00    +0.058 N 
ATOM     24  O   UNL     1       1.072  -8.425   2.828  0.00  0.00    -0.126 OA
ATOM     25  O   UNL     1       2.311 -10.052   3.279  0.00  0.00    -0.126 OA
ENDBRANCH  22  23
BRANCH  20  26
ATOM     26  N   UNL     1       4.213  -8.516   7.876  0.00  0.00    +0.056 N 
ATOM     27  O   UNL     1       4.785  -7.849   8.706  0.00  0.00    -0.126 OA
ATOM     28  O   UNL     1       4.005  -9.689   8.082  0.00  0.00    -0.126 OA
ENDBRANCH  20  26
ENDBRANCH  15  17
ENDBRANCH   2  15
TORSDOF 7
