REMARK  Name = ZINC01438094
REMARK  6 active torsions:
REMARK  status: ('A' for Active; 'I' for Inactive)
REMARK    1  A    between atoms: C_1  and  C_2
REMARK    2  A    between atoms: C_2  and  O_3
REMARK    3  A    between atoms: O_3  and  C_4
REMARK    4  A    between atoms: C_6  and  C_12
REMARK    5  A    between atoms: C_9  and  O_10
REMARK    6  A    between atoms: C_17  and  C_22
REMARK                            x       y       z     vdW  Elec       q    Type
REMARK                         _______ _______ _______ _____ _____    ______ ____
ROOT
ATOM      1  C   UNL     1       0.002  -0.004   0.002  0.00  0.00    +0.136 C 
ATOM      2  C   UNL     1       0.018   1.505   0.023  0.00  0.00    +0.036 C 
ATOM      3  C   UNL     1       1.115   2.283   0.014  0.00  0.00    +0.017 C 
ATOM      4  C   UNL     1       0.987   3.797   0.023  0.00  0.00    +0.059 C 
ATOM      5  C   UNL     1      -0.263   4.211   0.798  0.00  0.00    +0.032 C 
ATOM      6  C   UNL     1      -1.474   3.576   0.105  0.00  0.00    +0.088 C 
ATOM      7  C   UNL     1      -1.270   2.091   0.060  0.00  0.00    +0.163 C 
ATOM      8  O   UNL     1      -2.245   1.365   0.052  0.00  0.00    -0.292 OA
ATOM      9  N   UNL     1       2.390   1.818  -0.021  0.00  0.00    -0.316 N 
ATOM     10  C   UNL     1       2.886   0.792   0.776  0.00  0.00    +0.052 A 
ATOM     11  C   UNL     1       3.912   0.991   1.683  0.00  0.00    +0.025 A 
ATOM     12  C   UNL     1       4.439  -0.096   2.360  0.00  0.00    +0.002 A 
ATOM     13  C   UNL     1       3.942  -1.367   2.133  0.00  0.00    +0.002 A 
ATOM     14  C   UNL     1       2.901  -1.563   1.242  0.00  0.00    +0.025 A 
ATOM     15  C   UNL     1       2.360  -0.475   0.576  0.00  0.00    +0.049 A 
ATOM     16  N   UNL     1       1.280  -0.616  -0.293  0.00  0.00    -0.331 N 
ATOM     17  H   UNL     1       3.002   2.233  -0.649  0.00  0.00    +0.152 HD
ATOM     18  H   UNL     1       1.386  -1.131  -1.108  0.00  0.00    +0.147 HD
ENDROOT
BRANCH   1  21
ATOM     19  C   UNL     1      -2.068  -1.663   2.692  0.00  0.00    +0.163 A 
ATOM     20  C   UNL     1      -1.643  -1.205   1.455  0.00  0.00    +0.055 A 
ATOM     21  C   UNL     1      -0.462  -0.495   1.349  0.00  0.00    -0.018 A 
ATOM     22  C   UNL     1       0.292  -0.229   2.477  0.00  0.00    +0.029 A 
ATOM     23  C   UNL     1      -0.129  -0.678   3.716  0.00  0.00    +0.086 A 
ATOM     24  C   UNL     1      -1.310  -1.396   3.828  0.00  0.00    +0.177 A 
ATOM     25 CL   UNL     1       0.820  -0.342   5.130  0.00  0.00    -0.080 Cl
BRANCH  24  26
ATOM     26  O   UNL     1      -1.726  -1.839   5.045  0.00  0.00    -0.502 OA
ATOM     27  H   UNL     1      -2.293  -1.214   5.518  0.00  0.00    +0.292 HD
ENDBRANCH  24  26
BRANCH  19  28
ATOM     28  O   UNL     1      -3.228  -2.366   2.797  0.00  0.00    -0.489 OA
BRANCH  28  30
ATOM     29  C   UNL     1      -5.220  -3.402   1.904  0.00  0.00    +0.048 C 
ATOM     30  C   UNL     1      -3.954  -2.602   1.589  0.00  0.00    +0.226 C 
ENDBRANCH  28  30
ENDBRANCH  19  28
ENDBRANCH   1  21
BRANCH   5  31
ATOM     31  C   UNL     1      -0.397   5.712   0.786  0.00  0.00    -0.044 A 
ATOM     32  C   UNL     1      -0.510   6.386  -0.416  0.00  0.00    +0.004 A 
ATOM     33  C   UNL     1      -0.638   7.762  -0.427  0.00  0.00    +0.000 A 
ATOM     34  C   UNL     1      -0.642   8.466   0.763  0.00  0.00    +0.000 A 
ATOM     35  C   UNL     1      -0.523   7.793   1.964  0.00  0.00    +0.000 A 
ATOM     36  C   UNL     1      -0.400   6.416   1.976  0.00  0.00    +0.004 A 
ENDBRANCH   5  31
TORSDOF 5
