REMARK  Name = ZINC39686315
REMARK  8 active torsions:
REMARK  status: ('A' for Active; 'I' for Inactive)
REMARK    1  A    between atoms: C_1  and  C_2
REMARK    2  A    between atoms: C_2  and  C_3
REMARK    3  A    between atoms: C_2  and  C_4
REMARK    4  A    between atoms: C_4  and  C_5
REMARK    5  A    between atoms: C_10  and  N_13
REMARK    6  A    between atoms: C_14  and  C_16
REMARK    7  A    between atoms: C_27  and  C_29
REMARK    8  A    between atoms: C_32  and  C_34
REMARK                            x       y       z     vdW  Elec       q    Type
REMARK                         _______ _______ _______ _____ _____    ______ ____
ROOT
ATOM      1  C   UNL     1      -7.059  -6.499   2.897  0.00  0.00    +0.100 C 
ATOM      2  C   UNL     1      -8.139  -5.502   3.374  0.00  0.00    +0.121 C 
ATOM      3  N   UNL     1      -9.355  -5.875   2.614  0.00  0.00    -0.294 N 
ATOM      4  C   UNL     1      -9.331  -7.357   2.584  0.00  0.00    +0.115 C 
ATOM      5  C   UNL     1      -7.845  -7.717   2.382  0.00  0.00    -0.004 C 
ATOM      6  C   UNL     1      -7.487  -8.958   3.194  0.00  0.00    -0.010 C 
ATOM      7  C   UNL     1      -8.237 -10.167   2.627  0.00  0.00    -0.082 C 
ATOM      8  N   UNL     1      -7.870 -10.356   1.218  0.00  0.00    +0.379 N 
ATOM      9  C   UNL     1      -8.302  -9.196   0.428  0.00  0.00    -0.082 C 
ATOM     10  C   UNL     1      -7.555  -7.946   0.902  0.00  0.00    -0.010 C 
ATOM     11  C   UNL     1     -10.275  -5.053   2.073  0.00  0.00    +0.282 C 
ATOM     12  O   UNL     1     -11.228  -5.516   1.473  0.00  0.00    -0.267 OA
ATOM     13  H   UNL     1      -6.869 -10.458   1.143  0.00  0.00    -0.086 HD
ATOM     14  H   UNL     1      -8.318 -11.188   0.864  0.00  0.00    -0.086 HD
ENDROOT
BRANCH  11  15
ATOM     15  C   UNL     1     -10.130  -3.601   2.206  0.00  0.00    +0.190 A 
ATOM     16  C   UNL     1     -10.995  -2.652   1.708  0.00  0.00    +0.055 A 
ATOM     17  C   UNL     1     -10.474  -1.404   2.064  0.00  0.00    +0.050 A 
ATOM     18  C   UNL     1      -9.321  -1.634   2.759  0.00  0.00    +0.136 A 
ATOM     19  O   UNL     1      -9.126  -2.961   2.843  0.00  0.00    -0.450 OA
BRANCH  18  20
ATOM     20  C   UNL     1      -8.437  -0.597   3.328  0.00  0.00    +0.017 A 
ATOM     21  C   UNL     1      -8.758   0.755   3.181  0.00  0.00    +0.014 A 
ATOM     22  C   UNL     1      -7.930   1.719   3.714  0.00  0.00    +0.039 A 
ATOM     23  C   UNL     1      -6.780   1.349   4.396  0.00  0.00    +0.123 A 
ATOM     24  C   UNL     1      -6.457   0.010   4.545  0.00  0.00    +0.039 A 
ATOM     25  C   UNL     1      -7.281  -0.963   4.020  0.00  0.00    +0.014 A 
ATOM     26  F   UNL     1      -5.973   2.299   4.917  0.00  0.00    -0.205 F 
ENDBRANCH  18  20
ENDBRANCH  11  15
BRANCH   1  28
ATOM     27  N   UNL     1      -4.962  -6.276   1.604  0.00  0.00    -0.312 N 
ATOM     28  C   UNL     1      -6.242  -5.894   1.784  0.00  0.00    +0.218 C 
ATOM     29  O   UNL     1      -6.736  -5.064   1.051  0.00  0.00    -0.275 OA
ATOM     30  H   UNL     1      -4.567  -6.940   2.191  0.00  0.00    +0.149 HD
BRANCH  27  36
ATOM     31  C   UNL     1      -1.251  -6.285  -2.308  0.00  0.00    +0.216 C 
ATOM     32  O   UNL     1      -1.553  -6.803  -3.362  0.00  0.00    -0.276 OA
ATOM     33  N   UNL     1      -2.207  -5.762  -1.515  0.00  0.00    -0.301 N 
ATOM     34  C   UNL     1      -1.855  -5.126  -0.238  0.00  0.00    +0.109 C 
ATOM     35  C   UNL     1      -2.681  -5.772   0.879  0.00  0.00    +0.041 C 
ATOM     36  C   UNL     1      -4.167  -5.689   0.523  0.00  0.00    +0.076 C 
ATOM     37  C   UNL     1      -4.426  -6.456  -0.776  0.00  0.00    +0.041 C 
ATOM     38  C   UNL     1      -3.620  -5.812  -1.914  0.00  0.00    +0.109 C 
BRANCH  31  39
ATOM     39  C   UNL     1       0.195  -6.225  -1.885  0.00  0.00    +0.099 C 
BRANCH  39  41
ATOM     40  C   UNL     1       2.542  -6.714  -2.587  0.00  0.00    +0.008 C 
ATOM     41  C   UNL     1       1.067  -6.884  -2.955  0.00  0.00    -0.008 C 
ATOM     42  C   UNL     1       0.731  -8.374  -3.041  0.00  0.00    +0.008 C 
ENDBRANCH  39  41
ENDBRANCH  31  39
ENDBRANCH  27  36
ENDBRANCH   1  28
TORSDOF 6
