REMARK  Name = ZINC13448155
REMARK  9 active torsions:
REMARK  status: ('A' for Active; 'I' for Inactive)
REMARK    1  A    between atoms: C_1  and  C_2
REMARK    2  A    between atoms: C_8  and  N_10
REMARK    3  A    between atoms: C_11  and  C_13
REMARK    4  A    between atoms: C_13  and  S_14
REMARK    5  A    between atoms: S_14  and  C_15
REMARK    6  A    between atoms: C_19  and  C_23
REMARK    7  A    between atoms: C_20  and  C_22
REMARK    8  A    between atoms: C_23  and  C_24
REMARK    9  A    between atoms: C_24  and  C_25
REMARK                            x       y       z     vdW  Elec       q    Type
REMARK                         _______ _______ _______ _____ _____    ______ ____
ROOT
ATOM      1  S   UNL     1       4.844   0.710   4.076  0.00  0.00    -0.077 S 
ENDROOT
BRANCH   1   2
ATOM      2  C   UNL     1       6.483   1.331   3.896  0.00  0.00    +0.192 A 
ATOM      3  N   UNL     1       6.933   1.627   2.685  0.00  0.00    -0.183 NA
ATOM      4  C   UNL     1       8.163   2.097   2.516  0.00  0.00    +0.277 A 
ATOM      5  O   UNL     1       8.619   2.398   1.276  0.00  0.00    -0.265 OA
ATOM      6  C   UNL     1       8.978   2.277   3.633  0.00  0.00    +0.040 A 
ATOM      7  C   UNL     1       8.471   1.957   4.879  0.00  0.00    +0.049 A 
ATOM      8  N   UNL     1       7.233   1.497   4.976  0.00  0.00    -0.227 NA
ATOM      9  C   UNL     1       9.317   2.135   6.114  0.00  0.00    +0.066 C 
BRANCH   6  10
ATOM     10  C   UNL     1      10.381   2.808   3.485  0.00  0.00    +0.054 C 
BRANCH  10  11
ATOM     11  C   UNL     1      10.361   4.335   3.579  0.00  0.00    +0.130 C 
BRANCH  11  12
ATOM     12  C   UNL     1      11.763   4.866   3.431  0.00  0.00    +0.356 C 
ATOM     13  O   UNL     1      12.693   4.094   3.266  0.00  0.00    -0.246 OA
ATOM     14  O   UNL     1      11.968   6.067   3.477  0.00  0.00    -0.246 OA
ENDBRANCH  11  12
ENDBRANCH  10  11
ENDBRANCH   6  10
ENDBRANCH   1   2
BRANCH   1  15
ATOM     15  C   UNL     1       4.209   0.649   2.377  0.00  0.00    +0.173 C 
BRANCH  15  17
ATOM     16  N   UNL     1       2.116  -0.004   1.231  0.00  0.00    -0.312 N 
ATOM     17  C   UNL     1       2.795   0.128   2.388  0.00  0.00    +0.224 C 
ATOM     18  O   UNL     1       2.268  -0.174   3.438  0.00  0.00    -0.275 OA
ATOM     19  H   UNL     1       2.538   0.237   0.392  0.00  0.00    +0.149 HD
BRANCH  16  26
ATOM     20  C   UNL     1      -0.019   1.526   0.010  0.00  0.00    +0.009 C 
ATOM     21  C   UNL     1       0.002  -0.004   0.002  0.00  0.00    +0.006 C 
ATOM     22  C   UNL     1      -1.433  -0.534   0.013  0.00  0.00    +0.005 C 
ATOM     23  C   UNL     1      -1.413  -2.063   0.004  0.00  0.00    +0.000 C 
ATOM     24  C   UNL     1      -0.673  -2.570   1.244  0.00  0.00    +0.002 C 
ATOM     25  C   UNL     1       0.763  -2.041   1.233  0.00  0.00    +0.022 C 
ATOM     26  C   UNL     1       0.742  -0.511   1.242  0.00  0.00    +0.076 C 
ENDBRANCH  16  26
ENDBRANCH  15  17
ENDBRANCH   1  15
TORSDOF 7
