REMARK  Name = ZINC13056085
REMARK  9 active torsions:
REMARK  status: ('A' for Active; 'I' for Inactive)
REMARK    1  A    between atoms: C_1  and  S_2
REMARK    2  A    between atoms: S_2  and  C_3
REMARK    3  A    between atoms: C_3  and  C_4
REMARK    4  A    between atoms: C_4  and  C_5
REMARK    5  A    between atoms: C_5  and  C_7
REMARK    6  A    between atoms: C_5  and  N_20
REMARK    7  A    between atoms: N_12  and  C_15
REMARK    8  A    between atoms: N_20  and  S_21
REMARK    9  A    between atoms: S_21  and  C_24
REMARK                            x       y       z     vdW  Elec       q    Type
REMARK                         _______ _______ _______ _____ _____    ______ ____
ROOT
ATOM      1  C   UNL     1       3.523   4.060  -0.177  0.00  0.00    +0.163 C 
ENDROOT
BRANCH   1   2
ATOM      2  C   UNL     1       3.609   5.537   0.112  0.00  0.00    +0.234 C 
ATOM      3  O   UNL     1       3.934   6.308  -0.765  0.00  0.00    -0.274 OA
ATOM      4  N   UNL     1       3.326   6.000   1.345  0.00  0.00    -0.297 N 
ATOM      5  C   UNL     1       3.028   5.074   2.449  0.00  0.00    +0.126 C 
ATOM      6  C   UNL     1       3.923   5.444   3.643  0.00  0.00    +0.125 C 
ATOM      7  N   UNL     1       3.743   6.867   3.961  0.00  0.00    -0.314 N 
ATOM      8  C   UNL     1       4.178   7.721   2.847  0.00  0.00    +0.125 C 
ATOM      9  C   UNL     1       3.299   7.444   1.622  0.00  0.00    +0.126 C 
BRANCH   7  10
ATOM     10  C   UNL     1       4.406   7.203   5.135  0.00  0.00    +0.099 A 
ATOM     11  C   UNL     1       4.131   6.505   6.307  0.00  0.00    +0.042 A 
ATOM     12  C   UNL     1       4.798   6.851   7.468  0.00  0.00    +0.005 A 
ATOM     13  C   UNL     1       5.723   7.886   7.418  0.00  0.00    +0.018 A 
ATOM     14  C   UNL     1       5.947   8.535   6.221  0.00  0.00    +0.084 A 
ATOM     15  N   UNL     1       5.314   8.219   5.059  0.00  0.00    -0.350 N 
ATOM     16  H   UNL     1       5.507   8.714   4.181  0.00  0.00    +0.166 HD
ENDBRANCH   7  10
ENDBRANCH   1   2
BRANCH   1  17
ATOM     17  N   UNL     1       4.267   3.758  -1.402  0.00  0.00    -0.178 NA
ATOM     18  H   UNL     1       3.841   3.862  -2.267  0.00  0.00    +0.149 HD
BRANCH  17  19
ATOM     19  S   UNL     1       5.837   3.238  -1.310  0.00  0.00    +0.059 S 
ATOM     20  O   UNL     1       6.271   3.018  -2.645  0.00  0.00    -0.153 OA
ATOM     21  O   UNL     1       6.508   4.128  -0.428  0.00  0.00    -0.153 OA
BRANCH  19  22
ATOM     22  C   UNL     1       5.819   1.664  -0.519  0.00  0.00    +0.105 A 
ATOM     23  C   UNL     1       5.856   1.583   0.860  0.00  0.00    +0.031 A 
ATOM     24  C   UNL     1       5.837   0.348   1.481  0.00  0.00    +0.040 A 
ATOM     25  C   UNL     1       5.791  -0.808   0.721  0.00  0.00    +0.124 A 
ATOM     26  C   UNL     1       5.760  -0.726  -0.661  0.00  0.00    +0.040 A 
ATOM     27  C   UNL     1       5.773   0.510  -1.280  0.00  0.00    +0.031 A 
ATOM     28  F   UNL     1       5.777  -2.015   1.327  0.00  0.00    -0.205 F 
ENDBRANCH  19  22
ENDBRANCH  17  19
ENDBRANCH   1  17
BRANCH   1  29
ATOM     29  C   UNL     1       2.057   3.661  -0.360  0.00  0.00    +0.040 C 
BRANCH  29  30
ATOM     30  C   UNL     1       1.957   2.142  -0.512  0.00  0.00    +0.071 C 
BRANCH  30  32
ATOM     31  C   UNL     1       0.261  -0.133  -0.863  0.00  0.00    +0.084 C 
ATOM     32  S   UNL     1       0.238   1.681  -0.862  0.00  0.00    -0.164 S 
ENDBRANCH  30  32
ENDBRANCH  29  30
ENDBRANCH   1  29
TORSDOF 8
