REMARK  Name = ZINC10334060
REMARK  7 active torsions:
REMARK  status: ('A' for Active; 'I' for Inactive)
REMARK    1  A    between atoms: C_10  and  C_11
REMARK    2  A    between atoms: C_11  and  C_13
REMARK    3  A    between atoms: C_11  and  N_55
REMARK    4  A    between atoms: C_13  and  N_14
REMARK    5  A    between atoms: C_15  and  C_17
REMARK    6  A    between atoms: N_19  and  C_20
REMARK    7  A    between atoms: C_25  and  C_26
REMARK                            x       y       z     vdW  Elec       q    Type
REMARK                         _______ _______ _______ _____ _____    ______ ____
ROOT
ATOM      1  C   UNL     1      -3.724   1.937   0.088  0.00  0.00    +0.094 C 
ENDROOT
BRANCH   1   2
ATOM      2  N   UNL     1      -3.541   2.518   1.420  0.00  0.00    -0.309 N 
ATOM      3  C   UNL     1      -2.569   3.428   1.630  0.00  0.00    +0.299 C 
ATOM      4  O   UNL     1      -1.845   3.765   0.716  0.00  0.00    -0.265 OA
ATOM      5  H   UNL     1      -4.119   2.248   2.150  0.00  0.00    +0.149 HD
BRANCH   3   6
ATOM      6  C   UNL     1      -2.382   4.020   2.989  0.00  0.00    +0.303 C 
ATOM      7  O   UNL     1      -3.105   3.682   3.903  0.00  0.00    -0.265 OA
ATOM      8  N   UNL     1      -1.406   4.925   3.200  0.00  0.00    -0.277 N 
ATOM      9  H   UNL     1      -0.785   5.144   2.488  0.00  0.00    +0.155 HD
BRANCH   8  10
ATOM     10  C   UNL     1      -1.290   5.546   4.441  0.00  0.00    +0.053 A 
ATOM     11  C   UNL     1      -1.600   4.850   5.601  0.00  0.00    +0.044 A 
ATOM     12  C   UNL     1      -1.483   5.468   6.832  0.00  0.00    +0.043 A 
ATOM     13  C   UNL     1      -1.056   6.784   6.918  0.00  0.00    +0.021 A 
ATOM     14  C   UNL     1      -0.745   7.490   5.776  0.00  0.00    +0.022 A 
ATOM     15  C   UNL     1      -0.853   6.877   4.526  0.00  0.00    +0.073 A 
ATOM     16 CL   UNL     1      -1.873   4.590   8.278  0.00  0.00    -0.083 Cl
BRANCH  15  17
ATOM     17  C   UNL     1      -0.525   7.604   3.336  0.00  0.00    +0.101 C 
ATOM     18  N   UNL     1      -0.264   8.181   2.393  0.00  0.00    -0.191 NA
ENDBRANCH  15  17
ENDBRANCH   8  10
ENDBRANCH   3   6
ENDBRANCH   1   2
BRANCH   1  19
ATOM     19  C   UNL     1      -4.963   1.038   0.089  0.00  0.00    -0.020 C 
BRANCH  19  29
ATOM     20  C   UNL     1      -8.106   3.796  -2.863  0.00  0.00    +0.001 A 
ATOM     21  C   UNL     1      -6.969   3.024  -3.095  0.00  0.00    +0.001 A 
ATOM     22  C   UNL     1      -6.332   2.390  -2.073  0.00  0.00    +0.009 A 
ATOM     23  C   UNL     1      -6.824   2.516  -0.762  0.00  0.00    -0.016 A 
ATOM     24  C   UNL     1      -7.980   3.302  -0.526  0.00  0.00    -0.018 A 
ATOM     25  C   UNL     1      -8.611   3.940  -1.607  0.00  0.00    +0.008 A 
ATOM     26  C   UNL     1      -8.472   3.427   0.784  0.00  0.00    +0.008 A 
ATOM     27  C   UNL     1      -7.834   2.795   1.806  0.00  0.00    +0.001 A 
ATOM     28  C   UNL     1      -6.701   2.018   1.574  0.00  0.00    +0.003 A 
ATOM     29  C   UNL     1      -6.192   1.878   0.319  0.00  0.00    -0.052 A 
ENDBRANCH  19  29
BRANCH  19  34
ATOM     30  C   UNL     1      -6.002  -0.887   1.157  0.00  0.00    -0.078 C 
ATOM     31  C   UNL     1      -5.475  -2.116   1.939  0.00  0.00    -0.020 C 
ATOM     32  C   UNL     1      -4.003  -2.215   1.477  0.00  0.00    -0.020 C 
ATOM     33  C   UNL     1      -3.647  -0.806   0.967  0.00  0.00    -0.078 C 
ATOM     34  N   UNL     1      -4.840   0.016   1.171  0.00  0.00    +0.385 N 
ATOM     35  H   UNL     1      -4.782   0.492   2.079  0.00  0.00    -0.081 HD
ENDBRANCH  19  34
ENDBRANCH   1  19
TORSDOF 7
