REMARK  Name = ZINC14125050
REMARK  5 active torsions:
REMARK  status: ('A' for Active; 'I' for Inactive)
REMARK    1  A    between atoms: C_1  and  C_2
REMARK    2  A    between atoms: C_7  and  N_8
REMARK    3  A    between atoms: C_9  and  C_11
REMARK    4  A    between atoms: C_11  and  N_12
REMARK    5  A    between atoms: C_13  and  C_15
REMARK                            x       y       z     vdW  Elec       q    Type
REMARK                         _______ _______ _______ _____ _____    ______ ____
ROOT
ATOM      1  N   UNL     1       1.237  -2.080  -0.021  0.00  0.00    -0.284 N 
ATOM      2  C   UNL     1       0.086  -2.773   0.087  0.00  0.00    +0.234 C 
ATOM      3  O   UNL     1      -0.976  -2.187   0.101  0.00  0.00    -0.274 OA
ATOM      4  H   UNL     1       2.081  -2.551  -0.098  0.00  0.00    +0.155 HD
ENDROOT
BRANCH   1  11
ATOM      5  C   UNL     1       3.399  -0.699   1.208  0.00  0.00    +0.046 C 
ATOM      6  C   UNL     1       2.249   0.033   0.565  0.00  0.00    -0.028 A 
ATOM      7  C   UNL     1       2.224   1.414   0.561  0.00  0.00    +0.020 A 
ATOM      8  C   UNL     1       1.169   2.086  -0.029  0.00  0.00    +0.018 A 
ATOM      9  C   UNL     1       0.136   1.377  -0.617  0.00  0.00    +0.017 A 
ATOM     10  C   UNL     1       0.156  -0.003  -0.616  0.00  0.00    +0.024 A 
ATOM     11  C   UNL     1       1.214  -0.681  -0.024  0.00  0.00    +0.036 A 
ATOM     12 BR   UNL     1       1.138   3.977  -0.033  0.00  0.00    -0.050 Br
ENDBRANCH   1  11
BRANCH   2  13
ATOM     13  C   UNL     1       0.118  -4.276   0.192  0.00  0.00    +0.200 C 
BRANCH  13  14
ATOM     14  N   UNL     1      -1.251  -4.787   0.299  0.00  0.00    -0.305 N 
ATOM     15  C   UNL     1      -1.469  -6.113   0.404  0.00  0.00    +0.242 C 
ATOM     16  O   UNL     1      -0.531  -6.883   0.410  0.00  0.00    -0.273 OA
ATOM     17  H   UNL     1      -2.000  -4.171   0.294  0.00  0.00    +0.149 HD
BRANCH  15  18
ATOM     18  C   UNL     1      -2.877  -6.639   0.514  0.00  0.00    +0.204 C 
ATOM     19  C   UNL     1      -3.650  -6.342  -0.785  0.00  0.00    +0.043 C 
ATOM     20  C   UNL     1      -4.095  -7.737  -1.289  0.00  0.00    +0.031 C 
ATOM     21  C   UNL     1      -4.016  -8.589   0.003  0.00  0.00    +0.161 C 
ATOM     22  O   UNL     1      -2.853  -8.067   0.681  0.00  0.00    -0.367 OA
ENDBRANCH  15  18
ENDBRANCH  13  14
ENDBRANCH   2  13
TORSDOF 4
