REMARK  Name = ZINC59210836
REMARK  10 active torsions:
REMARK  status: ('A' for Active; 'I' for Inactive)
REMARK    1  A    between atoms: C_1  and  C_2
REMARK    2  A    between atoms: C_5  and  C_8
REMARK    3  A    between atoms: C_8  and  O_9
REMARK    4  A    between atoms: O_9  and  C_10
REMARK    5  A    between atoms: C_13  and  C_16
REMARK    6  A    between atoms: C_18  and  C_25
REMARK    7  A    between atoms: C_19  and  C_24
REMARK    8  A    between atoms: N_27  and  C_28
REMARK    9  A    between atoms: C_31  and  C_35
REMARK   10  A    between atoms: C_33  and  C_34
REMARK                            x       y       z     vdW  Elec       q    Type
REMARK                         _______ _______ _______ _____ _____    ______ ____
ROOT
ATOM      1  C   UNL     1       2.671 -11.481  -0.794  0.00  0.00    +0.139 C 
ATOM      2  C   UNL     1       2.857 -11.247  -2.279  0.00  0.00    +0.056 C 
ATOM      3  C   UNL     1       4.108 -11.343  -2.778  0.00  0.00    +0.017 C 
ATOM      4  N   UNL     1       5.168 -11.641  -1.970  0.00  0.00    -0.300 N 
ATOM      5  C   UNL     1       5.061 -11.857  -0.653  0.00  0.00    +0.135 C 
ATOM      6  S   UNL     1       6.472 -12.222   0.244  0.00  0.00    -0.019 S 
ATOM      7  N   UNL     1       3.878 -11.795  -0.012  0.00  0.00    -0.315 N 
ATOM      8  C   UNL     1       4.338 -11.118  -4.250  0.00  0.00    +0.061 C 
ATOM      9  H   UNL     1       6.048 -11.700  -2.374  0.00  0.00    +0.154 HD
ATOM     10  H   UNL     1       3.823 -11.955   0.944  0.00  0.00    +0.149 HD
ENDROOT
BRANCH   1  14
ATOM     11  C   UNL     1       0.895  -7.972   0.880  0.00  0.00    +0.121 A 
ATOM     12  C   UNL     1       0.102  -9.062   0.549  0.00  0.00    +0.046 A 
ATOM     13  C   UNL     1       0.679 -10.195   0.008  0.00  0.00    +0.009 A 
ATOM     14  C   UNL     1       2.044 -10.243  -0.204  0.00  0.00    -0.022 A 
ATOM     15  C   UNL     1       2.836  -9.159   0.125  0.00  0.00    +0.009 A 
ATOM     16  C   UNL     1       2.264  -8.021   0.661  0.00  0.00    +0.046 A 
BRANCH  11  17
ATOM     17  O   UNL     1       0.330  -6.857   1.412  0.00  0.00    -0.487 OA
BRANCH  17  18
ATOM     18  C   UNL     1      -1.085  -6.877   1.609  0.00  0.00    +0.264 C 
BRANCH  18  23
ATOM     19  C   UNL     1      -2.788  -1.846   3.885  0.00  0.00    +0.044 C 
ATOM     20  C   UNL     1      -2.344  -3.158   3.292  0.00  0.00    -0.050 A 
ATOM     21  C   UNL     1      -2.299  -3.315   1.919  0.00  0.00    +0.004 A 
ATOM     22  C   UNL     1      -1.891  -4.519   1.375  0.00  0.00    +0.007 A 
ATOM     23  C   UNL     1      -1.528  -5.564   2.203  0.00  0.00    -0.010 A 
ATOM     24  C   UNL     1      -1.572  -5.407   3.575  0.00  0.00    +0.007 A 
ATOM     25  C   UNL     1      -1.976  -4.202   4.120  0.00  0.00    +0.004 A 
ENDBRANCH  18  23
ENDBRANCH  17  18
ENDBRANCH  11  17
ENDBRANCH   1  14
BRANCH   2  26
ATOM     26  C   UNL     1       1.757 -10.938  -3.116  0.00  0.00    +0.248 C 
ATOM     27  O   UNL     1       1.014 -11.825  -3.496  0.00  0.00    -0.270 OA
ATOM     28  N   UNL     1       1.533  -9.663  -3.491  0.00  0.00    -0.281 N 
ATOM     29  H   UNL     1       2.079  -8.948  -3.129  0.00  0.00    +0.155 HD
BRANCH  28  30
ATOM     30  C   UNL     1       0.514  -9.372  -4.404  0.00  0.00    +0.037 A 
ATOM     31  C   UNL     1      -0.720 -10.001  -4.293  0.00  0.00    +0.024 A 
ATOM     32  C   UNL     1      -1.724  -9.712  -5.195  0.00  0.00    +0.005 A 
ATOM     33  C   UNL     1      -1.503  -8.796  -6.208  0.00  0.00    -0.050 A 
ATOM     34  C   UNL     1      -0.277  -8.169  -6.321  0.00  0.00    +0.008 A 
ATOM     35  C   UNL     1       0.730  -8.449  -5.418  0.00  0.00    -0.029 A 
ATOM     36  C   UNL     1       2.065  -7.759  -5.538  0.00  0.00    +0.045 C 
ATOM     37  C   UNL     1      -2.602  -8.483  -7.191  0.00  0.00    +0.044 C 
ENDBRANCH  28  30
ENDBRANCH   2  26
TORSDOF 6
