REMARK  Name = ZINC09364458
REMARK  7 active torsions:
REMARK  status: ('A' for Active; 'I' for Inactive)
REMARK    1  A    between atoms: C_1  and  C_2
REMARK    2  A    between atoms: C_6  and  N_8
REMARK    3  A    between atoms: C_9  and  C_30
REMARK    4  A    between atoms: C_12  and  S_13
REMARK    5  A    between atoms: S_13  and  C_14
REMARK    6  A    between atoms: C_14  and  C_15
REMARK    7  A    between atoms: N_17  and  N_18
REMARK                            x       y       z     vdW  Elec       q    Type
REMARK                         _______ _______ _______ _____ _____    ______ ____
ROOT
ATOM      1  S   UNL     1       1.347   5.608  -2.357  0.00  0.00    -0.076 S 
ENDROOT
BRANCH   1   6
ATOM      2  N   UNL     1      -0.032   5.245   0.053  0.00  0.00    -0.270 N 
ATOM      3  C   UNL     1      -0.625   6.064   0.989  0.00  0.00    +0.169 A 
ATOM      4  N   UNL     1      -0.451   7.301   0.584  0.00  0.00    -0.128 NA
ATOM      5  N   UNL     1       0.194   7.313  -0.528  0.00  0.00    -0.122 NA
ATOM      6  C   UNL     1       0.476   6.084  -0.901  0.00  0.00    +0.197 A 
BRANCH   2  12
ATOM      7  C   UNL     1       2.636   1.134   0.465  0.00  0.00    +0.044 C 
ATOM      8  C   UNL     1       1.312   1.827   0.269  0.00  0.00    -0.048 A 
ATOM      9  C   UNL     1       0.159   1.081   0.107  0.00  0.00    +0.003 A 
ATOM     10  C   UNL     1      -1.056   1.714  -0.078  0.00  0.00    +0.002 A 
ATOM     11  C   UNL     1      -1.124   3.094  -0.091  0.00  0.00    +0.026 A 
ATOM     12  C   UNL     1       0.032   3.845   0.071  0.00  0.00    +0.051 A 
ATOM     13  C   UNL     1       1.252   3.207   0.251  0.00  0.00    +0.029 A 
ENDBRANCH   2  12
BRANCH   3  14
ATOM     14  C   UNL     1      -1.323   5.632   2.218  0.00  0.00    +0.020 A 
ATOM     15  C   UNL     1      -2.181   6.510   2.882  0.00  0.00    +0.011 A 
ATOM     16  C   UNL     1      -2.833   6.099   4.026  0.00  0.00    +0.001 A 
ATOM     17  C   UNL     1      -2.630   4.823   4.522  0.00  0.00    +0.000 A 
ATOM     18  C   UNL     1      -1.776   3.950   3.871  0.00  0.00    +0.001 A 
ATOM     19  C   UNL     1      -1.122   4.346   2.723  0.00  0.00    +0.011 A 
ENDBRANCH   3  14
ENDBRANCH   1   6
BRANCH   1  20
ATOM     20  C   UNL     1       1.675   7.237  -3.074  0.00  0.00    +0.174 C 
BRANCH  20  21
ATOM     21  C   UNL     1       2.433   7.073  -4.366  0.00  0.00    +0.240 C 
ATOM     22  O   UNL     1       2.724   5.964  -4.762  0.00  0.00    -0.273 OA
ATOM     23  N   UNL     1       2.789   8.159  -5.081  0.00  0.00    -0.223 N 
ATOM     24  H   UNL     1       2.557   9.045  -4.763  0.00  0.00    +0.174 HD
BRANCH  23  25
ATOM     25  N   UNL     1       3.495   8.006  -6.282  0.00  0.00    -0.137 N 
ATOM     26  C   UNL     1       2.949   8.160  -7.506  0.00  0.00    +0.263 C 
ATOM     27  O   UNL     1       1.800   8.446  -7.767  0.00  0.00    -0.271 OA
ATOM     28  C   UNL     1       4.073   7.902  -8.484  0.00  0.00    +0.114 C 
ATOM     29  C   UNL     1       4.338   9.143  -9.329  0.00  0.00    +0.035 C 
ATOM     30  C   UNL     1       5.496   8.871 -10.292  0.00  0.00    +0.003 C 
ATOM     31  C   UNL     1       5.140   7.687 -11.193  0.00  0.00    +0.000 C 
ATOM     32  C   UNL     1       4.902   6.444 -10.333  0.00  0.00    +0.003 C 
ATOM     33  C   UNL     1       3.742   6.706  -9.370  0.00  0.00    +0.035 C 
ATOM     34  N   UNL     1       5.229   7.605  -7.628  0.00  0.00    -0.284 N 
ATOM     35  C   UNL     1       4.795   7.696  -6.356  0.00  0.00    +0.326 C 
ATOM     36  O   UNL     1       5.503   7.513  -5.386  0.00  0.00    -0.251 OA
ATOM     37  H   UNL     1       6.128   7.390  -7.921  0.00  0.00    +0.151 HD
ENDBRANCH  23  25
ENDBRANCH  20  21
ENDBRANCH   1  20
TORSDOF 6
