REMARK  Name = ZINC65640586
REMARK  5 active torsions:
REMARK  status: ('A' for Active; 'I' for Inactive)
REMARK    1  A    between atoms: C_1  and  N_2
REMARK    2  A    between atoms: N_2  and  C_3
REMARK    3  A    between atoms: C_5  and  C_10
REMARK    4  A    between atoms: C_10  and  N_11
REMARK    5  A    between atoms: C_12  and  C_14
REMARK                            x       y       z     vdW  Elec       q    Type
REMARK                         _______ _______ _______ _____ _____    ______ ____
ROOT
ATOM      1  N   UNL     1       0.572  -2.873   1.612  0.00  0.00    -0.305 N 
ATOM      2  C   UNL     1       1.726  -3.485   1.946  0.00  0.00    +0.283 C 
ATOM      3  O   UNL     1       2.408  -4.007   1.087  0.00  0.00    -0.267 OA
ATOM      4  H   UNL     1       0.028  -2.455   2.298  0.00  0.00    +0.149 HD
ENDROOT
BRANCH   2   5
ATOM      5  C   UNL     1       2.163  -3.519   3.361  0.00  0.00    +0.238 A 
ATOM      6  N   UNL     1       1.497  -2.987   4.388  0.00  0.00    -0.185 NA
ATOM      7  C   UNL     1       2.165  -3.197   5.512  0.00  0.00    +0.253 A 
ATOM      8  N   UNL     1       1.916  -2.864   6.786  0.00  0.00    -0.218 NA
ATOM      9  C   UNL     1       2.750  -3.193   7.744  0.00  0.00    +0.131 A 
ATOM     10  C   UNL     1       3.923  -3.903   7.450  0.00  0.00    +0.054 A 
ATOM     11  C   UNL     1       4.186  -4.246   6.163  0.00  0.00    +0.133 A 
ATOM     12  N   UNL     1       3.301  -3.890   5.191  0.00  0.00    -0.202 N 
ATOM     13  N   UNL     1       3.269  -4.087   3.804  0.00  0.00    -0.139 NA
ATOM     14 BR   UNL     1       5.125  -4.377   8.831  0.00  0.00    -0.047 Br
ENDBRANCH   2   5
BRANCH   1  15
ATOM     15  C   UNL     1       0.140  -2.838   0.212  0.00  0.00    +0.143 C 
BRANCH  15  20
ATOM     16  C   UNL     1       0.448   0.459   1.550  0.00  0.00    +0.130 C 
ATOM     17  N   UNL     1      -0.012   0.003   0.236  0.00  0.00    -0.323 N 
ATOM     18  C   UNL     1       0.779   0.299  -0.961  0.00  0.00    +0.130 C 
ATOM     19  C   UNL     1      -1.200  -0.710   0.125  0.00  0.00    +0.103 A 
ATOM     20  C   UNL     1      -1.170  -2.101   0.110  0.00  0.00    +0.008 A 
ATOM     21  C   UNL     1      -2.360  -2.798  -0.002  0.00  0.00    +0.010 A 
ATOM     22  C   UNL     1      -3.543  -2.078  -0.095  0.00  0.00    +0.018 A 
ATOM     23  C   UNL     1      -3.499  -0.699  -0.073  0.00  0.00    +0.084 A 
ATOM     24  N   UNL     1      -2.350  -0.060   0.039  0.00  0.00    -0.349 N 
ATOM     25  H   UNL     1      -2.348   0.910   0.056  0.00  0.00    +0.167 HD
ENDBRANCH  15  20
ENDBRANCH   1  15
TORSDOF 3
