REMARK  Name = ZINC39566649
REMARK  10 active torsions:
REMARK  status: ('A' for Active; 'I' for Inactive)
REMARK    1  A    between atoms: C_1  and  C_2
REMARK    2  A    between atoms: C_2  and  C_3
REMARK    3  A    between atoms: C_3  and  C_5
REMARK    4  A    between atoms: C_3  and  C_6
REMARK    5  A    between atoms: C_11  and  N_12
REMARK    6  A    between atoms: C_13  and  C_15
REMARK    7  A    between atoms: C_15  and  C_17
REMARK    8  A    between atoms: C_15  and  O_18
REMARK    9  A    between atoms: O_18  and  C_19
REMARK   10  A    between atoms: C_19  and  C_21
REMARK                            x       y       z     vdW  Elec       q    Type
REMARK                         _______ _______ _______ _____ _____    ______ ____
ROOT
ATOM      1  O   UNL     1      -4.066  -2.302   5.478  0.00  0.00    -0.449 OA
ENDROOT
BRANCH   1   2
ATOM      2  C   UNL     1      -3.601  -1.481   4.405  0.00  0.00    +0.259 C 
ATOM      3  C   UNL     1      -2.615  -0.444   4.946  0.00  0.00    +0.062 C 
BRANCH   2   5
ATOM      4  N   UNL     1      -2.480  -1.795   2.223  0.00  0.00    -0.282 N 
ATOM      5  C   UNL     1      -2.912  -2.341   3.376  0.00  0.00    +0.258 C 
ATOM      6  O   UNL     1      -2.748  -3.524   3.587  0.00  0.00    -0.271 OA
ATOM      7  H   UNL     1      -2.560  -0.839   2.078  0.00  0.00    +0.155 HD
BRANCH   4  13
ATOM      8  C   UNL     1      -1.960  -2.215  -0.098  0.00  0.00    -0.023 A 
ATOM      9  C   UNL     1      -1.396  -3.017  -1.072  0.00  0.00    +0.006 A 
ATOM     10  C   UNL     1      -0.793  -4.211  -0.723  0.00  0.00    +0.000 A 
ATOM     11  C   UNL     1      -0.752  -4.607   0.602  0.00  0.00    +0.002 A 
ATOM     12  C   UNL     1      -1.313  -3.810   1.580  0.00  0.00    +0.023 A 
ATOM     13  C   UNL     1      -1.915  -2.607   1.233  0.00  0.00    +0.037 A 
BRANCH   8  14
ATOM     14  C   UNL     1      -2.616  -0.913  -0.480  0.00  0.00    +0.017 C 
ATOM     15  C   UNL     1      -3.693  -1.175  -1.534  0.00  0.00    +0.012 C 
BRANCH  14  17
ATOM     16  C   UNL     1      -2.206   1.403  -1.321  0.00  0.00    +0.004 C 
ATOM     17  C   UNL     1      -1.565   0.040  -1.050  0.00  0.00    +0.004 C 
ENDBRANCH  14  17
ENDBRANCH   8  14
ENDBRANCH   4  13
ENDBRANCH   2   5
ENDBRANCH   1   2
BRANCH   1  18
ATOM     18  C   UNL     1      -5.172  -1.890   6.129  0.00  0.00    +0.340 C 
ATOM     19  O   UNL     1      -5.726  -0.862   5.794  0.00  0.00    -0.245 OA
BRANCH  18  20
ATOM     20  C   UNL     1      -5.709  -2.687   7.247  0.00  0.00    +0.060 A 
ATOM     21  C   UNL     1      -5.077  -3.870   7.646  0.00  0.00    +0.017 A 
ATOM     22  C   UNL     1      -5.567  -4.618   8.684  0.00  0.00    +0.025 A 
ATOM     23  C   UNL     1      -6.724  -4.220   9.383  0.00  0.00    +0.050 A 
ATOM     24  C   UNL     1      -7.338  -3.033   8.964  0.00  0.00    +0.038 A 
ATOM     25  C   UNL     1      -6.857  -2.271   7.932  0.00  0.00    +0.032 A 
ATOM     26  S   UNL     1      -8.726  -2.878  10.062  0.00  0.00    -0.051 S 
ATOM     27  C   UNL     1      -8.448  -4.359  11.009  0.00  0.00    +0.186 C 
ATOM     28  N   UNL     1      -9.181  -4.792  11.989  0.00  0.00    -0.110 NA
ATOM     29  S   UNL     1      -8.751  -6.207  12.747  0.00  0.00    +0.073 S 
ATOM     30  O   UNL     1      -7.902  -5.811  13.816  0.00  0.00    -0.151 OA
ATOM     31  O   UNL     1      -9.978  -6.879  13.000  0.00  0.00    -0.151 OA
ATOM     32  C   UNL     1      -7.796  -7.088  11.473  0.00  0.00    +0.212 C 
ATOM     33  C   UNL     1      -6.698  -6.156  10.957  0.00  0.00    +0.137 C 
ATOM     34  N   UNL     1      -7.310  -4.900  10.455  0.00  0.00    -0.276 N 
ENDBRANCH  18  20
ENDBRANCH   1  18
TORSDOF 7
