REMARK  Name = ZINC21219146
REMARK  8 active torsions:
REMARK  status: ('A' for Active; 'I' for Inactive)
REMARK    1  A    between atoms: C_1  and  C_2
REMARK    2  A    between atoms: C_2  and  O_3
REMARK    3  A    between atoms: O_3  and  C_4
REMARK    4  A    between atoms: C_7  and  C_12
REMARK    5  A    between atoms: C_9  and  O_10
REMARK    6  A    between atoms: O_10  and  C_11
REMARK    7  A    between atoms: C_17  and  C_27
REMARK    8  A    between atoms: C_31  and  N_33
REMARK                            x       y       z     vdW  Elec       q    Type
REMARK                         _______ _______ _______ _____ _____    ______ ____
ROOT
ATOM      1  C   UNL     1      -1.819   4.671  -2.995  0.00  0.00    +0.032 C 
ATOM      2  C   UNL     1      -0.789   3.602  -3.354  0.00  0.00    +0.059 C 
ATOM      3  C   UNL     1      -0.488   2.743  -2.138  0.00  0.00    +0.017 C 
ATOM      4  C   UNL     1      -1.442   2.500  -1.222  0.00  0.00    +0.036 C 
ATOM      5  C   UNL     1      -1.280   1.661   0.017  0.00  0.00    +0.136 C 
ATOM      6  N   UNL     1      -0.062   0.882   0.070  0.00  0.00    -0.331 N 
ATOM      7  C   UNL     1       1.185   1.502   0.127  0.00  0.00    +0.049 A 
ATOM      8  C   UNL     1       2.011   1.369   1.232  0.00  0.00    +0.025 A 
ATOM      9  C   UNL     1       3.220   2.042   1.262  0.00  0.00    +0.002 A 
ATOM     10  C   UNL     1       3.602   2.843   0.201  0.00  0.00    +0.002 A 
ATOM     11  C   UNL     1       2.787   2.964  -0.912  0.00  0.00    +0.025 A 
ATOM     12  C   UNL     1       1.588   2.273  -0.953  0.00  0.00    +0.052 A 
ATOM     13  N   UNL     1       0.778   2.257  -2.082  0.00  0.00    -0.316 N 
ATOM     14  C   UNL     1      -2.732   3.059  -1.373  0.00  0.00    +0.163 C 
ATOM     15  O   UNL     1      -3.582   2.804  -0.542  0.00  0.00    -0.292 OA
ATOM     16  C   UNL     1      -3.089   3.956  -2.520  0.00  0.00    +0.088 C 
ATOM     17  H   UNL     1      -0.112  -0.217   0.066  0.00  0.00    +0.147 HD
ATOM     18  H   UNL     1       1.235   1.809  -2.977  0.00  0.00    +0.152 HD
ENDROOT
BRANCH   1  22
ATOM     19  C   UNL     1      -2.696   7.051  -6.438  0.00  0.00    +0.162 A 
ATOM     20  C   UNL     1      -2.934   5.686  -6.457  0.00  0.00    +0.050 A 
ATOM     21  C   UNL     1      -2.650   4.920  -5.342  0.00  0.00    +0.008 A 
ATOM     22  C   UNL     1      -2.127   5.512  -4.207  0.00  0.00    -0.040 A 
ATOM     23  C   UNL     1      -1.892   6.874  -4.180  0.00  0.00    +0.053 A 
ATOM     24  C   UNL     1      -2.171   7.647  -5.296  0.00  0.00    +0.162 A 
BRANCH  24  25
ATOM     25  O   UNL     1      -1.936   8.986  -5.272  0.00  0.00    -0.491 OA
ATOM     26  C   UNL     1      -1.396   9.529  -4.066  0.00  0.00    +0.277 C 
ENDBRANCH  24  25
BRANCH  19  27
ATOM     27  O   UNL     1      -2.976   7.807  -7.534  0.00  0.00    -0.489 OA
BRANCH  27  29
ATOM     28  C   UNL     1      -3.762   8.134  -9.795  0.00  0.00    +0.048 C 
ATOM     29  C   UNL     1      -3.514   7.127  -8.670  0.00  0.00    +0.226 C 
ENDBRANCH  27  29
ENDBRANCH  19  27
ENDBRANCH   1  22
BRANCH   5  30
ATOM     30  C   UNL     1      -1.314   2.576   1.215  0.00  0.00    -0.021 A 
ATOM     31  C   UNL     1      -2.353   2.488   2.123  0.00  0.00    +0.006 A 
ATOM     32  C   UNL     1      -2.382   3.323   3.223  0.00  0.00    +0.003 A 
ATOM     33  C   UNL     1      -1.377   4.254   3.411  0.00  0.00    +0.033 A 
ATOM     34  C   UNL     1      -0.341   4.346   2.500  0.00  0.00    +0.127 A 
ATOM     35  C   UNL     1      -0.310   3.506   1.402  0.00  0.00    +0.038 A 
BRANCH  34  36
ATOM     36  N   UNL     1       0.735   5.342   2.701  0.00  0.00    +0.056 N 
ATOM     37  O   UNL     1       1.647   5.423   1.899  0.00  0.00    -0.126 OA
ATOM     38  O   UNL     1       0.707   6.082   3.669  0.00  0.00    -0.126 OA
ENDBRANCH  34  36
ENDBRANCH   5  30
TORSDOF 6
