REMARK  Name = ZINC34682160
REMARK  6 active torsions:
REMARK  status: ('A' for Active; 'I' for Inactive)
REMARK    1  A    between atoms: C_4  and  O_31
REMARK    2  A    between atoms: C_5  and  C_7
REMARK    3  A    between atoms: C_7  and  N_8
REMARK    4  A    between atoms: C_17  and  N_20
REMARK    5  A    between atoms: N_20  and  S_21
REMARK    6  A    between atoms: S_21  and  C_24
REMARK                            x       y       z     vdW  Elec       q    Type
REMARK                         _______ _______ _______ _____ _____    ______ ____
ROOT
ATOM      1  N   UNL     1       1.458  -2.583   1.404  0.00  0.00    +0.384 N 
ATOM      2  C   UNL     1       2.753  -2.124   1.921  0.00  0.00    -0.059 C 
ATOM      3  C   UNL     1       2.873  -2.500   3.402  0.00  0.00    +0.088 C 
ATOM      4  N   UNL     1       2.645  -3.948   3.535  0.00  0.00    -0.319 N 
ATOM      5  C   UNL     1       1.448  -4.522   2.902  0.00  0.00    +0.088 C 
ATOM      6  C   UNL     1       1.394  -4.050   1.445  0.00  0.00    -0.059 C 
ATOM      7  C   UNL     1       3.538  -4.752   4.240  0.00  0.00    +0.121 A 
ATOM      8  C   UNL     1       4.545  -4.161   4.996  0.00  0.00    +0.045 A 
ATOM      9  C   UNL     1       5.426  -4.968   5.692  0.00  0.00    +0.029 A 
ATOM     10  C   UNL     1       5.268  -6.351   5.608  0.00  0.00    +0.066 A 
ATOM     11  C   UNL     1       4.241  -6.868   4.835  0.00  0.00    +0.137 A 
ATOM     12  N   UNL     1       3.415  -6.068   4.187  0.00  0.00    -0.238 NA
ATOM     13  H   UNL     1       0.717  -2.200   1.972  0.00  0.00    -0.081 HD
ENDROOT
BRANCH  10  14
ATOM     14  N   UNL     1       6.138  -7.207   6.296  0.00  0.00    -0.215 N 
ATOM     15  H   UNL     1       7.095  -7.051   6.268  0.00  0.00    +0.174 HD
BRANCH  14  16
ATOM     16  S   UNL     1       5.531  -8.484   7.158  0.00  0.00    +0.072 S 
ATOM     17  O   UNL     1       4.723  -9.233   6.261  0.00  0.00    -0.150 OA
ATOM     18  O   UNL     1       6.627  -9.059   7.857  0.00  0.00    -0.150 OA
BRANCH  16  19
ATOM     19  C   UNL     1       4.447  -7.822   8.379  0.00  0.00    +0.109 A 
ATOM     20  C   UNL     1       4.958  -7.356   9.576  0.00  0.00    +0.031 A 
ATOM     21  C   UNL     1       4.109  -6.835  10.534  0.00  0.00    +0.040 A 
ATOM     22  C   UNL     1       2.746  -6.781  10.295  0.00  0.00    +0.124 A 
ATOM     23  C   UNL     1       2.236  -7.248   9.095  0.00  0.00    +0.040 A 
ATOM     24  C   UNL     1       3.087  -7.763   8.137  0.00  0.00    +0.031 A 
ATOM     25  F   UNL     1       1.915  -6.273  11.231  0.00  0.00    -0.205 F 
ENDBRANCH  16  19
ENDBRANCH  14  16
ENDBRANCH  10  14
BRANCH   1  26
ATOM     26  C   UNL     1       1.296  -2.127   0.017  0.00  0.00    -0.039 C 
BRANCH  26  31
ATOM     27  C   UNL     1       2.205   1.507  -0.456  0.00  0.00    +0.000 A 
ATOM     28  C   UNL     1       1.042   2.140  -0.057  0.00  0.00    +0.004 A 
ATOM     29  C   UNL     1      -0.041   1.395   0.367  0.00  0.00    +0.045 A 
ATOM     30  C   UNL     1       0.039   0.010   0.392  0.00  0.00    +0.118 A 
ATOM     31  C   UNL     1       1.206  -0.623  -0.009  0.00  0.00    -0.022 A 
ATOM     32  C   UNL     1       2.287   0.128  -0.432  0.00  0.00    +0.005 A 
BRANCH  30  33
ATOM     33  O   UNL     1      -1.025  -0.725   0.809  0.00  0.00    -0.507 OA
ATOM     34  H   UNL     1      -1.675  -0.905   0.117  0.00  0.00    +0.292 HD
ENDBRANCH  30  33
ENDBRANCH  26  31
ENDBRANCH   1  26
TORSDOF 6
