REMARK  Name = ZINC65442680
REMARK  8 active torsions:
REMARK  status: ('A' for Active; 'I' for Inactive)
REMARK    1  A    between atoms: C_1  and  N_2
REMARK    2  A    between atoms: N_2  and  C_3
REMARK    3  A    between atoms: N_2  and  C_4
REMARK    4  A    between atoms: C_4  and  C_10
REMARK    5  A    between atoms: C_10  and  N_11
REMARK    6  A    between atoms: N_14  and  C_15
REMARK    7  A    between atoms: N_14  and  C_21
REMARK    8  A    between atoms: C_15  and  C_16
REMARK                            x       y       z     vdW  Elec       q    Type
REMARK                         _______ _______ _______ _____ _____    ______ ____
ROOT
ATOM      1  N   UNL     1      -1.478  -0.366  -2.435  0.00  0.00    -0.301 N 
ATOM      2  C   UNL     1      -1.868  -0.025  -3.679  0.00  0.00    +0.303 C 
ATOM      3  O   UNL     1      -2.783   0.761  -3.835  0.00  0.00    -0.253 OA
ATOM      4  N   UNL     1      -1.243  -0.553  -4.750  0.00  0.00    -0.278 N 
ATOM      5  H   UNL     1      -0.800  -1.048  -2.309  0.00  0.00    +0.150 HD
ENDROOT
BRANCH   4   6
ATOM      6  C   UNL     1      -0.214  -1.579  -4.565  0.00  0.00    +0.078 C 
ATOM      7  C   UNL     1       0.521  -2.076  -5.812  0.00  0.00    +0.024 C 
ATOM      8  C   UNL     1      -0.503  -2.977  -5.117  0.00  0.00    +0.024 C 
ENDBRANCH   4   6
BRANCH   1   9
ATOM      9  C   UNL     1      -2.078   0.293  -1.272  0.00  0.00    +0.094 C 
BRANCH   9  10
ATOM     10  C   UNL     1      -1.464  -0.274   0.009  0.00  0.00    -0.050 C 
ATOM     11  C   UNL     1      -2.091   0.414   1.223  0.00  0.00    -0.010 C 
ATOM     12  C   UNL     1      -3.600   0.165   1.228  0.00  0.00    -0.001 C 
ATOM     13  C   UNL     1      -3.869  -1.339   1.299  0.00  0.00    -0.000 C 
ATOM     14  C   UNL     1      -3.242  -2.028   0.085  0.00  0.00    -0.001 C 
ATOM     15  C   UNL     1      -1.733  -1.779   0.081  0.00  0.00    -0.010 C 
BRANCH  10  17
ATOM     16  C   UNL     1       0.243   1.409  -0.064  0.00  0.00    -0.096 C 
ATOM     17  N   UNL     1      -0.015  -0.035   0.005  0.00  0.00    +0.381 N 
ATOM     18  C   UNL     1       0.575  -0.580   1.235  0.00  0.00    -0.096 C 
ATOM     19  H   UNL     1       0.399  -0.489  -0.796  0.00  0.00    -0.082 HD
ENDBRANCH  10  17
ENDBRANCH   9  10
ENDBRANCH   1   9
BRANCH   4  20
ATOM     20  C   UNL     1      -1.593  -0.102  -6.099  0.00  0.00    +0.145 C 
BRANCH  20  21
ATOM     21  C   UNL     1      -0.752   1.095  -6.462  0.00  0.00    -0.023 A 
ATOM     22  C   UNL     1      -1.144   2.367  -6.089  0.00  0.00    +0.013 A 
ATOM     23  C   UNL     1      -0.364   3.422  -6.432  0.00  0.00    +0.045 A 
ATOM     24  S   UNL     1       0.971   2.625  -7.309  0.00  0.00    -0.105 S 
ATOM     25  C   UNL     1       0.403   0.939  -7.154  0.00  0.00    +0.050 A 
ENDBRANCH  20  21
ENDBRANCH   4  20
TORSDOF 6
