REMARK  Name = ZINC66842896
REMARK  7 active torsions:
REMARK  status: ('A' for Active; 'I' for Inactive)
REMARK    1  A    between atoms: C_1  and  C_2
REMARK    2  A    between atoms: C_2  and  S_3
REMARK    3  A    between atoms: S_3  and  N_6
REMARK    4  A    between atoms: N_6  and  C_7
REMARK    5  A    between atoms: N_6  and  C_8
REMARK    6  A    between atoms: C_14  and  C_16
REMARK    7  A    between atoms: C_23  and  N_26
REMARK                            x       y       z     vdW  Elec       q    Type
REMARK                         _______ _______ _______ _____ _____    ______ ____
ROOT
ATOM      1  C   UNL     1      -0.961  -2.708   2.542  0.00  0.00    +0.082 C 
ATOM      2  C   UNL     1      -0.378  -3.687   3.564  0.00  0.00    +0.039 C 
ATOM      3  C   UNL     1      -1.447  -4.713   3.951  0.00  0.00    +0.109 C 
ATOM      4  N   UNL     1      -1.957  -5.349   2.728  0.00  0.00    -0.297 N 
ATOM      5  C   UNL     1      -2.458  -4.494   1.643  0.00  0.00    +0.109 C 
ATOM      6  C   UNL     1      -1.377  -3.470   1.282  0.00  0.00    +0.039 C 
ATOM      7  C   UNL     1      -1.963  -6.691   2.604  0.00  0.00    +0.249 C 
ATOM      8  O   UNL     1      -2.458  -7.208   1.621  0.00  0.00    -0.270 OA
ENDROOT
BRANCH   7   9
ATOM      9  C   UNL     1      -1.373  -7.529   3.656  0.00  0.00    +0.062 A 
ATOM     10  C   UNL     1      -1.615  -7.448   4.996  0.00  0.00    +0.096 A 
ATOM     11  N   UNL     1      -0.887  -8.385   5.650  0.00  0.00    -0.360 N 
ATOM     12  H   UNL     1      -0.895  -8.520   6.611  0.00  0.00    +0.165 HD
ATOM     13  C   UNL     1      -0.135  -9.121   4.758  0.00  0.00    +0.047 A 
ATOM     14  C   UNL     1      -0.406  -8.627   3.471  0.00  0.00    +0.014 A 
ATOM     15  C   UNL     1       0.216  -9.191   2.361  0.00  0.00    +0.043 A 
ATOM     16  C   UNL     1       1.096 -10.238   2.531  0.00  0.00    +0.127 A 
ATOM     17  C   UNL     1       1.361 -10.730   3.801  0.00  0.00    +0.035 A 
ATOM     18  C   UNL     1       0.759 -10.175   4.909  0.00  0.00    +0.028 A 
BRANCH  16  19
ATOM     19  N   UNL     1       1.760 -10.841   1.353  0.00  0.00    +0.056 N 
ATOM     20  O   UNL     1       1.530 -10.415   0.246  0.00  0.00    -0.126 OA
ATOM     21  O   UNL     1       2.532 -11.760   1.499  0.00  0.00    -0.126 OA
ENDBRANCH  16  19
ENDBRANCH   7   9
BRANCH   1  22
ATOM     22  N   UNL     1       0.049  -1.705   2.195  0.00  0.00    -0.181 NA
ATOM     23  C   UNL     1       1.320  -2.122   1.597  0.00  0.00    +0.131 C 
BRANCH  22  24
ATOM     24  S   UNL     1      -0.246  -0.100   2.477  0.00  0.00    +0.032 S 
ATOM     25  O   UNL     1       1.040   0.484   2.629  0.00  0.00    -0.158 OA
ATOM     26  O   UNL     1      -1.179  -0.086   3.548  0.00  0.00    -0.158 OA
BRANCH  24  28
ATOM     27  C   UNL     1      -1.351   1.992   1.105  0.00  0.00    +0.029 C 
ATOM     28  C   UNL     1      -1.031   0.504   0.957  0.00  0.00    +0.182 C 
ENDBRANCH  24  28
ENDBRANCH  22  24
ENDBRANCH   1  22
TORSDOF 5
