REMARK  Name = ZINC09124696
REMARK  12 active torsions:
REMARK  status: ('A' for Active; 'I' for Inactive)
REMARK    1  A    between atoms: C_1  and  C_2
REMARK    2  A    between atoms: C_2  and  O_3
REMARK    3  A    between atoms: O_3  and  C_4
REMARK    4  A    between atoms: C_6  and  C_11
REMARK    5  A    between atoms: C_9  and  O_10
REMARK    6  A    between atoms: C_14  and  C_26
REMARK    7  A    between atoms: N_21  and  C_22
REMARK    8  A    between atoms: C_22  and  C_23
REMARK    9  A    between atoms: C_23  and  C_24
REMARK   10  A    between atoms: C_24  and  O_25
REMARK   11  A    between atoms: C_29  and  C_33
REMARK   12  A    between atoms: C_31  and  O_32
REMARK                            x       y       z     vdW  Elec       q    Type
REMARK                         _______ _______ _______ _____ _____    ______ ____
ROOT
ATOM      1  C   UNL     1       0.013  -4.976   0.028  0.00  0.00    +0.141 C 
ATOM      2  C   UNL     1       0.834  -5.348   1.233  0.00  0.00    +0.035 A 
ATOM      3  C   UNL     1       1.547  -4.911   2.355  0.00  0.00    +0.102 A 
ATOM      4  N   UNL     1       2.021  -5.981   2.962  0.00  0.00    -0.173 NA
ATOM      5  N   UNL     1       1.678  -7.050   2.335  0.00  0.00    -0.272 N 
ATOM      6  H   UNL     1       1.915  -7.952   2.601  0.00  0.00    +0.189 HD
ATOM      7  C   UNL     1       0.931  -6.726   1.238  0.00  0.00    +0.126 A 
ATOM      8  C   UNL     1       0.200  -7.249   0.079  0.00  0.00    +0.265 C 
ATOM      9  O   UNL     1       0.095  -8.428  -0.201  0.00  0.00    -0.268 OA
ATOM     10  N   UNL     1      -0.338  -6.240  -0.632  0.00  0.00    -0.285 N 
ENDROOT
BRANCH   3  11
ATOM     11  C   UNL     1       1.736  -3.502   2.782  0.00  0.00    +0.045 A 
ATOM     12  C   UNL     1       1.072  -2.475   2.117  0.00  0.00    +0.034 A 
ATOM     13  C   UNL     1       1.251  -1.165   2.519  0.00  0.00    +0.045 A 
ATOM     14  C   UNL     1       2.088  -0.871   3.582  0.00  0.00    -0.029 A 
ATOM     15  C   UNL     1       2.751  -1.884   4.248  0.00  0.00    +0.050 A 
ATOM     16  C   UNL     1       2.575  -3.202   3.858  0.00  0.00    +0.126 A 
ATOM     17  C   UNL     1       2.277   0.560   4.013  0.00  0.00    +0.045 C 
ATOM     18 CL   UNL     1       0.424   0.115   1.688  0.00  0.00    -0.083 Cl
BRANCH  16  19
ATOM     19  O   UNL     1       3.222  -4.199   4.517  0.00  0.00    -0.506 OA
ATOM     20  H   UNL     1       4.093  -4.411   4.153  0.00  0.00    +0.292 HD
ENDBRANCH  16  19
ENDBRANCH   3  11
BRANCH   1  23
ATOM     21  C   UNL     1       2.630  -3.862  -2.459  0.00  0.00    +0.162 A 
ATOM     22  C   UNL     1       1.885  -4.655  -1.601  0.00  0.00    +0.055 A 
ATOM     23  C   UNL     1       0.822  -4.111  -0.904  0.00  0.00    -0.019 A 
ATOM     24  C   UNL     1       0.499  -2.776  -1.061  0.00  0.00    +0.009 A 
ATOM     25  C   UNL     1       1.238  -1.979  -1.915  0.00  0.00    +0.049 A 
ATOM     26  C   UNL     1       2.308  -2.517  -2.612  0.00  0.00    +0.158 A 
BRANCH  26  27
ATOM     27  O   UNL     1       3.040  -1.732  -3.449  0.00  0.00    -0.503 OA
ATOM     28  H   UNL     1       2.709  -1.711  -4.357  0.00  0.00    +0.292 HD
ENDBRANCH  26  27
BRANCH  21  29
ATOM     29  O   UNL     1       3.676  -4.395  -3.145  0.00  0.00    -0.489 OA
BRANCH  29  31
ATOM     30  C   UNL     1       5.023  -6.235  -3.946  0.00  0.00    +0.048 C 
ATOM     31  C   UNL     1       3.880  -5.804  -3.024  0.00  0.00    +0.226 C 
ENDBRANCH  29  31
ENDBRANCH  21  29
ENDBRANCH   1  23
BRANCH  10  32
ATOM     32  C   UNL     1      -1.137  -6.378  -1.852  0.00  0.00    +0.111 C 
BRANCH  32  33
ATOM     33  C   UNL     1      -0.215  -6.344  -3.072  0.00  0.00    +0.047 C 
BRANCH  33  34
ATOM     34  C   UNL     1      -1.049  -6.488  -4.346  0.00  0.00    +0.157 C 
BRANCH  34  35
ATOM     35  O   UNL     1      -0.187  -6.457  -5.486  0.00  0.00    -0.395 OA
ATOM     36  H   UNL     1      -0.649  -6.544  -6.331  0.00  0.00    +0.209 HD
ENDBRANCH  34  35
ENDBRANCH  33  34
ENDBRANCH  32  33
ENDBRANCH  10  32
TORSDOF 10
