REMARK  Name = ZINC39534263
REMARK  9 active torsions:
REMARK  status: ('A' for Active; 'I' for Inactive)
REMARK    1  A    between atoms: C_1  and  O_2
REMARK    2  A    between atoms: O_2  and  C_3
REMARK    3  A    between atoms: N_6  and  C_10
REMARK    4  A    between atoms: C_10  and  C_12
REMARK    5  A    between atoms: C_10  and  C_15
REMARK    6  A    between atoms: C_12  and  N_13
REMARK    7  A    between atoms: C_18  and  S_21
REMARK    8  A    between atoms: S_21  and  O_24
REMARK    9  A    between atoms: O_24  and  C_25
REMARK                            x       y       z     vdW  Elec       q    Type
REMARK                         _______ _______ _______ _____ _____    ______ ____
ROOT
ATOM      1  C   UNL     1      -3.725  -4.889   0.847  0.00  0.00    -0.029 A 
ATOM      2  C   UNL     1      -4.871  -4.274   1.315  0.00  0.00    +0.007 A 
ATOM      3  C   UNL     1      -6.054  -4.985   1.392  0.00  0.00    +0.031 A 
ATOM      4  C   UNL     1      -6.091  -6.311   1.001  0.00  0.00    +0.128 A 
ATOM      5  C   UNL     1      -4.944  -6.925   0.532  0.00  0.00    +0.031 A 
ATOM      6  C   UNL     1      -3.763  -6.213   0.451  0.00  0.00    +0.007 A 
ENDROOT
BRANCH   4   7
ATOM      7  S   UNL     1      -7.598  -7.217   1.101  0.00  0.00    +0.151 S 
ATOM      8  O   UNL     1      -7.242  -8.590   1.190  0.00  0.00    -0.131 OA
ATOM      9  O   UNL     1      -8.396  -6.572   2.085  0.00  0.00    -0.131 OA
BRANCH   7  10
ATOM     10  O   UNL     1      -8.319  -7.040  -0.228  0.00  0.00    -0.342 OA
BRANCH  10  11
ATOM     11  C   UNL     1      -7.784  -7.763  -1.247  0.00  0.00    +0.157 A 
ATOM     12  C   UNL     1      -6.782  -7.216  -2.035  0.00  0.00    +0.048 A 
ATOM     13  C   UNL     1      -6.240  -7.952  -3.071  0.00  0.00    +0.004 A 
ATOM     14  C   UNL     1      -6.696  -9.233  -3.322  0.00  0.00    +0.000 A 
ATOM     15  C   UNL     1      -7.695  -9.780  -2.538  0.00  0.00    +0.004 A 
ATOM     16  C   UNL     1      -8.236  -9.050  -1.498  0.00  0.00    +0.048 A 
ENDBRANCH  10  11
ENDBRANCH   7  10
ENDBRANCH   4   7
BRANCH   1  17
ATOM     17  C   UNL     1      -2.435  -4.114   0.762  0.00  0.00    +0.102 C 
BRANCH  17  20
ATOM     18  C   UNL     1      -3.248  -0.904   2.558  0.00  0.00    +0.200 C 
ATOM     19  C   UNL     1      -2.888  -2.383   2.394  0.00  0.00    +0.132 C 
ATOM     20  N   UNL     1      -2.708  -2.685   0.967  0.00  0.00    -0.289 NA
ATOM     21  C   UNL     1      -1.643  -1.856   0.386  0.00  0.00    +0.100 C 
ATOM     22  C   UNL     1      -2.003  -0.378   0.551  0.00  0.00    +0.098 C 
ATOM     23  N   UNL     1      -2.183  -0.075   1.977  0.00  0.00    -0.289 NA
ATOM     24  H   UNL     1      -2.371   0.906   2.118  0.00  0.00    +0.124 HD
BRANCH  18  26
ATOM     25  C   UNL     1      -4.041   0.644   4.207  0.00  0.00    +0.196 C 
ATOM     26  O   UNL     1      -3.386  -0.599   3.948  0.00  0.00    -0.364 OA
ENDBRANCH  18  26
ENDBRANCH  17  20
BRANCH  17  27
ATOM     27  C   UNL     1      -1.471  -4.609   1.842  0.00  0.00    +0.115 C 
BRANCH  27  28
ATOM     28  N   UNL     1      -0.228  -3.828   1.784  0.00  0.00    -0.259 NA
ATOM     29  I   UNL     1       1.101  -4.454   3.214  0.00  0.00    +0.018 I 
ATOM     30  H   UNL     1       0.184  -3.872   0.864  0.00  0.00    +0.134 HD
ENDBRANCH  27  28
ENDBRANCH  17  27
ENDBRANCH   1  17
TORSDOF 8
