REMARK  Name = ZINC00667456
REMARK  8 active torsions:
REMARK  status: ('A' for Active; 'I' for Inactive)
REMARK    1  A    between atoms: C_1  and  C_2
REMARK    2  A    between atoms: C_2  and  C_4
REMARK    3  A    between atoms: C_2  and  N_10
REMARK    4  A    between atoms: C_11  and  C_13
REMARK    5  A    between atoms: C_13  and  S_14
REMARK    6  A    between atoms: S_14  and  C_15
REMARK    7  A    between atoms: C_18  and  C_21
REMARK    8  A    between atoms: N_19  and  C_20
REMARK                            x       y       z     vdW  Elec       q    Type
REMARK                         _______ _______ _______ _____ _____    ______ ____
ROOT
ATOM      1  C   UNL     1       0.619  -1.809   6.307  0.00  0.00    +0.192 A 
ATOM      2  N   UNL     1       1.899  -2.104   6.255  0.00  0.00    -0.122 NA
ATOM      3  N   UNL     1       2.307  -2.508   7.405  0.00  0.00    -0.125 NA
ATOM      4  C   UNL     1       1.311  -2.496   8.264  0.00  0.00    +0.200 A 
ATOM      5  N   UNL     1       0.200  -2.042   7.586  0.00  0.00    -0.303 N 
ATOM      6  C   UNL     1      -1.149  -1.852   8.125  0.00  0.00    +0.153 C 
ENDROOT
BRANCH   4   7
ATOM      7  C   UNL     1       1.372  -2.887   9.681  0.00  0.00    +0.173 A 
ATOM      8  C   UNL     1       2.514  -3.042  10.400  0.00  0.00    +0.061 A 
ATOM      9  C   UNL     1       2.094  -3.433  11.747  0.00  0.00    +0.022 A 
ATOM     10  C   UNL     1       2.775  -3.735  12.928  0.00  0.00    +0.031 A 
ATOM     11  C   UNL     1       2.062  -4.077  14.056  0.00  0.00    +0.042 A 
ATOM     12  C   UNL     1       0.674  -4.122  14.019  0.00  0.00    +0.023 A 
ATOM     13  C   UNL     1      -0.009  -3.826  12.859  0.00  0.00    +0.048 A 
ATOM     14  C   UNL     1       0.689  -3.478  11.710  0.00  0.00    +0.136 A 
ATOM     15  O   UNL     1       0.303  -3.141  10.462  0.00  0.00    -0.452 OA
ATOM     16 CL   UNL     1       2.900  -4.453  15.528  0.00  0.00    -0.084 Cl
ENDBRANCH   4   7
BRANCH   1  17
ATOM     17  S   UNL     1      -0.371  -1.217   4.976  0.00  0.00    -0.077 S 
BRANCH  17  18
ATOM     18  C   UNL     1       0.780  -1.133   3.576  0.00  0.00    +0.173 C 
BRANCH  18  20
ATOM     19  N   UNL     1       0.711  -0.489   1.189  0.00  0.00    -0.308 N 
ATOM     20  C   UNL     1       0.051  -0.633   2.355  0.00  0.00    +0.224 C 
ATOM     21  O   UNL     1      -1.129  -0.361   2.423  0.00  0.00    -0.275 OA
ATOM     22  H   UNL     1       1.654  -0.707   1.135  0.00  0.00    +0.149 HD
BRANCH  19  24
ATOM     23  C   UNL     1      -0.019   1.526   0.010  0.00  0.00    +0.033 C 
ATOM     24  C   UNL     1       0.002  -0.004   0.002  0.00  0.00    +0.100 C 
BRANCH  24  25
ATOM     25  C   UNL     1       0.707  -0.490  -1.238  0.00  0.00    -0.027 A 
ATOM     26  C   UNL     1       2.089  -0.511  -1.284  0.00  0.00    +0.005 A 
ATOM     27  C   UNL     1       2.736  -0.957  -2.421  0.00  0.00    +0.000 A 
ATOM     28  C   UNL     1       2.002  -1.382  -3.512  0.00  0.00    +0.000 A 
ATOM     29  C   UNL     1       0.620  -1.362  -3.466  0.00  0.00    +0.000 A 
ATOM     30  C   UNL     1      -0.027  -0.920  -2.327  0.00  0.00    +0.005 A 
ENDBRANCH  24  25
ENDBRANCH  19  24
ENDBRANCH  18  20
ENDBRANCH  17  18
ENDBRANCH   1  17
TORSDOF 6
