REMARK  Name = ZINC10014411
REMARK  7 active torsions:
REMARK  status: ('A' for Active; 'I' for Inactive)
REMARK    1  A    between atoms: C_1  and  C_2
REMARK    2  A    between atoms: C_2  and  C_4
REMARK    3  A    between atoms: C_2  and  S_15
REMARK    4  A    between atoms: N_6  and  C_7
REMARK    5  A    between atoms: S_15  and  C_16
REMARK    6  A    between atoms: C_19  and  C_22
REMARK    7  A    between atoms: N_20  and  C_21
REMARK                            x       y       z     vdW  Elec       q    Type
REMARK                         _______ _______ _______ _____ _____    ______ ____
ROOT
ATOM      1  C   UNL     1      -2.692   0.952   1.358  0.00  0.00    +0.029 C 
ATOM      2  C   UNL     1      -2.733   0.168   0.045  0.00  0.00    +0.137 C 
ENDROOT
BRANCH   2   3
ATOM      3  C   UNL     1      -4.063  -0.531  -0.081  0.00  0.00    +0.230 C 
ATOM      4  O   UNL     1      -4.178  -1.684   0.275  0.00  0.00    -0.274 OA
ATOM      5  N   UNL     1      -5.124   0.127  -0.590  0.00  0.00    -0.284 N 
ATOM      6  H   UNL     1      -5.050   1.068  -0.814  0.00  0.00    +0.155 HD
BRANCH   5   7
ATOM      7  C   UNL     1      -6.333  -0.548  -0.794  0.00  0.00    +0.048 A 
ATOM      8  C   UNL     1      -6.729  -1.548   0.084  0.00  0.00    +0.025 A 
ATOM      9  C   UNL     1      -7.922  -2.213  -0.120  0.00  0.00    +0.017 A 
ATOM     10  C   UNL     1      -8.724  -1.883  -1.198  0.00  0.00    +0.019 A 
ATOM     11  C   UNL     1      -8.333  -0.887  -2.075  0.00  0.00    +0.032 A 
ATOM     12  C   UNL     1      -7.143  -0.215  -1.873  0.00  0.00    +0.040 A 
ATOM     13 BR   UNL     1      -6.613   1.152  -3.067  0.00  0.00    -0.048 Br
ATOM     14 BR   UNL     1     -10.358  -2.794  -1.473  0.00  0.00    -0.050 Br
ENDBRANCH   5   7
ENDBRANCH   2   3
BRANCH   2  15
ATOM     15  S   UNL     1      -1.404  -1.060   0.032  0.00  0.00    -0.074 S 
BRANCH  15  16
ATOM     16  C   UNL     1      -0.002   0.008   0.037  0.00  0.00    +0.192 A 
ATOM     17  N   UNL     1      -0.023   1.321   0.047  0.00  0.00    -0.122 NA
ATOM     18  N   UNL     1       1.176   1.784   0.047  0.00  0.00    -0.125 NA
ATOM     19  C   UNL     1       2.039   0.791   0.037  0.00  0.00    +0.200 A 
ATOM     20  N   UNL     1       1.310  -0.377   0.030  0.00  0.00    -0.303 N 
ATOM     21  C   UNL     1       1.831  -1.746   0.018  0.00  0.00    +0.153 C 
BRANCH  19  22
ATOM     22  C   UNL     1       3.506   0.908   0.035  0.00  0.00    +0.172 A 
ATOM     23  C   UNL     1       4.219   2.034  -0.249  0.00  0.00    +0.053 A 
ATOM     24  C   UNL     1       5.580   1.692  -0.130  0.00  0.00    +0.042 A 
ATOM     25  C   UNL     1       5.633   0.389   0.208  0.00  0.00    +0.196 A 
ATOM     26  O   UNL     1       4.379  -0.083   0.307  0.00  0.00    -0.460 OA
ENDBRANCH  19  22
ENDBRANCH  15  16
ENDBRANCH   2  15
TORSDOF 5
