REMARK  Name = ZINC06418091
REMARK  9 active torsions:
REMARK  status: ('A' for Active; 'I' for Inactive)
REMARK    1  A    between atoms: C_1  and  C_2
REMARK    2  A    between atoms: C_2  and  N_3
REMARK    3  A    between atoms: N_3  and  C_4
REMARK    4  A    between atoms: N_3  and  C_6
REMARK    5  A    between atoms: C_4  and  C_5
REMARK    6  A    between atoms: C_9  and  C_12
REMARK    7  A    between atoms: C_17  and  S_21
REMARK    8  A    between atoms: C_19  and  N_20
REMARK    9  A    between atoms: S_21  and  C_22
REMARK                            x       y       z     vdW  Elec       q    Type
REMARK                         _______ _______ _______ _____ _____    ______ ____
ROOT
ATOM      1  C   UNL     1       2.256  -0.008   1.044  0.00  0.00    +0.087 C 
ATOM      2  C   UNL     1       2.434   1.371   0.488  0.00  0.00    +0.026 A 
ATOM      3  C   UNL     1       1.363   2.084   0.000  0.00  0.00    +0.055 A 
ATOM      4  N   UNL     1       1.565   3.303  -0.484  0.00  0.00    -0.226 NA
ATOM      5  C   UNL     1       2.777   3.837  -0.504  0.00  0.00    +0.190 A 
ATOM      6  N   UNL     1       3.833   3.182  -0.042  0.00  0.00    -0.207 NA
ATOM      7  C   UNL     1       3.702   1.957   0.457  0.00  0.00    +0.125 A 
ATOM      8  C   UNL     1      -0.018   1.504   0.010  0.00  0.00    +0.087 C 
ATOM      9  C   UNL     1       0.002  -0.004   0.002  0.00  0.00    -0.056 C 
ATOM     10  C   UNL     1       1.040  -0.685   0.469  0.00  0.00    +0.006 C 
ATOM     11  C   UNL     1       1.046  -2.158   0.441  0.00  0.00    +0.160 C 
ATOM     12  O   UNL     1       2.061  -2.778   0.683  0.00  0.00    -0.292 OA
ATOM     13  C   UNL     1      -0.238  -2.881   0.104  0.00  0.00    +0.079 C 
ATOM     14  C   UNL     1      -0.897  -2.103  -1.044  0.00  0.00    +0.012 C 
ATOM     15  C   UNL     1      -1.221  -0.696  -0.554  0.00  0.00    +0.032 C 
ENDROOT
BRANCH   1  19
ATOM     16  C   UNL     1       1.833   0.247   5.289  0.00  0.00    +0.030 A 
ATOM     17  C   UNL     1       2.903  -0.446   4.736  0.00  0.00    +0.023 A 
ATOM     18  C   UNL     1       3.037  -0.526   3.364  0.00  0.00    +0.006 A 
ATOM     19  C   UNL     1       2.107   0.082   2.541  0.00  0.00    -0.035 A 
ATOM     20  C   UNL     1       1.044   0.777   3.088  0.00  0.00    +0.006 A 
ATOM     21  C   UNL     1       0.901   0.856   4.459  0.00  0.00    +0.023 A 
BRANCH  16  22
ATOM     22  N   UNL     1       1.696   0.331   6.676  0.00  0.00    -0.330 N 
BRANCH  22  24
ATOM     23  C   UNL     1      -0.612   0.106   7.455  0.00  0.00    +0.024 C 
ATOM     24  C   UNL     1       0.567   1.061   7.258  0.00  0.00    +0.102 C 
ENDBRANCH  22  24
BRANCH  22  25
ATOM     25  C   UNL     1       2.680  -0.312   7.550  0.00  0.00    +0.102 C 
ATOM     26  C   UNL     1       3.808   0.674   7.860  0.00  0.00    +0.024 C 
ENDBRANCH  22  25
ENDBRANCH  16  22
ENDBRANCH   1  19
BRANCH   7  27
ATOM     27  N   UNL     1       4.806   1.272   0.940  0.00  0.00    -0.343 N 
ATOM     28  H   UNL     1       4.701   0.379   1.302  0.00  0.00    +0.144 HD
ATOM     29  H   UNL     1       5.682   1.686   0.915  0.00  0.00    +0.144 HD
ENDBRANCH   7  27
BRANCH   5  30
ATOM     30  S   UNL     1       2.992   5.458  -1.159  0.00  0.00    -0.089 S 
ATOM     31  C   UNL     1       4.777   5.654  -0.935  0.00  0.00    +0.093 C 
ENDBRANCH   5  30
TORSDOF 6
