REMARK  Name = ZINC13048277
REMARK  5 active torsions:
REMARK  status: ('A' for Active; 'I' for Inactive)
REMARK    1  A    between atoms: C_1  and  C_2
REMARK    2  A    between atoms: C_2  and  C_3
REMARK    3  A    between atoms: C_2  and  C_4
REMARK    4  A    between atoms: C_12  and  C_14
REMARK    5  A    between atoms: C_14  and  C_15
REMARK                            x       y       z     vdW  Elec       q    Type
REMARK                         _______ _______ _______ _____ _____    ______ ____
ROOT
ATOM      1  C   UNL     1       3.890  -3.841  -3.449  0.00  0.00    +0.119 C 
ENDROOT
BRANCH   1   2
ATOM      2  C   UNL     1       4.214  -4.669  -2.204  0.00  0.00    +0.146 C 
ATOM      3  C   UNL     1       2.942  -5.234  -1.625  0.00  0.00    +0.231 C 
ATOM      4  O   UNL     1       2.648  -6.381  -1.887  0.00  0.00    -0.274 OA
ATOM      5  N   UNL     1       2.129  -4.535  -0.841  0.00  0.00    -0.284 N 
ATOM      6  C   UNL     1       2.351  -3.254  -0.345  0.00  0.00    +0.048 A 
ATOM      7  C   UNL     1       1.281  -2.524   0.162  0.00  0.00    +0.044 A 
ATOM      8  C   UNL     1       1.480  -1.254   0.669  0.00  0.00    +0.043 A 
ATOM      9  C   UNL     1       2.745  -0.694   0.678  0.00  0.00    +0.021 A 
ATOM     10  C   UNL     1       3.818  -1.409   0.181  0.00  0.00    +0.018 A 
ATOM     11  C   UNL     1       3.624  -2.684  -0.325  0.00  0.00    +0.030 A 
ATOM     12  S   UNL     1       4.994  -3.608  -0.949  0.00  0.00    -0.110 S 
ATOM     13 CL   UNL     1       0.133  -0.353   1.292  0.00  0.00    -0.083 Cl
ATOM     14  H   UNL     1       1.295  -4.961  -0.589  0.00  0.00    +0.155 HD
ENDBRANCH   1   2
BRANCH   1  23
ATOM     15  C   UNL     1       4.976   0.509  -7.683  0.00  0.00    +0.218 C 
ATOM     16  O   UNL     1       3.915   0.735  -8.225  0.00  0.00    -0.275 OA
ATOM     17  N   UNL     1       5.016  -0.244  -6.566  0.00  0.00    -0.298 N 
ATOM     18  C   UNL     1       6.302  -0.602  -5.951  0.00  0.00    +0.126 C 
ATOM     19  C   UNL     1       6.374  -2.129  -5.821  0.00  0.00    +0.126 C 
ATOM     20  N   UNL     1       5.132  -2.606  -5.196  0.00  0.00    -0.298 N 
ATOM     21  C   UNL     1       3.847  -2.252  -5.814  0.00  0.00    +0.126 C 
ATOM     22  C   UNL     1       3.774  -0.721  -5.941  0.00  0.00    +0.126 C 
ATOM     23  C   UNL     1       5.172  -3.359  -4.079  0.00  0.00    +0.217 C 
ATOM     24  O   UNL     1       6.239  -3.649  -3.580  0.00  0.00    -0.276 OA
BRANCH  15  26
ATOM     25  C   UNL     1       6.027   1.441  -9.727  0.00  0.00    +0.017 C 
ATOM     26  C   UNL     1       6.251   1.071  -8.259  0.00  0.00    +0.069 C 
ATOM     27  C   UNL     1       6.658   2.319  -7.474  0.00  0.00    +0.017 C 
ENDBRANCH  15  26
ENDBRANCH   1  23
TORSDOF 3
