REMARK  Name = ZINC12073657
REMARK  8 active torsions:
REMARK  status: ('A' for Active; 'I' for Inactive)
REMARK    1  A    between atoms: C_1  and  N_59
REMARK    2  A    between atoms: C_6  and  C_8
REMARK    3  A    between atoms: C_8  and  N_9
REMARK    4  A    between atoms: N_9  and  C_10
REMARK    5  A    between atoms: C_11  and  C_13
REMARK    6  A    between atoms: N_15  and  C_18
REMARK    7  A    between atoms: C_18  and  C_19
REMARK    8  A    between atoms: C_18  and  C_25
REMARK                            x       y       z     vdW  Elec       q    Type
REMARK                         _______ _______ _______ _____ _____    ______ ____
ROOT
ATOM      1  C   UNL     1       1.421   3.188   0.206  0.00  0.00    +0.167 A 
ATOM      2  C   UNL     1       2.765   3.220   0.451  0.00  0.00    +0.144 A 
ATOM      3  N   UNL     1       3.126   4.518   0.479  0.00  0.00    -0.239 N 
ATOM      4  N   UNL     1       1.963   5.268   0.254  0.00  0.00    -0.064 NA
ATOM      5  N   UNL     1       0.979   4.453   0.097  0.00  0.00    -0.125 NA
ENDROOT
BRANCH   1   8
ATOM      6  N   UNL     1      -0.742   2.077  -0.052  0.00  0.00    -0.301 N 
ATOM      7  C   UNL     1      -1.364   3.397  -0.178  0.00  0.00    +0.132 C 
ATOM      8  C   UNL     1       0.595   1.972   0.086  0.00  0.00    +0.268 C 
ATOM      9  O   UNL     1       1.119   0.876   0.108  0.00  0.00    -0.268 OA
BRANCH   6  10
ATOM     10  C   UNL     1      -1.573   0.871  -0.077  0.00  0.00    +0.092 C 
BRANCH  10  16
ATOM     11  C   UNL     1      -2.008  -1.818   0.630  0.00  0.00    -0.096 C 
ATOM     12  C   UNL     1      -3.102  -1.177   2.692  0.00  0.00    -0.079 C 
ATOM     13  C   UNL     1      -3.984  -0.108   3.341  0.00  0.00    -0.019 C 
ATOM     14  C   UNL     1      -3.222   1.219   3.384  0.00  0.00    -0.003 C 
ATOM     15  C   UNL     1      -2.815   1.611   1.961  0.00  0.00    -0.014 C 
ATOM     16  C   UNL     1      -1.966   0.492   1.352  0.00  0.00    -0.051 C 
ATOM     17  N   UNL     1      -2.765  -0.751   1.317  0.00  0.00    +0.381 N 
ATOM     18  H   UNL     1      -3.634  -0.574   0.801  0.00  0.00    -0.082 HD
ENDBRANCH  10  16
ENDBRANCH   6  10
ENDBRANCH   1   8
BRANCH   3  19
ATOM     19  C   UNL     1       4.474   5.044   0.708  0.00  0.00    +0.169 C 
BRANCH  19  20
ATOM     20  C   UNL     1       4.728   5.150   2.190  0.00  0.00    -0.019 A 
ATOM     21  C   UNL     1       4.566   4.041   2.999  0.00  0.00    +0.006 A 
ATOM     22  C   UNL     1       4.803   4.137   4.358  0.00  0.00    +0.000 A 
ATOM     23  C   UNL     1       5.193   5.343   4.908  0.00  0.00    +0.000 A 
ATOM     24  C   UNL     1       5.349   6.453   4.099  0.00  0.00    +0.000 A 
ATOM     25  C   UNL     1       5.117   6.357   2.740  0.00  0.00    +0.006 A 
ENDBRANCH  19  20
BRANCH  19  26
ATOM     26  C   UNL     1       5.487   4.116   0.090  0.00  0.00    -0.019 A 
ATOM     27  C   UNL     1       6.711   3.921   0.703  0.00  0.00    +0.006 A 
ATOM     28  C   UNL     1       7.639   3.066   0.138  0.00  0.00    +0.000 A 
ATOM     29  C   UNL     1       7.347   2.413  -1.045  0.00  0.00    +0.000 A 
ATOM     30  C   UNL     1       6.125   2.612  -1.661  0.00  0.00    +0.000 A 
ATOM     31  C   UNL     1       5.196   3.463  -1.093  0.00  0.00    +0.006 A 
ENDBRANCH  19  26
ENDBRANCH   3  19
TORSDOF 6
