REMARK  Name = ZINC18068748
REMARK  10 active torsions:
REMARK  status: ('A' for Active; 'I' for Inactive)
REMARK    1  A    between atoms: C_1  and  C_2
REMARK    2  A    between atoms: C_2  and  C_3
REMARK    3  A    between atoms: C_3  and  C_4
REMARK    4  A    between atoms: C_7  and  O_10
REMARK    5  A    between atoms: O_10  and  C_11
REMARK    6  A    between atoms: C_12  and  C_26
REMARK    7  A    between atoms: C_16  and  C_17
REMARK    8  A    between atoms: C_20  and  O_25
REMARK    9  A    between atoms: C_21  and  C_24
REMARK   10  A    between atoms: C_22  and  O_23
REMARK                            x       y       z     vdW  Elec       q    Type
REMARK                         _______ _______ _______ _____ _____    ______ ____
ROOT
ATOM      1  C   UNL     1      -0.241  -6.779  -1.887  0.00  0.00    +0.176 A 
ATOM      2  C   UNL     1      -1.430  -7.181  -1.272  0.00  0.00    +0.102 A 
ATOM      3  N   UNL     1      -2.183  -7.774  -2.163  0.00  0.00    -0.175 NA
ATOM      4  N   UNL     1      -1.511  -7.780  -3.391  0.00  0.00    -0.273 N 
ATOM      5  H   UNL     1      -1.842  -8.156  -4.222  0.00  0.00    +0.189 HD
ATOM      6  C   UNL     1      -0.309  -7.155  -3.213  0.00  0.00    +0.112 A 
ATOM      7  C   UNL     1      -1.786  -6.968   0.177  0.00  0.00    +0.071 C 
ENDROOT
BRANCH   6   8
ATOM      8  C   UNL     1       0.724  -6.928  -4.245  0.00  0.00    +0.045 A 
ATOM      9  C   UNL     1       0.461  -6.085  -5.326  0.00  0.00    +0.017 A 
ATOM     10  C   UNL     1       1.428  -5.875  -6.287  0.00  0.00    +0.046 A 
ATOM     11  C   UNL     1       2.664  -6.500  -6.182  0.00  0.00    +0.123 A 
ATOM     12  C   UNL     1       2.934  -7.338  -5.111  0.00  0.00    +0.033 A 
ATOM     13  C   UNL     1       1.973  -7.552  -4.138  0.00  0.00    +0.132 A 
ATOM     14  C   UNL     1       4.277  -8.013  -5.004  0.00  0.00    +0.051 C 
BRANCH  13  15
ATOM     15  O   UNL     1       2.239  -8.369  -3.086  0.00  0.00    -0.506 OA
ATOM     16  H   UNL     1       2.010  -9.296  -3.240  0.00  0.00    +0.292 HD
ENDBRANCH  13  15
BRANCH  11  17
ATOM     17  O   UNL     1       3.611  -6.288  -7.133  0.00  0.00    -0.506 OA
ATOM     18  H   UNL     1       4.194  -5.539  -6.948  0.00  0.00    +0.292 HD
ENDBRANCH  11  17
ENDBRANCH   6   8
BRANCH   1  19
ATOM     19  O   UNL     1       0.795  -6.129  -1.288  0.00  0.00    -0.452 OA
BRANCH  19  23
ATOM     20  C   UNL     1       0.739  -2.004  -1.265  0.00  0.00    -0.047 A 
ATOM     21  C   UNL     1       1.788  -2.683  -0.675  0.00  0.00    +0.007 A 
ATOM     22  C   UNL     1       1.810  -4.065  -0.681  0.00  0.00    +0.046 A 
ATOM     23  C   UNL     1       0.776  -4.771  -1.280  0.00  0.00    +0.129 A 
ATOM     24  C   UNL     1      -0.277  -4.086  -1.871  0.00  0.00    +0.046 A 
ATOM     25  C   UNL     1      -0.295  -2.705  -1.858  0.00  0.00    +0.007 A 
BRANCH  20  26
ATOM     26  C   UNL     1       0.718  -0.497  -1.257  0.00  0.00    +0.035 C 
BRANCH  26  28
ATOM     27  C   UNL     1      -0.019   1.526   0.010  0.00  0.00    +0.004 C 
ATOM     28  C   UNL     1       0.002  -0.004   0.002  0.00  0.00    +0.001 C 
ENDBRANCH  26  28
ENDBRANCH  20  26
ENDBRANCH  19  23
ENDBRANCH   1  19
TORSDOF 7
