REMARK  Name = ZINC24072023
REMARK  11 active torsions:
REMARK  status: ('A' for Active; 'I' for Inactive)
REMARK    1  A    between atoms: C_1  and  N_2
REMARK    2  A    between atoms: N_2  and  C_3
REMARK    3  A    between atoms: N_2  and  C_13
REMARK    4  A    between atoms: C_3  and  C_4
REMARK    5  A    between atoms: C_7  and  O_11
REMARK    6  A    between atoms: O_11  and  C_12
REMARK    7  A    between atoms: C_13  and  C_14
REMARK    8  A    between atoms: N_16  and  C_17
REMARK    9  A    between atoms: C_17  and  C_18
REMARK   10  A    between atoms: C_18  and  N_19
REMARK   11  A    between atoms: C_23  and  C_24
REMARK                            x       y       z     vdW  Elec       q    Type
REMARK                         _______ _______ _______ _____ _____    ______ ____
ROOT
ATOM      1  C   UNL     1      -3.700  -2.226  -1.880  0.00  0.00    +0.196 C 
ATOM      2  O   UNL     1      -3.206  -2.038  -2.972  0.00  0.00    -0.278 OA
ATOM      3  N   UNL     1      -3.075  -1.781  -0.772  0.00  0.00    -0.315 N 
ATOM      4  H   UNL     1      -3.523  -1.951   0.218  0.00  0.00    +0.149 HD
ENDROOT
BRANCH   1   5
ATOM      5  C   UNL     1      -5.013  -2.958  -1.763  0.00  0.00    +0.019 C 
BRANCH   5   7
ATOM      6  C   UNL     1      -5.817  -2.147  -3.898  0.00  0.00    -0.095 C 
ATOM      7  N   UNL     1      -5.484  -3.336  -3.102  0.00  0.00    +0.386 N 
ATOM      8  H   UNL     1      -4.665  -3.866  -3.611  0.00  0.00    -0.081 HD
BRANCH   7   9
ATOM      9  C   UNL     1      -6.630  -4.251  -3.017  0.00  0.00    -0.043 C 
BRANCH   9  10
ATOM     10  C   UNL     1      -6.930  -4.808  -4.385  0.00  0.00    -0.061 A 
ATOM     11  C   UNL     1      -7.817  -4.152  -5.218  0.00  0.00    +0.005 A 
ATOM     12  C   UNL     1      -8.091  -4.657  -6.474  0.00  0.00    +0.049 A 
ATOM     13  C   UNL     1      -7.484  -5.830  -6.897  0.00  0.00    +0.155 A 
ATOM     14  C   UNL     1      -6.597  -6.492  -6.057  0.00  0.00    +0.165 A 
ATOM     15  C   UNL     1      -6.322  -5.978  -4.802  0.00  0.00    +0.044 A 
ATOM     16  F   UNL     1      -6.003  -7.634  -6.465  0.00  0.00    -0.202 F 
BRANCH  13  17
ATOM     17  O   UNL     1      -7.755  -6.332  -8.131  0.00  0.00    -0.492 OA
ATOM     18  C   UNL     1      -8.677  -5.599  -8.940  0.00  0.00    +0.277 C 
ENDBRANCH  13  17
ENDBRANCH   9  10
ENDBRANCH   7   9
ENDBRANCH   5   7
ENDBRANCH   1   5
BRANCH   3  19
ATOM     19  C   UNL     1      -1.800  -1.069  -0.887  0.00  0.00    +0.123 C 
BRANCH  19  20
ATOM     20  C   UNL     1      -1.309  -0.675   0.508  0.00  0.00    +0.136 C 
BRANCH  20  21
ATOM     21  N   UNL     1      -0.033   0.036   0.393  0.00  0.00    -0.227 N 
ATOM     22  C   UNL     1      -0.037   1.351   0.259  0.00  0.00    +0.260 C 
ATOM     23  O   UNL     1      -1.073   1.988   0.223  0.00  0.00    -0.269 OA
ATOM     24  C   UNL     1       1.282   2.009   0.149  0.00  0.00    +0.080 C 
ATOM     25  C   UNL     1       1.584   3.323   0.004  0.00  0.00    +0.029 C 
ATOM     26  S   UNL     1       2.371   0.595   0.257  0.00  0.00    -0.026 S 
ATOM     27  C   UNL     1       1.118  -0.666   0.427  0.00  0.00    +0.286 C 
ATOM     28  O   UNL     1       1.266  -1.867   0.544  0.00  0.00    -0.262 OA
BRANCH  25  29
ATOM     29  C   UNL     1       2.980   3.772   0.104  0.00  0.00    -0.005 A 
ATOM     30  C   UNL     1       3.942   2.950   0.702  0.00  0.00    +0.009 A 
ATOM     31  C   UNL     1       5.250   3.376   0.787  0.00  0.00    +0.001 A 
ATOM     32  C   UNL     1       5.612   4.618   0.294  0.00  0.00    +0.001 A 
ATOM     33  C   UNL     1       4.667   5.440  -0.294  0.00  0.00    +0.020 A 
ATOM     34  C   UNL     1       3.353   5.027  -0.392  0.00  0.00    +0.048 A 
ATOM     35 CL   UNL     1       2.168   6.060  -1.129  0.00  0.00    -0.083 Cl
ENDBRANCH  25  29
ENDBRANCH  20  21
ENDBRANCH  19  20
ENDBRANCH   3  19
TORSDOF 9
