REMARK  Name = ZINC35786511
REMARK  10 active torsions:
REMARK  status: ('A' for Active; 'I' for Inactive)
REMARK    1  A    between atoms: C_1  and  C_2
REMARK    2  A    between atoms: C_2  and  O_3
REMARK    3  A    between atoms: O_3  and  C_4
REMARK    4  A    between atoms: C_7  and  C_10
REMARK    5  A    between atoms: C_13  and  C_27
REMARK    6  A    between atoms: C_16  and  C_18
REMARK    7  A    between atoms: C_18  and  N_19
REMARK    8  A    between atoms: C_24  and  C_26
REMARK    9  A    between atoms: C_29  and  C_34
REMARK   10  A    between atoms: C_32  and  C_33
REMARK                            x       y       z     vdW  Elec       q    Type
REMARK                         _______ _______ _______ _____ _____    ______ ____
ROOT
ATOM      1  C   UNL     1      -2.530  -5.331  -0.159  0.00  0.00    +0.137 C 
ATOM      2  C   UNL     1      -2.782  -5.978  -1.536  0.00  0.00    +0.087 C 
ATOM      3  C   UNL     1      -4.015  -6.825  -1.319  0.00  0.00    +0.069 C 
ATOM      4  N   UNL     1      -4.407  -6.710  -0.097  0.00  0.00    -0.181 NA
ATOM      5  N   UNL     1      -3.615  -5.862   0.680  0.00  0.00    -0.184 N 
ATOM      6  C   UNL     1      -3.811  -5.577   1.983  0.00  0.00    +0.249 C 
ATOM      7  O   UNL     1      -3.055  -4.822   2.558  0.00  0.00    -0.272 OA
ENDROOT
BRANCH   3   8
ATOM      8  C   UNL     1      -4.668  -7.656  -2.348  0.00  0.00    +0.001 A 
ATOM      9  C   UNL     1      -4.223  -7.613  -3.671  0.00  0.00    +0.013 A 
ATOM     10  C   UNL     1      -4.838  -8.392  -4.628  0.00  0.00    -0.050 A 
ATOM     11  C   UNL     1      -5.896  -9.215  -4.280  0.00  0.00    +0.003 A 
ATOM     12  C   UNL     1      -6.342  -9.262  -2.972  0.00  0.00    +0.004 A 
ATOM     13  C   UNL     1      -5.732  -8.493  -2.003  0.00  0.00    -0.042 A 
ATOM     14  C   UNL     1      -6.216  -8.550  -0.577  0.00  0.00    +0.044 C 
ATOM     15  C   UNL     1      -4.359  -8.348  -6.056  0.00  0.00    +0.044 C 
ENDBRANCH   3   8
BRANCH   1  19
ATOM     16  C   UNL     1      -2.787  -1.073  -0.430  0.00  0.00    +0.121 A 
ATOM     17  C   UNL     1      -1.546  -1.693  -0.376  0.00  0.00    +0.046 A 
ATOM     18  C   UNL     1      -1.466  -3.069  -0.287  0.00  0.00    +0.009 A 
ATOM     19  C   UNL     1      -2.620  -3.829  -0.255  0.00  0.00    -0.024 A 
ATOM     20  C   UNL     1      -3.858  -3.215  -0.310  0.00  0.00    +0.009 A 
ATOM     21  C   UNL     1      -3.943  -1.838  -0.392  0.00  0.00    +0.046 A 
BRANCH  16  22
ATOM     22  O   UNL     1      -2.868   0.280  -0.517  0.00  0.00    -0.492 OA
BRANCH  22  24
ATOM     23  C   UNL     1      -1.928   2.502  -0.649  0.00  0.00    +0.048 C 
ATOM     24  C   UNL     1      -1.637   1.004  -0.552  0.00  0.00    +0.225 C 
ENDBRANCH  22  24
ENDBRANCH  16  22
ENDBRANCH   1  19
BRANCH   6  25
ATOM     25  C   UNL     1      -4.968  -6.195   2.724  0.00  0.00    +0.182 C 
BRANCH  25  26
ATOM     26  N   UNL     1      -4.962  -5.729   4.117  0.00  0.00    -0.295 NA
ATOM     27  C   UNL     1      -5.237  -4.287   4.191  0.00  0.00    +0.066 C 
ATOM     28  C   UNL     1      -5.163  -3.830   5.650  0.00  0.00    -0.067 C 
ATOM     29  N   UNL     1      -6.147  -4.575   6.446  0.00  0.00    +0.381 N 
ATOM     30  C   UNL     1      -5.846  -6.011   6.383  0.00  0.00    -0.064 C 
ATOM     31  C   UNL     1      -5.925  -6.486   4.930  0.00  0.00    +0.037 C 
ATOM     32  C   UNL     1      -5.590  -7.977   4.861  0.00  0.00    +0.022 C 
ATOM     33  H   UNL     1      -6.107  -4.265   7.406  0.00  0.00    -0.086 HD
ATOM     34  H   UNL     1      -7.072  -4.409   6.078  0.00  0.00    -0.086 HD
ENDBRANCH  25  26
ENDBRANCH   6  25
TORSDOF 6
