REMARK  Name = ZINC57585540
REMARK  9 active torsions:
REMARK  status: ('A' for Active; 'I' for Inactive)
REMARK    1  A    between atoms: C_1  and  N_2
REMARK    2  A    between atoms: N_2  and  C_3
REMARK    3  A    between atoms: N_2  and  C_29
REMARK    4  A    between atoms: C_3  and  C_4
REMARK    5  A    between atoms: C_9  and  N_10
REMARK    6  A    between atoms: N_10  and  C_11
REMARK    7  A    between atoms: C_11  and  C_12
REMARK    8  A    between atoms: N_14  and  C_15
REMARK    9  A    between atoms: N_14  and  C_23
REMARK                            x       y       z     vdW  Elec       q    Type
REMARK                         _______ _______ _______ _____ _____    ______ ____
ROOT
ATOM      1  N   UNL     1       1.165   2.009  -2.993  0.00  0.00    -0.335 N 
ATOM      2  H   UNL     1       1.493   1.809  -2.102  0.00  0.00    +0.147 HD
ENDROOT
BRANCH   1   8
ATOM      3  C   UNL     1      -0.023  -0.091  -3.039  0.00  0.00    -0.043 A 
ATOM      4  C   UNL     1      -0.894  -0.959  -3.668  0.00  0.00    +0.003 A 
ATOM      5  C   UNL     1      -1.451  -0.619  -4.887  0.00  0.00    +0.000 A 
ATOM      6  C   UNL     1      -1.139   0.591  -5.480  0.00  0.00    +0.002 A 
ATOM      7  C   UNL     1      -0.269   1.464  -4.856  0.00  0.00    +0.023 A 
ATOM      8  C   UNL     1       0.289   1.127  -3.629  0.00  0.00    +0.029 A 
BRANCH   3   9
ATOM      9  C   UNL     1       0.585  -0.463  -1.710  0.00  0.00    -0.041 C 
BRANCH   9  11
ATOM     10  C   UNL     1       2.045  -2.074  -2.724  0.00  0.00    -0.095 C 
ATOM     11  N   UNL     1       1.987  -0.856  -1.906  0.00  0.00    +0.382 N 
ATOM     12  H   UNL     1       2.482  -0.112  -2.374  0.00  0.00    -0.081 HD
BRANCH  11  13
ATOM     13  C   UNL     1       2.610  -1.112  -0.600  0.00  0.00    -0.069 C 
ATOM     14  C   UNL     1       2.549   0.157   0.252  0.00  0.00    -0.015 C 
ATOM     15  C   UNL     1       3.198  -0.110   1.611  0.00  0.00    -0.002 C 
ATOM     16  C   UNL     1       4.659  -0.518   1.408  0.00  0.00    -0.000 C 
ATOM     17  C   UNL     1       4.719  -1.788   0.556  0.00  0.00    -0.002 C 
ATOM     18  C   UNL     1       4.070  -1.521  -0.804  0.00  0.00    -0.015 C 
ENDBRANCH  11  13
ENDBRANCH   9  11
ENDBRANCH   3   9
ENDBRANCH   1   8
BRANCH   1  19
ATOM     19  C   UNL     1       1.589   3.237  -3.671  0.00  0.00    +0.197 C 
BRANCH  19  20
ATOM     20  C   UNL     1       2.526   4.006  -2.776  0.00  0.00    +0.233 C 
ATOM     21  O   UNL     1       3.010   3.471  -1.801  0.00  0.00    -0.274 OA
ATOM     22  N   UNL     1       2.826   5.290  -3.059  0.00  0.00    -0.292 N 
BRANCH  22  23
ATOM     23  C   UNL     1       3.848   5.992  -2.280  0.00  0.00    +0.099 C 
ATOM     24  C   UNL     1       5.175   5.217  -2.344  0.00  0.00    +0.046 C 
ATOM     25  C   UNL     1       6.158   5.764  -1.281  0.00  0.00    +0.168 C 
ATOM     26  S   UNL     1       5.029   6.402   0.023  0.00  0.00    -0.029 S 
ATOM     27  O   UNL     1       5.142   5.578   1.176  0.00  0.00    -0.174 OA
ATOM     28  O   UNL     1       5.210   7.806   0.146  0.00  0.00    -0.174 OA
ATOM     29  C   UNL     1       3.408   6.075  -0.790  0.00  0.00    +0.188 C 
ENDBRANCH  22  23
BRANCH  22  30
ATOM     30  C   UNL     1       2.131   5.981  -4.147  0.00  0.00    +0.076 C 
ATOM     31  C   UNL     1       0.655   6.154  -3.780  0.00  0.00    +0.022 C 
ATOM     32  C   UNL     1      -0.072   6.877  -4.917  0.00  0.00    +0.002 C 
ATOM     33  C   UNL     1       0.042   6.052  -6.200  0.00  0.00    +0.000 C 
ATOM     34  C   UNL     1       1.518   5.880  -6.567  0.00  0.00    +0.002 C 
ATOM     35  C   UNL     1       2.244   5.157  -5.431  0.00  0.00    +0.022 C 
ENDBRANCH  22  30
ENDBRANCH  19  20
ENDBRANCH   1  19
TORSDOF 8
