REMARK  Name = ZINC20573142
REMARK  3 active torsions:
REMARK  status: ('A' for Active; 'I' for Inactive)
REMARK    1  A    between atoms: C_5  and  C_7
REMARK    2  A    between atoms: N_9  and  C_10
REMARK    3  A    between atoms: C_10  and  C_11
REMARK                            x       y       z     vdW  Elec       q    Type
REMARK                         _______ _______ _______ _____ _____    ______ ____
ROOT
ATOM      1  C   UNL     1      -1.288  -4.849  -0.012  0.00  0.00    +0.233 C 
ATOM      2  O   UNL     1      -2.225  -4.078   0.002  0.00  0.00    -0.274 OA
ATOM      3  N   UNL     1      -1.510  -6.178  -0.017  0.00  0.00    -0.300 N 
ATOM      4  C   UNL     1      -0.386  -7.125  -0.028  0.00  0.00    +0.110 C 
ATOM      5  C   UNL     1      -0.569  -8.093  -1.200  0.00  0.00    +0.047 C 
ATOM      6  C   UNL     1      -1.946  -8.751  -1.105  0.00  0.00    +0.064 C 
ATOM      7  C   UNL     1      -3.037  -7.682  -1.184  0.00  0.00    +0.047 C 
ATOM      8  C   UNL     1      -2.880  -6.709  -0.006  0.00  0.00    +0.110 C 
ATOM      9  C   UNL     1      -2.116  -9.739  -2.227  0.00  0.00    +0.057 A 
ATOM     10  C   UNL     1      -2.018 -11.079  -2.069  0.00  0.00    +0.039 A 
ATOM     11  N   UNL     1      -2.224 -11.651  -3.255  0.00  0.00    -0.349 N 
ATOM     12  C   UNL     1      -2.446 -10.720  -4.147  0.00  0.00    +0.171 A 
ATOM     13  N   UNL     1      -2.385  -9.511  -3.540  0.00  0.00    -0.348 N 
ATOM     14  H   UNL     1      -2.511  -8.647  -3.962  0.00  0.00    +0.166 HD
ATOM     15  C   UNL     1      -1.720 -11.729  -0.741  0.00  0.00    +0.070 C 
ATOM     16  C   UNL     1      -1.175 -10.649   0.204  0.00  0.00    +0.088 C 
ATOM     17  N   UNL     1      -2.057  -9.474   0.173  0.00  0.00    -0.305 NA
ATOM     18  H   UNL     1      -1.870  -8.861   0.953  0.00  0.00    +0.123 HD
ATOM     19  H   UNL     1      -2.211 -12.605  -3.429  0.00  0.00    +0.166 HD
ENDROOT
BRANCH   1  20
ATOM     20  C   UNL     1       0.123  -4.320  -0.023  0.00  0.00    +0.200 C 
BRANCH  20  23
ATOM     21  C   UNL     1       1.250  -2.160  -0.022  0.00  0.00    +0.247 C 
ATOM     22  O   UNL     1       2.314  -2.748  -0.036  0.00  0.00    -0.270 OA
ATOM     23  N   UNL     1       0.095  -2.855  -0.014  0.00  0.00    -0.303 N 
ATOM     24  H   UNL     1      -0.753  -2.386  -0.003  0.00  0.00    +0.150 HD
BRANCH  21  29
ATOM     25  C   UNL     1      -0.017   1.374   0.010  0.00  0.00    +0.001 A 
ATOM     26  C   UNL     1       1.170   2.087   0.002  0.00  0.00    +0.003 A 
ATOM     27  C   UNL     1       2.383   1.425  -0.013  0.00  0.00    +0.039 A 
ATOM     28  C   UNL     1       2.418   0.042  -0.021  0.00  0.00    +0.135 A 
ATOM     29  C   UNL     1       1.222  -0.683  -0.013  0.00  0.00    +0.072 A 
ATOM     30  C   UNL     1       0.002  -0.004   0.002  0.00  0.00    +0.016 A 
ATOM     31  F   UNL     1       3.603  -0.606  -0.037  0.00  0.00    -0.205 F 
ENDBRANCH  21  29
ENDBRANCH  20  23
ENDBRANCH   1  20
TORSDOF 3
