REMARK  Name = ZINC39444931
REMARK  8 active torsions:
REMARK  status: ('A' for Active; 'I' for Inactive)
REMARK    1  A    between atoms: C_1  and  C_2
REMARK    2  A    between atoms: N_4  and  C_5
REMARK    3  A    between atoms: C_5  and  C_7
REMARK    4  A    between atoms: C_5  and  C_17
REMARK    5  A    between atoms: C_7  and  C_8
REMARK    6  A    between atoms: C_17  and  O_19
REMARK    7  A    between atoms: O_19  and  C_20
REMARK    8  A    between atoms: C_20  and  C_21
REMARK                            x       y       z     vdW  Elec       q    Type
REMARK                         _______ _______ _______ _____ _____    ______ ____
ROOT
ATOM      1  C   UNL     1      -0.407  -2.658   1.222  0.00  0.00    +0.328 C 
ATOM      2  O   UNL     1       0.347  -1.925   1.817  0.00  0.00    -0.249 OA
ENDROOT
BRANCH   1   3
ATOM      3  C   UNL     1      -1.136  -2.159   0.001  0.00  0.00    +0.186 C 
BRANCH   3   7
ATOM      4  C   UNL     1      -0.018   1.503   0.010  0.00  0.00    +0.109 C 
ATOM      5  C   UNL     1       0.002  -0.004   0.002  0.00  0.00    +0.211 C 
ATOM      6  O   UNL     1       1.060  -0.596  -0.011  0.00  0.00    -0.276 OA
ATOM      7  N   UNL     1      -1.156  -0.694   0.009  0.00  0.00    -0.302 N 
ATOM      8  H   UNL     1      -2.002  -0.220   0.020  0.00  0.00    +0.150 HD
ENDBRANCH   3   7
BRANCH   3   9
ATOM      9  C   UNL     1      -0.420  -2.652  -1.258  0.00  0.00    +0.071 C 
BRANCH   9  10
ATOM     10  C   UNL     1      -1.215  -2.257  -2.475  0.00  0.00    -0.020 A 
ATOM     11  C   UNL     1      -1.153  -0.974  -3.178  0.00  0.00    +0.003 A 
ATOM     12  C   UNL     1      -0.421   0.200  -2.992  0.00  0.00    +0.010 A 
ATOM     13  C   UNL     1      -0.596   1.252  -3.847  0.00  0.00    +0.001 A 
ATOM     14  C   UNL     1      -1.496   1.163  -4.899  0.00  0.00    +0.002 A 
ATOM     15  C   UNL     1      -2.229   0.013  -5.101  0.00  0.00    +0.026 A 
ATOM     16  C   UNL     1      -2.067  -1.069  -4.244  0.00  0.00    +0.047 A 
ATOM     17  N   UNL     1      -2.634  -2.322  -4.181  0.00  0.00    -0.360 N 
ATOM     18  C   UNL     1      -2.111  -3.018  -3.125  0.00  0.00    +0.087 A 
ATOM     19  H   UNL     1      -3.303  -2.663  -4.796  0.00  0.00    +0.165 HD
ENDBRANCH   9  10
ENDBRANCH   3   9
ENDBRANCH   1   3
BRANCH   1  20
ATOM     20  O   UNL     1      -0.596  -3.917   1.649  0.00  0.00    -0.462 OA
BRANCH  20  21
ATOM     21  C   UNL     1       0.127  -4.322   2.812  0.00  0.00    +0.251 C 
BRANCH  21  22
ATOM     22  C   UNL     1      -0.214  -5.777   3.144  0.00  0.00    +0.102 C 
ATOM     23  C   UNL     1       0.674  -6.244   4.284  0.00  0.00    +0.118 C 
ATOM     24  C   UNL     1       0.071  -6.023   5.636  0.00  0.00    +0.223 C 
ATOM     25  O   UNL     1       0.730  -6.270   6.624  0.00  0.00    -0.275 OA
ATOM     26  N   UNL     1      -1.189  -5.555   5.785  0.00  0.00    -0.249 N 
ATOM     27  C   UNL     1      -1.934  -4.992   4.623  0.00  0.00    +0.213 C 
ATOM     28  N   UNL     1      -1.639  -5.866   3.482  0.00  0.00    -0.283 NA
ATOM     29  S   UNL     1      -3.646  -5.306   5.217  0.00  0.00    -0.089 S 
ATOM     30  C   UNL     1      -3.240  -5.429   6.946  0.00  0.00    +0.006 C 
ATOM     31  C   UNL     1      -1.909  -5.548   6.985  0.00  0.00    +0.025 C 
ATOM     32  C   UNL     1      -1.190  -5.674   8.329  0.00  0.00    +0.052 C 
ATOM     33  C   UNL     1      -2.112  -5.173   9.439  0.00  0.00    +0.006 C 
ATOM     34  C   UNL     1      -3.462  -5.893   9.354  0.00  0.00    +0.006 C 
ATOM     35  C   UNL     1      -4.195  -5.404   8.098  0.00  0.00    +0.044 C 
ATOM     36  H   UNL     1      -2.215  -5.628   2.688  0.00  0.00    +0.125 HD
ENDBRANCH  21  22
ENDBRANCH  20  21
ENDBRANCH   1  20
TORSDOF 7
