REMARK  Name = ZINC36593231
REMARK  10 active torsions:
REMARK  status: ('A' for Active; 'I' for Inactive)
REMARK    1  A    between atoms: C_1  and  C_2
REMARK    2  A    between atoms: C_2  and  N_3
REMARK    3  A    between atoms: C_7  and  C_9
REMARK    4  A    between atoms: C_9  and  N_10
REMARK    5  A    between atoms: C_11  and  C_13
REMARK    6  A    between atoms: C_13  and  C_15
REMARK    7  A    between atoms: C_13  and  N_18
REMARK    8  A    between atoms: C_15  and  C_16
REMARK    9  A    between atoms: C_15  and  C_17
REMARK   10  A    between atoms: C_19  and  C_21
REMARK                            x       y       z     vdW  Elec       q    Type
REMARK                         _______ _______ _______ _____ _____    ______ ____
ROOT
ATOM      1  N   UNL     1      -2.306  -1.690   6.168  0.00  0.00    -0.300 N 
ATOM      2  C   UNL     1      -1.724  -1.630   7.383  0.00  0.00    +0.245 C 
ATOM      3  O   UNL     1      -0.580  -1.231   7.489  0.00  0.00    -0.270 OA
ATOM      4  H   UNL     1      -3.218  -2.009   6.084  0.00  0.00    +0.150 HD
ENDROOT
BRANCH   2   5
ATOM      5  C   UNL     1      -2.473  -2.049   8.582  0.00  0.00    +0.038 A 
ATOM      6  C   UNL     1      -3.790  -2.516   8.470  0.00  0.00    +0.015 A 
ATOM      7  C   UNL     1      -4.498  -2.906   9.559  0.00  0.00    +0.030 A 
ATOM      8  C   UNL     1      -3.930  -2.855  10.857  0.00  0.00    +0.081 A 
ATOM      9  C   UNL     1      -2.598  -2.380  10.943  0.00  0.00    +0.042 A 
ATOM     10  C   UNL     1      -1.879  -1.990   9.847  0.00  0.00    +0.030 A 
ATOM     11  S   UNL     1      -2.277  -2.473  12.688  0.00  0.00    -0.049 S 
ATOM     12  C   UNL     1      -3.874  -3.114  13.173  0.00  0.00    +0.178 A 
ATOM     13  N   UNL     1      -4.500  -3.203  12.021  0.00  0.00    -0.222 NA
ATOM     14  N   UNL     1      -4.336  -3.436  14.442  0.00  0.00    -0.302 N 
ATOM     15  C   UNL     1      -3.627  -3.311  15.605  0.00  0.00    +0.093 A 
ATOM     16  C   UNL     1      -4.410  -3.721  16.622  0.00  0.00    +0.019 A 
ATOM     17  C   UNL     1      -5.648  -4.114  16.072  0.00  0.00    +0.019 A 
ATOM     18  C   UNL     1      -5.579  -3.925  14.739  0.00  0.00    +0.093 A 
ENDBRANCH   2   5
BRANCH   1  19
ATOM     19  C   UNL     1      -1.561  -1.275   4.977  0.00  0.00    +0.162 C 
BRANCH  19  21
ATOM     20  N   UNL     1      -1.592  -1.740   2.548  0.00  0.00    -0.315 N 
ATOM     21  C   UNL     1      -2.124  -1.971   3.765  0.00  0.00    +0.234 C 
ATOM     22  O   UNL     1      -3.055  -2.738   3.884  0.00  0.00    -0.274 OA
ATOM     23  H   UNL     1      -0.847  -1.126   2.453  0.00  0.00    +0.149 HD
BRANCH  20  24
ATOM     24  C   UNL     1      -2.139  -2.417   1.369  0.00  0.00    +0.089 C 
BRANCH  24  29
ATOM     25  N   UNL     1      -1.376  -0.512   0.012  0.00  0.00    +0.382 N 
ATOM     26  C   UNL     1      -2.052  -0.144  -1.250  0.00  0.00    -0.078 C 
ATOM     27  C   UNL     1      -1.892  -1.386  -2.162  0.00  0.00    -0.020 C 
ATOM     28  C   UNL     1      -2.041  -2.545  -1.141  0.00  0.00    -0.016 C 
ATOM     29  C   UNL     1      -1.362  -1.983   0.125  0.00  0.00    -0.051 C 
ATOM     30  H   UNL     1      -1.879  -0.117   0.793  0.00  0.00    -0.081 HD
BRANCH  25  32
ATOM     31  C   UNL     1      -0.019   1.526   0.010  0.00  0.00    -0.017 C 
ATOM     32  C   UNL     1       0.002  -0.004   0.002  0.00  0.00    -0.082 C 
ENDBRANCH  25  32
ENDBRANCH  24  29
ENDBRANCH  20  24
ENDBRANCH  19  21
BRANCH  19  33
ATOM     33  C   UNL     1      -1.687   0.240   4.800  0.00  0.00    +0.012 C 
ATOM     34  C   UNL     1      -3.166   0.628   4.761  0.00  0.00    +0.009 C 
ATOM     35  C   UNL     1      -1.004   0.949   5.972  0.00  0.00    +0.009 C 
ENDBRANCH  19  33
ENDBRANCH   1  19
TORSDOF 7
