REMARK  Name = ZINC35656432
REMARK  11 active torsions:
REMARK  status: ('A' for Active; 'I' for Inactive)
REMARK    1  A    between atoms: C_1  and  C_2
REMARK    2  A    between atoms: C_2  and  O_3
REMARK    3  A    between atoms: O_3  and  C_4
REMARK    4  A    between atoms: C_8  and  C_11
REMARK    5  A    between atoms: C_9  and  O_10
REMARK    6  A    between atoms: N_15  and  C_30
REMARK    7  A    between atoms: N_17  and  C_18
REMARK    8  A    between atoms: C_21  and  C_24
REMARK    9  A    between atoms: C_24  and  O_26
REMARK   10  A    between atoms: O_26  and  C_27
REMARK   11  A    between atoms: C_27  and  C_28
REMARK                            x       y       z     vdW  Elec       q    Type
REMARK                         _______ _______ _______ _____ _____    ______ ____
ROOT
ATOM      1  C   UNL     1       3.129  -4.395   3.122  0.00  0.00    +0.032 C 
ATOM      2  C   UNL     1       3.070  -5.731   3.353  0.00  0.00    +0.078 C 
ATOM      3  C   UNL     1       3.868  -6.558   4.277  0.00  0.00    +0.259 C 
ATOM      4  O   UNL     1       4.733  -6.070   4.981  0.00  0.00    -0.269 OA
ATOM      5  N   UNL     1       3.601  -7.853   4.306  0.00  0.00    -0.249 N 
ATOM      6  C   UNL     1       2.619  -8.386   3.503  0.00  0.00    +0.168 C 
ATOM      7  N   UNL     1       2.230  -9.640   3.409  0.00  0.00    -0.226 NA
ATOM      8  S   UNL     1       1.998  -6.961   2.624  0.00  0.00    -0.049 S 
ATOM      9  C   UNL     1       4.359  -8.729   5.203  0.00  0.00    +0.140 C 
ENDROOT
BRANCH   1  14
ATOM     10  C   UNL     1       1.396  -1.885   0.924  0.00  0.00    +0.163 A 
ATOM     11  C   UNL     1       0.196  -2.534   0.680  0.00  0.00    +0.064 A 
ATOM     12  C   UNL     1      -0.049  -3.784   1.228  0.00  0.00    +0.022 A 
ATOM     13  C   UNL     1       0.899  -4.394   2.021  0.00  0.00    +0.027 A 
ATOM     14  C   UNL     1       2.116  -3.750   2.277  0.00  0.00    +0.022 A 
ATOM     15  C   UNL     1       2.364  -2.487   1.717  0.00  0.00    +0.166 A 
ATOM     16 BR   UNL     1      -1.691  -4.655   0.886  0.00  0.00    -0.050 Br
BRANCH  15  17
ATOM     17  O   UNL     1       3.543  -1.855   1.954  0.00  0.00    -0.503 OA
ATOM     18  H   UNL     1       3.536  -1.290   2.738  0.00  0.00    +0.292 HD
ENDBRANCH  15  17
BRANCH  10  19
ATOM     19  O   UNL     1       1.627  -0.659   0.382  0.00  0.00    -0.489 OA
BRANCH  19  21
ATOM     20  C   UNL     1       1.027   1.272  -0.942  0.00  0.00    +0.048 C 
ATOM     21  C   UNL     1       0.588  -0.099  -0.423  0.00  0.00    +0.226 C 
ENDBRANCH  19  21
ENDBRANCH  10  19
ENDBRANCH   1  14
BRANCH   7  22
ATOM     22  C   UNL     1       2.745 -10.579   4.251  0.00  0.00    +0.067 A 
ATOM     23  C   UNL     1       2.282 -10.665   5.570  0.00  0.00    +0.028 A 
ATOM     24  C   UNL     1       2.798 -11.605   6.414  0.00  0.00    +0.017 A 
ATOM     25  C   UNL     1       3.791 -12.482   5.962  0.00  0.00    +0.059 A 
ATOM     26  C   UNL     1       4.255 -12.395   4.643  0.00  0.00    +0.017 A 
ATOM     27  C   UNL     1       3.735 -11.460   3.797  0.00  0.00    +0.028 A 
BRANCH  25  28
ATOM     28  C   UNL     1       4.348 -13.495   6.872  0.00  0.00    +0.339 C 
ATOM     29  O   UNL     1       3.946 -13.571   8.017  0.00  0.00    -0.245 OA
BRANCH  28  30
ATOM     30  O   UNL     1       5.305 -14.340   6.437  0.00  0.00    -0.461 OA
BRANCH  30  31
ATOM     31  C   UNL     1       5.800 -15.298   7.374  0.00  0.00    +0.229 C 
ATOM     32  C   UNL     1       6.870 -16.161   6.704  0.00  0.00    +0.048 C 
ENDBRANCH  30  31
ENDBRANCH  28  30
ENDBRANCH  25  28
ENDBRANCH   7  22
TORSDOF 8
