REMARK  Name = ZINC26837044
REMARK  7 active torsions:
REMARK  status: ('A' for Active; 'I' for Inactive)
REMARK    1  A    between atoms: C_1  and  C_2
REMARK    2  A    between atoms: C_2  and  C_4
REMARK    3  A    between atoms: C_2  and  S_17
REMARK    4  A    between atoms: N_9  and  C_10
REMARK    5  A    between atoms: C_10  and  C_11
REMARK    6  A    between atoms: C_11  and  C_12
REMARK    7  A    between atoms: S_17  and  C_18
REMARK                            x       y       z     vdW  Elec       q    Type
REMARK                         _______ _______ _______ _____ _____    ______ ____
ROOT
ATOM      1  C   UNL     1      -1.171   1.657  -0.014  0.00  0.00    +0.233 C 
ATOM      2  O   UNL     1      -1.200   2.869  -0.024  0.00  0.00    -0.274 OA
ATOM      3  N   UNL     1       0.012   1.011  -0.038  0.00  0.00    -0.239 N 
ATOM      4  C   UNL     1       1.162   1.712  -0.079  0.00  0.00    +0.306 C 
ATOM      5  O   UNL     1       1.132   2.928  -0.089  0.00  0.00    -0.252 OA
ATOM      6  N   UNL     1       2.344   1.067  -0.108  0.00  0.00    -0.299 N 
ATOM      7  H   UNL     1       0.038  -0.089  -0.025  0.00  0.00    +0.159 HD
ATOM      8  H   UNL     1       2.371  -0.033  -0.099  0.00  0.00    +0.150 HD
ENDROOT
BRANCH   1  10
ATOM      9  C   UNL     1      -2.791   0.512   1.474  0.00  0.00    +0.029 C 
ATOM     10  C   UNL     1      -2.457   0.872   0.025  0.00  0.00    +0.134 C 
BRANCH  10  11
ATOM     11  S   UNL     1      -3.798   1.874  -0.674  0.00  0.00    -0.113 S 
BRANCH  11  12
ATOM     12  C   UNL     1      -3.399   1.986  -2.386  0.00  0.00    +0.011 A 
ATOM     13  C   UNL     1      -4.154   2.797  -3.225  0.00  0.00    +0.018 A 
ATOM     14  C   UNL     1      -3.840   2.885  -4.567  0.00  0.00    +0.042 A 
ATOM     15  C   UNL     1      -2.774   2.165  -5.078  0.00  0.00    +0.158 A 
ATOM     16  C   UNL     1      -2.018   1.355  -4.244  0.00  0.00    +0.159 A 
ATOM     17  C   UNL     1      -2.326   1.269  -2.899  0.00  0.00    +0.056 A 
ATOM     18  F   UNL     1      -0.977   0.655  -4.745  0.00  0.00    -0.202 F 
ATOM     19  F   UNL     1      -2.469   2.253  -6.391  0.00  0.00    -0.202 F 
ENDBRANCH  11  12
ENDBRANCH  10  11
ENDBRANCH   1  10
BRANCH   6  20
ATOM     20  C   UNL     1       3.595   1.829  -0.152  0.00  0.00    +0.111 C 
BRANCH  20  21
ATOM     21  C   UNL     1       4.781   0.863  -0.179  0.00  0.00    +0.061 C 
BRANCH  21  22
ATOM     22  C   UNL     1       6.066   1.648  -0.225  0.00  0.00    -0.009 A 
ATOM     23  C   UNL     1       6.823   2.106   0.802  0.00  0.00    +0.011 A 
ATOM     24  C   UNL     1       7.980   2.808   0.521  0.00  0.00    +0.008 A 
ATOM     25  C   UNL     1       8.318   3.027  -0.774  0.00  0.00    +0.045 A 
ATOM     26  S   UNL     1       6.984   2.221  -1.645  0.00  0.00    -0.102 S 
ENDBRANCH  21  22
ENDBRANCH  20  21
ENDBRANCH   6  20
TORSDOF 6
