REMARK  Name = ZINC12549422
REMARK  5 active torsions:
REMARK  status: ('A' for Active; 'I' for Inactive)
REMARK    1  A    between atoms: C_10  and  N_12
REMARK    2  A    between atoms: C_13  and  C_15
REMARK    3  A    between atoms: C_15  and  N_16
REMARK    4  A    between atoms: N_16  and  C_17
REMARK    5  A    between atoms: C_22  and  N_23
REMARK                            x       y       z     vdW  Elec       q    Type
REMARK                         _______ _______ _______ _____ _____    ______ ____
ROOT
ATOM      1  C   UNL     1      -2.011   3.684   2.463  0.00  0.00    +0.197 C 
ENDROOT
BRANCH   1   3
ATOM      2  N   UNL     1      -0.711   1.990   1.214  0.00  0.00    -0.307 N 
ATOM      3  C   UNL     1      -1.298   3.203   1.225  0.00  0.00    +0.231 C 
ATOM      4  O   UNL     1      -1.254   3.908   0.239  0.00  0.00    -0.274 OA
ATOM      5  H   UNL     1      -0.747   1.427   2.002  0.00  0.00    +0.149 HD
BRANCH   2  15
ATOM      6  C   UNL     1       3.916   3.200   0.012  0.00  0.00    +0.000 A 
ATOM      7  C   UNL     1       2.822   3.960   0.383  0.00  0.00    +0.000 A 
ATOM      8  C   UNL     1       1.563   3.397   0.376  0.00  0.00    +0.006 A 
ATOM      9  C   UNL     1       1.384   2.072   0.000  0.00  0.00    -0.024 A 
ATOM     10  C   UNL     1       2.474   1.314  -0.365  0.00  0.00    -0.042 A 
ATOM     11  C   UNL     1       3.741   1.883  -0.360  0.00  0.00    +0.004 A 
ATOM     12  C   UNL     1       2.356  -0.131  -0.777  0.00  0.00    +0.035 C 
ATOM     13  C   UNL     1       0.911  -0.469  -1.142  0.00  0.00    +0.007 C 
ATOM     14  C   UNL     1       0.002  -0.004   0.002  0.00  0.00    +0.027 C 
ATOM     15  C   UNL     1      -0.019   1.523   0.010  0.00  0.00    +0.103 C 
ENDBRANCH   2  15
ENDBRANCH   1   3
BRANCH   1  16
ATOM     16  N   UNL     1      -2.560   5.021   2.223  0.00  0.00    -0.334 N 
ATOM     17  H   UNL     1      -2.432   5.450   1.363  0.00  0.00    +0.147 HD
BRANCH  16  18
ATOM     18  C   UNL     1      -3.269   5.678   3.235  0.00  0.00    +0.049 A 
ATOM     19  C   UNL     1      -3.454   5.066   4.466  0.00  0.00    +0.025 A 
ATOM     20  C   UNL     1      -4.155   5.718   5.464  0.00  0.00    +0.002 A 
ATOM     21  C   UNL     1      -4.674   6.979   5.239  0.00  0.00    +0.002 A 
ATOM     22  C   UNL     1      -4.494   7.597   4.015  0.00  0.00    +0.025 A 
ATOM     23  C   UNL     1      -3.788   6.954   3.010  0.00  0.00    +0.051 A 
BRANCH  23  24
ATOM     24  N   UNL     1      -3.600   7.580   1.772  0.00  0.00    -0.328 N 
ATOM     25  C   UNL     1      -2.782   8.790   1.913  0.00  0.00    +0.105 C 
ATOM     26  C   UNL     1      -2.476   9.366   0.528  0.00  0.00    +0.019 C 
ATOM     27  C   UNL     1      -3.791   9.696  -0.183  0.00  0.00    +0.003 C 
ATOM     28  C   UNL     1      -4.646   8.429  -0.274  0.00  0.00    +0.019 C 
ATOM     29  C   UNL     1      -4.888   7.881   1.134  0.00  0.00    +0.105 C 
ENDBRANCH  23  24
ENDBRANCH  16  18
ENDBRANCH   1  16
TORSDOF 5
