REMARK  Name = ZINC20568363
REMARK  8 active torsions:
REMARK  status: ('A' for Active; 'I' for Inactive)
REMARK    1  A    between atoms: C_1  and  C_2
REMARK    2  A    between atoms: C_7  and  C_9
REMARK    3  A    between atoms: C_7  and  C_10
REMARK    4  A    between atoms: N_11  and  C_13
REMARK    5  A    between atoms: C_13  and  N_14
REMARK    6  A    between atoms: N_22  and  N_23
REMARK    7  A    between atoms: C_24  and  C_26
REMARK    8  A    between atoms: C_26  and  C_27
REMARK                            x       y       z     vdW  Elec       q    Type
REMARK                         _______ _______ _______ _____ _____    ______ ____
ROOT
ATOM      1  N   UNL     1      -3.542  -2.652  -0.960  0.00  0.00    -0.252 N 
ATOM      2  C   UNL     1      -4.464  -2.054  -0.108  0.00  0.00    +0.047 A 
ATOM      3  C   UNL     1      -4.340  -1.556   1.185  0.00  0.00    +0.025 A 
ATOM      4  C   UNL     1      -5.432  -1.002   1.822  0.00  0.00    +0.017 A 
ATOM      5  C   UNL     1      -6.660  -0.933   1.185  0.00  0.00    +0.019 A 
ATOM      6  C   UNL     1      -6.802  -1.423  -0.099  0.00  0.00    +0.027 A 
ATOM      7  C   UNL     1      -5.708  -1.982  -0.748  0.00  0.00    +0.029 A 
ATOM      8  C   UNL     1      -5.523  -2.583  -2.090  0.00  0.00    +0.153 C 
ATOM      9  N   UNL     1      -6.424  -2.728  -3.031  0.00  0.00    -0.175 NA
ATOM     10  C   UNL     1      -4.101  -2.979  -2.137  0.00  0.00    +0.272 C 
ATOM     11  O   UNL     1      -3.536  -3.509  -3.076  0.00  0.00    -0.268 OA
ATOM     12 BR   UNL     1      -8.144  -0.170   2.075  0.00  0.00    -0.050 Br
ENDROOT
BRANCH   9  13
ATOM     13  N   UNL     1      -6.074  -3.323  -4.250  0.00  0.00    -0.206 N 
ATOM     14  C   UNL     1      -7.000  -3.471  -5.218  0.00  0.00    +0.237 C 
ATOM     15  O   UNL     1      -8.136  -3.090  -5.033  0.00  0.00    -0.274 OA
ATOM     16  H   UNL     1      -5.165  -3.628  -4.397  0.00  0.00    +0.177 HD
BRANCH  14  17
ATOM     17  C   UNL     1      -6.624  -4.111  -6.529  0.00  0.00    +0.132 C 
BRANCH  17  18
ATOM     18  C   UNL     1      -7.831  -4.157  -7.430  0.00  0.00    -0.039 A 
ATOM     19  C   UNL     1      -8.677  -5.250  -7.398  0.00  0.00    +0.004 A 
ATOM     20  C   UNL     1      -9.784  -5.292  -8.225  0.00  0.00    +0.000 A 
ATOM     21  C   UNL     1     -10.046  -4.241  -9.083  0.00  0.00    +0.000 A 
ATOM     22  C   UNL     1      -9.200  -3.147  -9.115  0.00  0.00    +0.000 A 
ATOM     23  C   UNL     1      -8.096  -3.103  -8.285  0.00  0.00    +0.004 A 
ENDBRANCH  17  18
ENDBRANCH  14  17
ENDBRANCH   9  13
BRANCH   1  24
ATOM     24  C   UNL     1      -2.137  -2.889  -0.619  0.00  0.00    +0.201 C 
BRANCH  24  34
ATOM     25  C   UNL     1      -0.019   1.531   0.011  0.00  0.00    +0.012 C 
ATOM     26  C   UNL     1       0.002  -0.004   0.002  0.00  0.00    -0.017 C 
ATOM     27  C   UNL     1       0.706  -0.580  -1.257  0.00  0.00    +0.027 C 
ATOM     28  C   UNL     1       0.081  -2.003  -1.271  0.00  0.00    +0.059 C 
ATOM     29  C   UNL     1       0.725  -2.799  -0.150  0.00  0.00    +0.025 C 
ATOM     30  C   UNL     1       0.876  -2.100   1.183  0.00  0.00    -0.033 C 
ATOM     31  C   UNL     1       0.726  -0.592   1.213  0.00  0.00    +0.014 C 
ATOM     32  C   UNL     1      -0.098  -2.723   2.201  0.00  0.00    +0.011 C 
ATOM     33  C   UNL     1       2.301  -2.423   1.706  0.00  0.00    +0.011 C 
ATOM     34  N   UNL     1      -1.343  -1.737  -1.005  0.00  0.00    -0.283 NA
ATOM     35  C   UNL     1      -1.419  -0.610  -0.064  0.00  0.00    +0.093 C 
ENDBRANCH  24  34
ENDBRANCH   1  24
TORSDOF 5
