REMARK  Name = ZINC05220253
REMARK  7 active torsions:
REMARK  status: ('A' for Active; 'I' for Inactive)
REMARK    1  A    between atoms: C_1  and  C_2
REMARK    2  A    between atoms: C_3  and  C_26
REMARK    3  A    between atoms: C_4  and  C_14
REMARK    4  A    between atoms: C_26  and  O_28
REMARK    5  A    between atoms: O_28  and  C_29
REMARK    6  A    between atoms: C_29  and  C_30
REMARK    7  A    between atoms: C_29  and  C_31
REMARK                            x       y       z     vdW  Elec       q    Type
REMARK                         _______ _______ _______ _____ _____    ______ ____
ROOT
ATOM      1  C   UNL     1       1.034  -3.807   3.065  0.00  0.00    +0.061 C 
ATOM      2  C   UNL     1       1.259  -2.366   2.683  0.00  0.00    +0.031 C 
ATOM      3  C   UNL     1       2.255  -1.671   3.258  0.00  0.00    +0.154 C 
ATOM      4  C   UNL     1       2.506  -0.234   2.908  0.00  0.00    +0.080 C 
ATOM      5  C   UNL     1       1.830   0.134   1.611  0.00  0.00    +0.025 C 
ATOM      6  C   UNL     1       0.849  -0.641   1.100  0.00  0.00    +0.048 C 
ATOM      7  N   UNL     1       0.449  -1.776   1.753  0.00  0.00    -0.260 NA
ATOM      8  C   UNL     1       0.168  -0.279  -0.196  0.00  0.00    +0.056 C 
ATOM      9  C   UNL     1       0.159   1.240  -0.368  0.00  0.00    +0.014 C 
ATOM     10  C   UNL     1       1.605   1.744  -0.335  0.00  0.00    +0.080 C 
ATOM     11  C   UNL     1       2.249   1.302   0.951  0.00  0.00    +0.162 C 
ATOM     12  O   UNL     1       3.147   1.968   1.428  0.00  0.00    -0.292 OA
ENDROOT
BRANCH   4  13
ATOM     13  C   UNL     1       1.967   0.639   4.012  0.00  0.00    +0.043 A 
ATOM     14  C   UNL     1       0.655   0.625   4.306  0.00  0.00    +0.203 A 
ATOM     15  O   UNL     1       0.121   1.372   5.279  0.00  0.00    -0.462 OA
ATOM     16  C   UNL     1       0.861   2.211   6.033  0.00  0.00    +0.138 A 
ATOM     17  C   UNL     1       0.274   2.979   7.032  0.00  0.00    +0.048 A 
ATOM     18  C   UNL     1       1.050   3.829   7.791  0.00  0.00    +0.023 A 
ATOM     19  C   UNL     1       2.417   3.928   7.569  0.00  0.00    +0.042 A 
ATOM     20  C   UNL     1       3.018   3.174   6.583  0.00  0.00    +0.035 A 
ATOM     21  C   UNL     1       2.243   2.312   5.810  0.00  0.00    +0.066 A 
ATOM     22  C   UNL     1       2.841   1.486   4.743  0.00  0.00    +0.196 A 
ATOM     23  O   UNL     1       4.035   1.528   4.501  0.00  0.00    -0.287 OA
ATOM     24 CL   UNL     1       3.374   5.005   8.538  0.00  0.00    -0.084 Cl
ENDBRANCH   4  13
BRANCH   3  25
ATOM     25  C   UNL     1       3.085  -2.307   4.211  0.00  0.00    +0.317 C 
ATOM     26  O   UNL     1       4.220  -2.626   3.912  0.00  0.00    -0.250 OA
BRANCH  25  27
ATOM     27  O   UNL     1       2.618  -2.559   5.451  0.00  0.00    -0.461 OA
BRANCH  27  28
ATOM     28  C   UNL     1       3.510  -3.204   6.362  0.00  0.00    +0.170 C 
ATOM     29  C   UNL     1       3.185  -2.765   7.791  0.00  0.00    +0.052 C 
ATOM     30  C   UNL     1       3.350  -4.721   6.245  0.00  0.00    +0.052 C 
ENDBRANCH  27  28
ENDBRANCH  25  27
ENDBRANCH   3  25
TORSDOF 4
