REMARK  Name = ZINC07620709
REMARK  5 active torsions:
REMARK  status: ('A' for Active; 'I' for Inactive)
REMARK    1  A    between atoms: C_1  and  C_2
REMARK    2  A    between atoms: C_7  and  N_8
REMARK    3  A    between atoms: C_11  and  C_16
REMARK    4  A    between atoms: C_16  and  N_48
REMARK    5  A    between atoms: C_20  and  C_22
REMARK                            x       y       z     vdW  Elec       q    Type
REMARK                         _______ _______ _______ _____ _____    ______ ____
ROOT
ATOM      1  N   UNL     1      -1.236   2.069   0.019  0.00  0.00    -0.283 N 
ATOM      2  C   UNL     1      -1.255   3.445   0.131  0.00  0.00    +0.224 A 
ATOM      3  N   UNL     1      -2.415   4.090   0.240  0.00  0.00    -0.201 NA
ATOM      4  C   UNL     1      -2.434   5.406   0.347  0.00  0.00    +0.120 A 
ATOM      5  N   UNL     1      -1.302   6.089   0.346  0.00  0.00    -0.202 NA
ATOM      6  C   UNL     1      -0.139   5.452   0.237  0.00  0.00    +0.217 A 
ATOM      7  N   UNL     1      -0.115   4.128   0.135  0.00  0.00    -0.181 NA
ATOM      8  N   UNL     1       1.042   6.166   0.237  0.00  0.00    -0.327 N 
ATOM      9  H   UNL     1      -2.059   1.563   0.110  0.00  0.00    +0.155 HD
ATOM     10  H   UNL     1       1.025   7.133   0.316  0.00  0.00    +0.145 HD
ATOM     11  H   UNL     1       1.890   5.702   0.157  0.00  0.00    +0.145 HD
ENDROOT
BRANCH   1  18
ATOM     12  C   UNL     1      -0.943  -0.584   1.006  0.00  0.00    +0.045 C 
ATOM     13  C   UNL     1       0.154   0.107   0.237  0.00  0.00    -0.029 A 
ATOM     14  C   UNL     1       1.344  -0.550  -0.011  0.00  0.00    +0.005 A 
ATOM     15  C   UNL     1       2.350   0.083  -0.717  0.00  0.00    +0.000 A 
ATOM     16  C   UNL     1       2.170   1.374  -1.178  0.00  0.00    +0.002 A 
ATOM     17  C   UNL     1       0.983   2.036  -0.934  0.00  0.00    +0.023 A 
ATOM     18  C   UNL     1      -0.031   1.403  -0.225  0.00  0.00    +0.036 A 
ENDBRANCH   1  18
BRANCH   4  19
ATOM     19  C   UNL     1      -3.749   6.131   0.470  0.00  0.00    -0.000 C 
BRANCH  19  24
ATOM     20  C   UNL     1      -4.579   4.957   2.435  0.00  0.00    -0.077 C 
ATOM     21  C   UNL     1      -5.400   5.335   3.687  0.00  0.00    -0.020 C 
ATOM     22  C   UNL     1      -5.853   6.790   3.444  0.00  0.00    -0.012 C 
ATOM     23  C   UNL     1      -5.268   7.168   2.067  0.00  0.00    -0.030 C 
ATOM     24  N   UNL     1      -4.138   6.255   1.911  0.00  0.00    +0.389 N 
ATOM     25  H   UNL     1      -3.334   6.597   2.449  0.00  0.00    -0.080 HD
BRANCH  23  26
ATOM     26  C   UNL     1      -4.813   8.604   2.065  0.00  0.00    -0.024 A 
ATOM     27  C   UNL     1      -5.400   9.685   1.496  0.00  0.00    +0.009 A 
ATOM     28  C   UNL     1      -4.795  10.922   1.625  0.00  0.00    +0.008 A 
ATOM     29  C   UNL     1      -3.634  11.017   2.317  0.00  0.00    +0.045 A 
ATOM     30  S   UNL     1      -3.364   9.325   2.819  0.00  0.00    -0.103 S 
ENDBRANCH  23  26
ENDBRANCH  19  24
ENDBRANCH   4  19
TORSDOF 4
