REMARK  Name = ZINC13576619
REMARK  8 active torsions:
REMARK  status: ('A' for Active; 'I' for Inactive)
REMARK    1  A    between atoms: C_3  and  O_16
REMARK    2  A    between atoms: C_6  and  C_7
REMARK    3  A    between atoms: N_9  and  N_10
REMARK    4  A    between atoms: O_16  and  C_17
REMARK    5  A    between atoms: C_19  and  O_25
REMARK    6  A    between atoms: O_25  and  C_26
REMARK    7  A    between atoms: C_29  and  C_32
REMARK    8  A    between atoms: N_34  and  N_35
REMARK                            x       y       z     vdW  Elec       q    Type
REMARK                         _______ _______ _______ _____ _____    ______ ____
ROOT
ATOM      1  C   UNL     1       4.755   1.354  -0.036  0.00  0.00    +0.377 C 
ATOM      2  C   UNL     1       5.947   2.285   0.204  0.00  0.00    +0.377 C 
ATOM      3  O   UNL     1       6.051   3.205  -0.886  0.00  0.00    -0.335 OA
ATOM      4  C   UNL     1       6.201   2.571  -2.160  0.00  0.00    +0.192 C 
ATOM      5  C   UNL     1       5.009   1.640  -2.400  0.00  0.00    +0.192 C 
ATOM      6  O   UNL     1       4.904   0.718  -1.309  0.00  0.00    -0.335 OA
ENDROOT
BRANCH   1   7
ATOM      7  O   UNL     1       3.545   2.114  -0.021  0.00  0.00    -0.457 OA
BRANCH   7  10
ATOM      8  C   UNL     1      -0.017   1.393   0.010  0.00  0.00    +0.016 A 
ATOM      9  C   UNL     1       1.167   2.096   0.002  0.00  0.00    +0.046 A 
ATOM     10  C   UNL     1       2.380   1.417  -0.013  0.00  0.00    +0.124 A 
ATOM     11  C   UNL     1       2.404   0.028  -0.021  0.00  0.00    +0.046 A 
ATOM     12  C   UNL     1       1.224  -0.682  -0.014  0.00  0.00    +0.016 A 
ATOM     13  C   UNL     1       0.002  -0.004   0.002  0.00  0.00    +0.039 A 
BRANCH  13  14
ATOM     14  C   UNL     1      -1.264  -0.761   0.011  0.00  0.00    +0.263 C 
ATOM     15  O   UNL     1      -2.327  -0.169   0.024  0.00  0.00    -0.268 OA
ATOM     16  N   UNL     1      -1.244  -2.109   0.003  0.00  0.00    -0.203 N 
ATOM     17  H   UNL     1      -0.397  -2.581  -0.008  0.00  0.00    +0.178 HD
BRANCH  16  18
ATOM     18  N   UNL     1      -2.447  -2.828   0.011  0.00  0.00    -0.189 NA
ATOM     19  C   UNL     1      -2.427  -4.108   0.004  0.00  0.00    +0.037 C 
ATOM     20  C   UNL     1      -1.194  -4.986  -0.006  0.00  0.00    +0.052 C 
ATOM     21  C   UNL     1      -1.687  -6.448  -0.021  0.00  0.00    +0.006 C 
ATOM     22  C   UNL     1      -3.117  -6.349  -0.609  0.00  0.00    +0.006 C 
ATOM     23  C   UNL     1      -3.636  -5.026   0.011  0.00  0.00    +0.052 C 
ENDBRANCH  16  18
ENDBRANCH  13  14
ENDBRANCH   7  10
ENDBRANCH   1   7
BRANCH   2  24
ATOM     24  O   UNL     1       5.752   3.005   1.423  0.00  0.00    -0.457 OA
BRANCH  24  25
ATOM     25  C   UNL     1       6.771   3.801   1.837  0.00  0.00    +0.124 A 
ATOM     26  C   UNL     1       7.933   3.889   1.081  0.00  0.00    +0.046 A 
ATOM     27  C   UNL     1       8.969   4.695   1.499  0.00  0.00    +0.016 A 
ATOM     28  C   UNL     1       8.849   5.425   2.685  0.00  0.00    +0.039 A 
ATOM     29  C   UNL     1       7.678   5.333   3.442  0.00  0.00    +0.016 A 
ATOM     30  C   UNL     1       6.646   4.529   3.015  0.00  0.00    +0.046 A 
BRANCH  28  31
ATOM     31  C   UNL     1       9.957   6.290   3.136  0.00  0.00    +0.263 C 
ATOM     32  O   UNL     1      10.975   6.368   2.476  0.00  0.00    -0.268 OA
ATOM     33  N   UNL     1       9.839   6.993   4.280  0.00  0.00    -0.203 N 
ATOM     34  H   UNL     1       9.027   6.930   4.806  0.00  0.00    +0.178 HD
BRANCH  33  35
ATOM     35  N   UNL     1      10.891   7.813   4.709  0.00  0.00    -0.189 NA
ATOM     36  C   UNL     1      10.779   8.481   5.795  0.00  0.00    +0.037 C 
ATOM     37  C   UNL     1       9.585   8.486   6.727  0.00  0.00    +0.052 C 
ATOM     38  C   UNL     1       9.926   9.447   7.885  0.00  0.00    +0.006 C 
ATOM     39  C   UNL     1      11.006  10.382   7.283  0.00  0.00    +0.006 C 
ATOM     40  C   UNL     1      11.822   9.410   6.392  0.00  0.00    +0.052 C 
ENDBRANCH  33  35
ENDBRANCH  28  31
ENDBRANCH  24  25
ENDBRANCH   2  24
TORSDOF 8
