REMARK  Name = ZINC39280339
REMARK  6 active torsions:
REMARK  status: ('A' for Active; 'I' for Inactive)
REMARK    1  A    between atoms: C_1  and  C_2
REMARK    2  A    between atoms: C_5  and  C_23
REMARK    3  A    between atoms: C_6  and  C_8
REMARK    4  A    between atoms: C_10  and  C_14
REMARK    5  A    between atoms: C_18  and  S_22
REMARK    6  A    between atoms: N_20  and  N_21
REMARK                            x       y       z     vdW  Elec       q    Type
REMARK                         _______ _______ _______ _____ _____    ______ ____
ROOT
ATOM      1  C   UNL     1      -0.203  -2.505   2.625  0.00  0.00    +0.091 C 
ATOM      2  C   UNL     1      -0.255  -3.822   2.900  0.00  0.00    +0.034 C 
ATOM      3  C   UNL     1      -0.370  -3.874   4.413  0.00  0.00    +0.187 C 
ATOM      4  N   UNL     1      -0.366  -2.453   4.799  0.00  0.00    -0.176 NA
ATOM      5  N   UNL     1      -0.266  -1.778   3.772  0.00  0.00    -0.154 NA
ENDROOT
BRANCH   1  11
ATOM      6  C   UNL     1      -1.919  -2.069  -2.043  0.00  0.00    +0.044 C 
ATOM      7  C   UNL     1      -0.909  -1.716  -0.982  0.00  0.00    -0.050 A 
ATOM      8  C   UNL     1       0.130  -0.852  -1.279  0.00  0.00    +0.003 A 
ATOM      9  C   UNL     1       1.061  -0.524  -0.310  0.00  0.00    +0.004 A 
ATOM     10  C   UNL     1       0.957  -1.057   0.959  0.00  0.00    -0.041 A 
ATOM     11  C   UNL     1      -0.087  -1.928   1.263  0.00  0.00    +0.005 A 
ATOM     12  C   UNL     1      -1.025  -2.251   0.284  0.00  0.00    +0.013 A 
ATOM     13  C   UNL     1       1.972  -0.699   2.014  0.00  0.00    +0.044 C 
ENDBRANCH   1  11
BRANCH   3  14
ATOM     14  C   UNL     1       0.827  -4.607   5.021  0.00  0.00    +0.185 C 
ATOM     15  N   UNL     1       0.930  -5.971   4.453  0.00  0.00    -0.234 NA
ATOM     16  N   UNL     1       1.369  -6.807   5.581  0.00  0.00    -0.228 NA
ATOM     17  C   UNL     1       0.630  -6.230   6.734  0.00  0.00    +0.211 C 
ATOM     18  N   UNL     1       0.635  -4.770   6.477  0.00  0.00    -0.197 NA
ATOM     19  H   UNL     1       1.600  -5.999   3.699  0.00  0.00    +0.143 HD
ATOM     20  H   UNL     1       1.116  -7.772   5.436  0.00  0.00    +0.143 HD
BRANCH  18  21
ATOM     21  N   UNL     1       1.698  -4.113   7.220  0.00  0.00    -0.264 NA
ATOM     22  H   UNL     1       1.567  -4.224   8.214  0.00  0.00    +0.137 HD
ATOM     23  H   UNL     1       2.604  -4.455   6.934  0.00  0.00    +0.137 HD
ENDBRANCH  18  21
BRANCH  17  24
ATOM     24  S   UNL     1      -1.069  -6.864   6.780  0.00  0.00    -0.142 S 
ATOM     25  H   UNL     1      -0.917  -8.192   6.936  0.00  0.00    +0.105 HD
ENDBRANCH  17  24
ENDBRANCH   3  14
TORSDOF 4
