REMARK  Name = ZINC67253216
REMARK  10 active torsions:
REMARK  status: ('A' for Active; 'I' for Inactive)
REMARK    1  A    between atoms: C_1  and  C_2
REMARK    2  A    between atoms: C_2  and  C_4
REMARK    3  A    between atoms: C_2  and  N_15
REMARK    4  A    between atoms: C_8  and  S_10
REMARK    5  A    between atoms: S_10  and  N_13
REMARK    6  A    between atoms: N_13  and  C_14
REMARK    7  A    between atoms: C_22  and  C_24
REMARK    8  A    between atoms: C_24  and  C_25
REMARK    9  A    between atoms: C_25  and  C_26
REMARK   10  A    between atoms: C_25  and  C_27
REMARK                            x       y       z     vdW  Elec       q    Type
REMARK                         _______ _______ _______ _____ _____    ______ ____
ROOT
ATOM      1  N   UNL     1       0.688  -0.476  -1.203  0.00  0.00    -0.293 N 
ATOM      2  C   UNL     1       0.006  -0.608  -2.358  0.00  0.00    +0.306 C 
ATOM      3  O   UNL     1      -1.178  -0.335  -2.400  0.00  0.00    -0.252 OA
ATOM      4  N   UNL     1       0.637  -1.043  -3.467  0.00  0.00    -0.247 N 
ATOM      5  C   UNL     1      -0.066  -1.179  -4.660  0.00  0.00    +0.189 A 
ATOM      6  N   UNL     1      -1.337  -0.931  -4.908  0.00  0.00    -0.126 NA
ATOM      7  N   UNL     1      -1.839  -1.104  -6.054  0.00  0.00    -0.145 NA
ATOM      8  C   UNL     1      -1.072  -1.544  -7.031  0.00  0.00    +0.104 A 
ATOM      9  S   UNL     1       0.485  -1.696  -6.166  0.00  0.00    -0.035 S 
ATOM     10  H   UNL     1       1.632  -0.695  -1.170  0.00  0.00    +0.151 HD
ATOM     11  H   UNL     1       1.582  -1.261  -3.434  0.00  0.00    +0.158 HD
ENDROOT
BRANCH   1  13
ATOM     12  C   UNL     1      -0.019   1.526   0.010  0.00  0.00    +0.033 C 
ATOM     13  C   UNL     1       0.002  -0.004   0.002  0.00  0.00    +0.102 C 
BRANCH  13  14
ATOM     14  C   UNL     1       0.731  -0.503   1.223  0.00  0.00    -0.026 A 
ATOM     15  C   UNL     1       2.113  -0.514   1.247  0.00  0.00    +0.005 A 
ATOM     16  C   UNL     1       2.782  -0.972   2.366  0.00  0.00    +0.002 A 
ATOM     17  C   UNL     1       2.068  -1.419   3.463  0.00  0.00    +0.028 A 
ATOM     18  C   UNL     1       0.686  -1.407   3.439  0.00  0.00    +0.106 A 
ATOM     19  C   UNL     1       0.018  -0.945   2.321  0.00  0.00    +0.034 A 
BRANCH  18  20
ATOM     20  S   UNL     1      -0.223  -1.978   4.837  0.00  0.00    +0.058 S 
ATOM     21  O   UNL     1      -1.500  -2.374   4.356  0.00  0.00    -0.153 OA
ATOM     22  O   UNL     1       0.633  -2.864   5.545  0.00  0.00    -0.153 OA
BRANCH  20  23
ATOM     23  N   UNL     1      -0.474  -0.672   5.824  0.00  0.00    -0.193 NA
ATOM     24  C   UNL     1      -1.305   0.444   5.365  0.00  0.00    +0.127 C 
ATOM     25  H   UNL     1      -0.071  -0.646   6.706  0.00  0.00    +0.148 HD
ENDBRANCH  20  23
ENDBRANCH  18  20
ENDBRANCH  13  14
ENDBRANCH   1  13
BRANCH   8  26
ATOM     26  C   UNL     1      -1.410  -1.833  -8.471  0.00  0.00    +0.068 C 
BRANCH  26  27
ATOM     27  C   UNL     1      -1.191  -0.573  -9.309  0.00  0.00    -0.011 C 
ATOM     28  C   UNL     1       0.295  -0.210  -9.308  0.00  0.00    +0.007 C 
ATOM     29  C   UNL     1      -1.652  -0.829 -10.746  0.00  0.00    +0.007 C 
ENDBRANCH  26  27
ENDBRANCH   8  26
TORSDOF 6
