REMARK  Name = ZINC56936872
REMARK  6 active torsions:
REMARK  status: ('A' for Active; 'I' for Inactive)
REMARK    1  A    between atoms: C_1  and  C_2
REMARK    2  A    between atoms: C_3  and  N_16
REMARK    3  A    between atoms: C_4  and  C_15
REMARK    4  A    between atoms: N_5  and  C_7
REMARK    5  A    between atoms: C_22  and  C_24
REMARK    6  A    between atoms: N_26  and  C_29
REMARK                            x       y       z     vdW  Elec       q    Type
REMARK                         _______ _______ _______ _____ _____    ______ ____
ROOT
ATOM      1  C   UNL     1       0.231   0.415  -0.191  0.00  0.00    +0.069 C 
ATOM      2  C   UNL     1       0.036  -1.052  -0.476  0.00  0.00    +0.081 A 
ATOM      3  C   UNL     1      -0.137  -1.626  -1.743  0.00  0.00    +0.074 A 
ATOM      4  C   UNL     1      -0.279  -2.966  -1.578  0.00  0.00    +0.058 A 
ATOM      5  N   UNL     1      -0.198  -3.225  -0.245  0.00  0.00    -0.262 N 
ATOM      6  N   UNL     1       0.005  -2.008   0.418  0.00  0.00    -0.174 NA
ATOM      7  C   UNL     1      -0.489  -3.981  -2.672  0.00  0.00    +0.067 C 
ENDROOT
BRANCH   3   8
ATOM      8  N   UNL     1      -0.160  -0.935  -2.970  0.00  0.00    -0.324 N 
ATOM      9  C   UNL     1      -1.423  -0.417  -3.513  0.00  0.00    +0.124 C 
ATOM     10  C   UNL     1      -1.264   1.086  -3.775  0.00  0.00    +0.127 C 
ATOM     11  N   UNL     1      -0.025   1.302  -4.534  0.00  0.00    -0.293 N 
ATOM     12  C   UNL     1       1.239   0.783  -3.991  0.00  0.00    +0.127 C 
ATOM     13  C   UNL     1       1.081  -0.715  -3.727  0.00  0.00    +0.124 C 
ATOM     14  C   UNL     1      -0.046   1.963  -5.709  0.00  0.00    +0.268 C 
ATOM     15  O   UNL     1      -1.109   2.271  -6.213  0.00  0.00    -0.268 OA
BRANCH  14  16
ATOM     16  C   UNL     1       1.219   2.313  -6.381  0.00  0.00    +0.167 A 
ATOM     17  C   UNL     1       1.337   2.851  -7.631  0.00  0.00    +0.143 A 
ATOM     18  N   UNL     1       2.654   3.017  -7.863  0.00  0.00    -0.254 N 
ATOM     19  N   UNL     1       3.327   2.565  -6.719  0.00  0.00    -0.065 NA
ATOM     20  N   UNL     1       2.451   2.163  -5.865  0.00  0.00    -0.125 NA
ATOM     21  C   UNL     1       3.265   3.564  -9.077  0.00  0.00    +0.174 C 
ENDBRANCH  14  16
ENDBRANCH   3   8
BRANCH   5  22
ATOM     22  C   UNL     1      -0.299  -4.544   0.384  0.00  0.00    +0.130 C 
ATOM     23  C   UNL     1      -1.465  -4.553   1.387  0.00  0.00    +0.051 C 
ATOM     24  C   UNL     1      -1.383  -5.814   2.280  0.00  0.00    +0.168 C 
ATOM     25  S   UNL     1       0.420  -6.178   2.301  0.00  0.00    -0.029 S 
ATOM     26  O   UNL     1       0.927  -5.926   3.605  0.00  0.00    -0.174 OA
ATOM     27  O   UNL     1       0.643  -7.445   1.698  0.00  0.00    -0.174 OA
ATOM     28  C   UNL     1       1.011  -4.857   1.162  0.00  0.00    +0.192 C 
ENDBRANCH   5  22
TORSDOF 3
