REMARK  Name = ZINC22581426
REMARK  9 active torsions:
REMARK  status: ('A' for Active; 'I' for Inactive)
REMARK    1  A    between atoms: C_1  and  C_2
REMARK    2  A    between atoms: C_2  and  C_3
REMARK    3  A    between atoms: C_2  and  C_4
REMARK    4  A    between atoms: C_4  and  C_6
REMARK    5  A    between atoms: C_4  and  S_12
REMARK    6  A    between atoms: S_12  and  C_13
REMARK    7  A    between atoms: N_23  and  C_24
REMARK    8  A    between atoms: C_24  and  C_25
REMARK    9  A    between atoms: C_25  and  C_26
REMARK                            x       y       z     vdW  Elec       q    Type
REMARK                         _______ _______ _______ _____ _____    ______ ____
ROOT
ATOM      1  C   UNL     1      -2.391   0.813   1.334  0.00  0.00    +0.173 A 
ATOM      2  N   UNL     1      -2.565   0.038   0.292  0.00  0.00    -0.223 NA
ATOM      3  C   UNL     1      -3.709  -0.650   0.106  0.00  0.00    +0.079 A 
ATOM      4  C   UNL     1      -3.893  -1.481  -1.003  0.00  0.00    +0.028 A 
ATOM      5  C   UNL     1      -5.071  -2.156  -1.155  0.00  0.00    +0.002 A 
ATOM      6  C   UNL     1      -6.093  -2.030  -0.222  0.00  0.00    +0.001 A 
ATOM      7  C   UNL     1      -5.943  -1.225   0.873  0.00  0.00    +0.015 A 
ATOM      8  C   UNL     1      -4.751  -0.524   1.053  0.00  0.00    +0.065 A 
ATOM      9  C   UNL     1      -4.534   0.355   2.210  0.00  0.00    +0.262 A 
ATOM     10  O   UNL     1      -5.394   0.505   3.059  0.00  0.00    -0.267 OA
ATOM     11  N   UNL     1      -3.344   0.993   2.296  0.00  0.00    -0.287 N 
ENDROOT
BRANCH   1  12
ATOM     12  S   UNL     1      -0.860   1.669   1.497  0.00  0.00    -0.075 S 
BRANCH  12  13
ATOM     13  C   UNL     1      -0.013   1.086   0.008  0.00  0.00    +0.143 C 
BRANCH  13  14
ATOM     14  C   UNL     1       1.401   1.607  -0.003  0.00  0.00    +0.234 C 
ATOM     15  O   UNL     1       1.698   2.568   0.675  0.00  0.00    -0.274 OA
ATOM     16  N   UNL     1       2.336   1.006  -0.765  0.00  0.00    -0.239 N 
ATOM     17  C   UNL     1       3.600   1.472  -0.775  0.00  0.00    +0.303 C 
ATOM     18  O   UNL     1       3.897   2.436  -0.096  0.00  0.00    -0.253 OA
ATOM     19  N   UNL     1       4.535   0.871  -1.537  0.00  0.00    -0.313 N 
ATOM     20  H   UNL     1       2.066   0.134  -1.380  0.00  0.00    +0.159 HD
ATOM     21  H   UNL     1       5.566   1.252  -1.545  0.00  0.00    +0.146 HD
ATOM     22  H   UNL     1       4.265  -0.001  -2.152  0.00  0.00    +0.146 HD
ENDBRANCH  13  14
BRANCH  13  24
ATOM     23  C   UNL     1      -0.666   3.119  -1.289  0.00  0.00    +0.009 C 
ATOM     24  C   UNL     1      -0.753   1.593  -1.232  0.00  0.00    +0.005 C 
ATOM     25  C   UNL     1      -0.111   0.998  -2.487  0.00  0.00    +0.009 C 
ENDBRANCH  13  24
ENDBRANCH  12  13
ENDBRANCH   1  12
BRANCH  11  26
ATOM     26  C   UNL     1      -3.075   1.882   3.429  0.00  0.00    +0.131 C 
BRANCH  26  27
ATOM     27  C   UNL     1      -3.523   3.303   3.079  0.00  0.00    +0.052 C 
BRANCH  27  28
ATOM     28  C   UNL     1      -3.246   4.218   4.244  0.00  0.00    -0.072 C 
ATOM     29  C   UNL     1      -2.137   4.886   4.241  0.00  0.00    -0.028 C 
ATOM     30  C   UNL     1      -1.720   5.826   5.334  0.00  0.00    +0.027 C 
ATOM     31  C   UNL     1      -2.927   6.202   6.196  0.00  0.00    +0.004 C 
ATOM     32  C   UNL     1      -3.658   4.914   6.594  0.00  0.00    +0.005 C 
ATOM     33  C   UNL     1      -4.276   4.302   5.333  0.00  0.00    +0.030 C 
ENDBRANCH  27  28
ENDBRANCH  26  27
ENDBRANCH  11  26
TORSDOF 7
