REMARK  Name = ZINC67470719
REMARK  6 active torsions:
REMARK  status: ('A' for Active; 'I' for Inactive)
REMARK    1  A    between atoms: C_1  and  C_2
REMARK    2  A    between atoms: C_2  and  C_3
REMARK    3  A    between atoms: C_2  and  C_4
REMARK    4  A    between atoms: C_2  and  N_11
REMARK    5  A    between atoms: N_14  and  C_15
REMARK    6  A    between atoms: C_24  and  O_26
REMARK                            x       y       z     vdW  Elec       q    Type
REMARK                         _______ _______ _______ _____ _____    ______ ____
ROOT
ATOM      1  N   UNL     1       0.556  -0.272  -1.327  0.00  0.00    -0.290 N 
ATOM      2  C   UNL     1       1.849   0.006  -1.587  0.00  0.00    +0.301 C 
ATOM      3  O   UNL     1       2.556   0.479  -0.719  0.00  0.00    -0.253 OA
ATOM      4  N   UNL     1       2.358  -0.241  -2.811  0.00  0.00    -0.290 N 
ATOM      5  H   UNL     1      -0.008  -0.650  -2.021  0.00  0.00    +0.151 HD
ATOM      6  H   UNL     1       1.794  -0.618  -3.504  0.00  0.00    +0.151 HD
ENDROOT
BRANCH   4   7
ATOM      7  C   UNL     1       3.764   0.061  -3.093  0.00  0.00    +0.134 C 
ATOM      8  C   UNL     1       3.910   1.494  -3.558  0.00  0.00    -0.021 A 
ATOM      9  C   UNL     1       3.915   2.676  -2.836  0.00  0.00    +0.006 A 
ATOM     10  C   UNL     1       4.064   3.886  -3.484  0.00  0.00    +0.000 A 
ATOM     11  C   UNL     1       4.208   3.919  -4.859  0.00  0.00    +0.000 A 
ATOM     12  C   UNL     1       4.204   2.742  -5.581  0.00  0.00    +0.004 A 
ATOM     13  C   UNL     1       4.054   1.527  -4.932  0.00  0.00    -0.040 A 
ATOM     14  C   UNL     1       4.015   0.119  -5.485  0.00  0.00    +0.069 C 
ATOM     15  C   UNL     1       4.271  -0.801  -4.269  0.00  0.00    +0.143 C 
BRANCH  15  16
ATOM     16  O   UNL     1       5.665  -1.082  -4.128  0.00  0.00    -0.389 OA
ATOM     17  H   UNL     1       6.031  -1.621  -4.842  0.00  0.00    +0.210 HD
ENDBRANCH  15  16
ENDBRANCH   4   7
BRANCH   1  19
ATOM     18  C   UNL     1       0.155   1.483   0.328  0.00  0.00    +0.036 C 
ATOM     19  C   UNL     1       0.002  -0.004   0.002  0.00  0.00    +0.056 C 
ATOM     20  C   UNL     1       0.753  -0.835   1.044  0.00  0.00    +0.036 C 
BRANCH  19  21
ATOM     21  C   UNL     1      -1.458  -0.375   0.022  0.00  0.00    -0.025 A 
ATOM     22  C   UNL     1      -2.073  -0.700   1.217  0.00  0.00    +0.007 A 
ATOM     23  C   UNL     1      -3.412  -1.040   1.236  0.00  0.00    +0.020 A 
ATOM     24  C   UNL     1      -4.138  -1.055   0.058  0.00  0.00    +0.041 A 
ATOM     25  C   UNL     1      -3.523  -0.729  -1.138  0.00  0.00    +0.020 A 
ATOM     26  C   UNL     1      -2.185  -0.384  -1.154  0.00  0.00    +0.007 A 
ATOM     27 CL   UNL     1      -5.821  -1.482   0.081  0.00  0.00    -0.084 Cl
ENDBRANCH  19  21
ENDBRANCH   1  19
TORSDOF 4
