REMARK  Name = ZINC27555341
REMARK  9 active torsions:
REMARK  status: ('A' for Active; 'I' for Inactive)
REMARK    1  A    between atoms: C_1  and  C_2
REMARK    2  A    between atoms: C_7  and  S_25
REMARK    3  A    between atoms: C_12  and  C_14
REMARK    4  A    between atoms: C_14  and  N_15
REMARK    5  A    between atoms: N_15  and  C_16
REMARK    6  A    between atoms: N_15  and  C_17
REMARK    7  A    between atoms: C_17  and  C_19
REMARK    8  A    between atoms: C_17  and  C_20
REMARK    9  A    between atoms: S_25  and  N_28
REMARK                            x       y       z     vdW  Elec       q    Type
REMARK                         _______ _______ _______ _____ _____    ______ ____
ROOT
ATOM      1  C   UNL     1      -0.019   1.526   0.010  0.00  0.00    +0.029 C 
ATOM      2  C   UNL     1       0.002  -0.004   0.002  0.00  0.00    +0.083 C 
ATOM      3  C   UNL     1       0.778  -0.520  -1.221  0.00  0.00    +0.059 C 
ATOM      4  C   UNL     1       1.932  -1.304  -0.637  0.00  0.00    -0.022 A 
ATOM      5  C   UNL     1       2.960  -1.995  -1.249  0.00  0.00    +0.034 A 
ATOM      6  C   UNL     1       3.912  -2.643  -0.485  0.00  0.00    +0.105 A 
ATOM      7  C   UNL     1       3.833  -2.599   0.895  0.00  0.00    +0.030 A 
ATOM      8  C   UNL     1       2.809  -1.912   1.510  0.00  0.00    +0.026 A 
ATOM      9  C   UNL     1       1.844  -1.254   0.745  0.00  0.00    +0.040 A 
ATOM     10  N   UNL     1       0.735  -0.509   1.166  0.00  0.00    -0.270 N 
ATOM     11  C   UNL     1       0.393  -0.287   2.450  0.00  0.00    +0.203 C 
ATOM     12  O   UNL     1      -0.589   0.375   2.711  0.00  0.00    -0.277 OA
ENDROOT
BRANCH   6  13
ATOM     13  S   UNL     1       5.222  -3.524  -1.268  0.00  0.00    +0.056 S 
ATOM     14  O   UNL     1       5.670  -4.498  -0.335  0.00  0.00    -0.153 OA
ATOM     15  O   UNL     1       4.761  -3.869  -2.567  0.00  0.00    -0.153 OA
BRANCH  13  16
ATOM     16  N   UNL     1       6.472  -2.458  -1.477  0.00  0.00    -0.204 NA
ATOM     17  H   UNL     1       6.381  -1.540  -1.180  0.00  0.00    +0.144 HD
ATOM     18  H   UNL     1       7.296  -2.753  -1.896  0.00  0.00    +0.144 HD
ENDBRANCH  13  16
ENDBRANCH   6  13
BRANCH  11  19
ATOM     19  C   UNL     1       1.231  -0.862   3.564  0.00  0.00    +0.020 C 
BRANCH  19  20
ATOM     20  N   UNL     1       0.652  -0.481   4.859  0.00  0.00    +0.388 N 
ATOM     21  C   UNL     1      -0.670  -1.102   5.007  0.00  0.00    -0.095 C 
ATOM     22  H   UNL     1       0.559   0.523   4.903  0.00  0.00    -0.081 HD
BRANCH  20  23
ATOM     23  C   UNL     1       1.533  -0.939   5.942  0.00  0.00    -0.034 C 
ATOM     24  C   UNL     1       2.910  -0.291   5.788  0.00  0.00    -0.008 C 
BRANCH  23  25
ATOM     25  C   UNL     1       0.939  -0.547   7.271  0.00  0.00    -0.024 A 
ATOM     26  C   UNL     1       0.898  -1.252   8.428  0.00  0.00    +0.009 A 
ATOM     27  C   UNL     1       0.295  -0.686   9.536  0.00  0.00    +0.008 A 
ATOM     28  C   UNL     1      -0.237   0.556   9.433  0.00  0.00    +0.045 A 
ATOM     29  S   UNL     1       0.115   0.968   7.732  0.00  0.00    -0.103 S 
ENDBRANCH  23  25
ENDBRANCH  20  23
ENDBRANCH  19  20
ENDBRANCH  11  19
TORSDOF 6
