REMARK  Name = ZINC65812659
REMARK  9 active torsions:
REMARK  status: ('A' for Active; 'I' for Inactive)
REMARK    1  A    between atoms: C_1  and  C_2
REMARK    2  A    between atoms: N_5  and  C_8
REMARK    3  A    between atoms: C_8  and  C_9
REMARK    4  A    between atoms: C_8  and  C_23
REMARK    5  A    between atoms: C_9  and  N_10
REMARK    6  A    between atoms: C_11  and  C_13
REMARK    7  A    between atoms: C_13  and  C_14
REMARK    8  A    between atoms: C_14  and  N_15
REMARK    9  A    between atoms: C_17  and  N_20
REMARK                            x       y       z     vdW  Elec       q    Type
REMARK                         _______ _______ _______ _____ _____    ______ ____
ROOT
ATOM      1  C   UNL     1      -0.749  -3.951   1.434  0.00  0.00    -0.020 C 
ENDROOT
BRANCH   1   6
ATOM      2  C   UNL     1      -0.069   1.426  -0.340  0.00  0.00    +0.007 C 
ATOM      3  C   UNL     1      -0.042  -0.101  -0.250  0.00  0.00    -0.018 C 
ATOM      4  C   UNL     1      -1.475  -0.634  -0.164  0.00  0.00    -0.015 C 
ATOM      5  C   UNL     1      -1.439  -2.154   0.005  0.00  0.00    -0.078 C 
ATOM      6  N   UNL     1      -0.714  -2.496   1.235  0.00  0.00    +0.385 N 
ATOM      7  C   UNL     1       0.681  -2.051   1.131  0.00  0.00    -0.078 C 
ATOM      8  C   UNL     1       0.727  -0.527   1.004  0.00  0.00    -0.015 C 
ATOM      9  H   UNL     1      -1.153  -2.040   2.021  0.00  0.00    -0.081 HD
ENDBRANCH   1   6
BRANCH   1  10
ATOM     10  C   UNL     1       0.036  -4.308   2.670  0.00  0.00    -0.059 A 
ATOM     11  C   UNL     1      -0.053  -3.514   3.799  0.00  0.00    +0.002 A 
ATOM     12  C   UNL     1       0.666  -3.841   4.933  0.00  0.00    +0.000 A 
ATOM     13  C   UNL     1       1.475  -4.962   4.938  0.00  0.00    +0.000 A 
ATOM     14  C   UNL     1       1.564  -5.756   3.810  0.00  0.00    +0.000 A 
ATOM     15  C   UNL     1       0.841  -5.431   2.678  0.00  0.00    +0.002 A 
ENDBRANCH   1  10
BRANCH   1  16
ATOM     16  C   UNL     1      -2.199  -4.408   1.601  0.00  0.00    +0.093 C 
BRANCH  16  17
ATOM     17  N   UNL     1      -2.242  -5.869   1.705  0.00  0.00    -0.316 N 
ATOM     18  C   UNL     1      -3.428  -6.505   1.770  0.00  0.00    +0.215 C 
ATOM     19  O   UNL     1      -4.460  -5.869   1.742  0.00  0.00    -0.276 OA
ATOM     20  H   UNL     1      -1.417  -6.378   1.727  0.00  0.00    +0.149 HD
BRANCH  18  21
ATOM     21  C   UNL     1      -3.472  -8.008   1.877  0.00  0.00    +0.119 C 
BRANCH  21  22
ATOM     22  C   UNL     1      -4.929  -8.473   1.934  0.00  0.00    +0.152 C 
BRANCH  22  23
ATOM     23  N   UNL     1      -4.971  -9.933   2.038  0.00  0.00    -0.269 N 
ATOM     24  C   UNL     1      -5.610 -10.643   2.991  0.00  0.00    +0.141 A 
ATOM     25  C   UNL     1      -5.408 -11.956   2.733  0.00  0.00    +0.163 A 
ATOM     26  C   UNL     1      -4.619 -12.052   1.582  0.00  0.00    +0.167 A 
ATOM     27  N   UNL     1      -4.362 -10.840   1.161  0.00  0.00    -0.177 NA
BRANCH  25  28
ATOM     28  N   UNL     1      -5.929 -13.090   3.528  0.00  0.00    +0.059 N 
ATOM     29  O   UNL     1      -6.603 -12.881   4.510  0.00  0.00    -0.126 OA
ATOM     30  O   UNL     1      -5.680 -14.226   3.196  0.00  0.00    -0.126 OA
ENDBRANCH  25  28
ENDBRANCH  22  23
ENDBRANCH  21  22
ENDBRANCH  18  21
ENDBRANCH  16  17
ENDBRANCH   1  16
TORSDOF 8
