REMARK  Name = ZINC21368413
REMARK  8 active torsions:
REMARK  status: ('A' for Active; 'I' for Inactive)
REMARK    1  A    between atoms: C_1  and  C_2
REMARK    2  A    between atoms: C_2  and  C_4
REMARK    3  A    between atoms: C_2  and  N_14
REMARK    4  A    between atoms: C_15  and  C_17
REMARK    5  A    between atoms: C_17  and  S_18
REMARK    6  A    between atoms: S_18  and  C_19
REMARK    7  A    between atoms: C_22  and  C_25
REMARK    8  A    between atoms: N_23  and  N_24
REMARK                            x       y       z     vdW  Elec       q    Type
REMARK                         _______ _______ _______ _____ _____    ______ ____
ROOT
ATOM      1  C   UNL     1       3.970   2.716  -0.062  0.00  0.00    +0.173 C 
ENDROOT
BRANCH   1   3
ATOM      2  N   UNL     1       5.804   4.377  -0.053  0.00  0.00    -0.308 N 
ATOM      3  C   UNL     1       5.429   3.086  -0.152  0.00  0.00    +0.224 C 
ATOM      4  O   UNL     1       6.265   2.223  -0.312  0.00  0.00    -0.275 OA
ATOM      5  H   UNL     1       5.045   5.161   0.092  0.00  0.00    +0.149 HD
BRANCH   2   7
ATOM      6  C   UNL     1       7.869   4.596   1.239  0.00  0.00    +0.033 C 
ATOM      7  C   UNL     1       7.221   4.737  -0.140  0.00  0.00    +0.100 C 
BRANCH   7   8
ATOM      8  C   UNL     1       7.350   6.162  -0.612  0.00  0.00    -0.027 A 
ATOM      9  C   UNL     1       6.466   7.127  -0.132  0.00  0.00    +0.006 A 
ATOM     10  C   UNL     1       6.554   8.422  -0.539  0.00  0.00    +0.009 A 
ATOM     11  C   UNL     1       7.551   8.797  -1.456  0.00  0.00    -0.018 A 
ATOM     12  C   UNL     1       7.674  10.125  -1.898  0.00  0.00    +0.008 A 
ATOM     13  C   UNL     1       8.652  10.451  -2.786  0.00  0.00    +0.001 A 
ATOM     14  C   UNL     1       9.537   9.487  -3.266  0.00  0.00    +0.001 A 
ATOM     15  C   UNL     1       9.447   8.191  -2.860  0.00  0.00    +0.008 A 
ATOM     16  C   UNL     1       8.450   7.816  -1.943  0.00  0.00    -0.018 A 
ATOM     17  C   UNL     1       8.331   6.489  -1.497  0.00  0.00    +0.014 A 
ENDBRANCH   7   8
ENDBRANCH   2   7
ENDBRANCH   1   3
BRANCH   1  18
ATOM     18  S   UNL     1       3.792   0.923  -0.229  0.00  0.00    -0.075 S 
BRANCH  18  19
ATOM     19  C   UNL     1       2.041   0.776  -0.092  0.00  0.00    +0.209 A 
ATOM     20  N   UNL     1       1.187   1.760   0.082  0.00  0.00    -0.121 NA
ATOM     21  N   UNL     1      -0.011   1.299   0.139  0.00  0.00    -0.127 NA
ATOM     22  C   UNL     1       0.004  -0.006   0.005  0.00  0.00    +0.183 A 
ATOM     23  N   UNL     1       1.319  -0.382  -0.146  0.00  0.00    -0.224 N 
BRANCH  22  24
ATOM     24  C   UNL     1      -1.171  -0.904   0.016  0.00  0.00    +0.040 A 
ATOM     25  C   UNL     1      -1.156  -2.068   0.787  0.00  0.00    +0.033 A 
ATOM     26  C   UNL     1      -2.256  -2.902   0.793  0.00  0.00    +0.042 A 
ATOM     27  C   UNL     1      -3.372  -2.586   0.036  0.00  0.00    +0.021 A 
ATOM     28  C   UNL     1      -3.393  -1.435  -0.729  0.00  0.00    +0.022 A 
ATOM     29  C   UNL     1      -2.302  -0.589  -0.740  0.00  0.00    +0.052 A 
ATOM     30 CL   UNL     1      -2.333   0.860  -1.696  0.00  0.00    -0.083 Cl
ATOM     31 CL   UNL     1      -2.240  -4.350   1.750  0.00  0.00    -0.084 Cl
ENDBRANCH  22  24
BRANCH  23  32
ATOM     32  N   UNL     1       1.801  -1.649  -0.317  0.00  0.00    -0.295 N 
ATOM     33  H   UNL     1       1.108  -2.502  -0.343  0.00  0.00    +0.163 HD
ATOM     34  H   UNL     1       2.883  -1.815  -0.428  0.00  0.00    +0.163 HD
ENDBRANCH  23  32
ENDBRANCH  18  19
ENDBRANCH   1  18
TORSDOF 7
