REMARK  Name = ZINC50396055
REMARK  5 active torsions:
REMARK  status: ('A' for Active; 'I' for Inactive)
REMARK    1  A    between atoms: C_6  and  C_7
REMARK    2  A    between atoms: C_7  and  C_9
REMARK    3  A    between atoms: C_7  and  O_19
REMARK    4  A    between atoms: C_9  and  N_10
REMARK    5  A    between atoms: N_10  and  C_11
REMARK                            x       y       z     vdW  Elec       q    Type
REMARK                         _______ _______ _______ _____ _____    ______ ____
ROOT
ATOM      1  C   UNL     1      -1.239  -0.855  -0.010  0.00  0.00    +0.128 C 
ENDROOT
BRANCH   1   7
ATOM      2  C   UNL     1       0.183   1.202  -0.071  0.00  0.00    +0.010 A 
ATOM      3  C   UNL     1       1.415   1.829  -0.095  0.00  0.00    +0.050 A 
ATOM      4  C   UNL     1       2.577   1.075  -0.085  0.00  0.00    +0.166 A 
ATOM      5  C   UNL     1       2.500  -0.316  -0.051  0.00  0.00    +0.167 A 
ATOM      6  C   UNL     1       1.262  -0.937  -0.027  0.00  0.00    +0.055 A 
ATOM      7  C   UNL     1       0.107  -0.177  -0.036  0.00  0.00    -0.017 A 
ATOM      8  O   UNL     1       3.767  -0.823  -0.049  0.00  0.00    -0.453 OA
ATOM      9  C   UNL     1       4.613   0.254  -0.493  0.00  0.00    +0.466 C 
ATOM     10  O   UNL     1       3.893   1.439  -0.104  0.00  0.00    -0.453 OA
ENDBRANCH   1   7
BRANCH   1  11
ATOM     11  O   UNL     1      -2.155  -0.066   0.750  0.00  0.00    -0.389 OA
ATOM     12  H   UNL     1      -2.292   0.825   0.400  0.00  0.00    +0.210 HD
ENDBRANCH   1  11
BRANCH   1  13
ATOM     13  C   UNL     1      -1.761  -1.007  -1.440  0.00  0.00    -0.045 C 
BRANCH  13  14
ATOM     14  N   UNL     1      -3.073  -1.668  -1.415  0.00  0.00    +0.388 N 
ATOM     15  H   UNL     1      -2.968  -2.611  -1.069  0.00  0.00    -0.085 HD
ATOM     16  H   UNL     1      -3.696  -1.156  -0.809  0.00  0.00    -0.085 HD
BRANCH  14  17
ATOM     17  C   UNL     1      -3.630  -1.704  -2.774  0.00  0.00    +0.016 C 
ATOM     18  C   UNL     1      -2.754  -2.594  -3.659  0.00  0.00    -0.005 C 
ATOM     19  C   UNL     1      -3.492  -2.840  -4.980  0.00  0.00    +0.018 C 
ATOM     20  C   UNL     1      -4.726  -3.698  -4.699  0.00  0.00    +0.104 C 
ATOM     21  N   UNL     1      -5.507  -3.127  -3.609  0.00  0.00    -0.317 N 
ATOM     22  C   UNL     1      -5.027  -2.252  -2.726  0.00  0.00    +0.199 C 
ATOM     23  O   UNL     1      -5.760  -1.877  -1.835  0.00  0.00    -0.278 OA
ATOM     24  H   UNL     1      -6.433  -3.401  -3.521  0.00  0.00    +0.149 HD
ENDBRANCH  14  17
ENDBRANCH  13  14
ENDBRANCH   1  13
TORSDOF 5
