REMARK  Name = ZINC19107634
REMARK  12 active torsions:
REMARK  status: ('A' for Active; 'I' for Inactive)
REMARK    1  A    between atoms: C_1  and  C_2
REMARK    2  A    between atoms: C_2  and  C_3
REMARK    3  A    between atoms: C_3  and  C_5
REMARK    4  A    between atoms: C_3  and  N_57
REMARK    5  A    between atoms: C_8  and  S_17
REMARK    6  A    between atoms: N_9  and  C_10
REMARK    7  A    between atoms: C_10  and  C_11
REMARK    8  A    between atoms: S_17  and  C_18
REMARK    9  A    between atoms: C_18  and  C_19
REMARK   10  A    between atoms: N_21  and  C_22
REMARK   11  A    between atoms: C_31  and  N_57
REMARK   12  A    between atoms: C_32  and  N_57
REMARK                            x       y       z     vdW  Elec       q    Type
REMARK                         _______ _______ _______ _____ _____    ______ ____
ROOT
ATOM      1  C   UNL     1       0.268   0.328  -0.724  0.00  0.00    +0.121 A 
ATOM      2  N   UNL     1       0.453   1.550  -0.311  0.00  0.00    -0.135 NA
ATOM      3  N   UNL     1       1.708   1.829  -0.307  0.00  0.00    -0.123 NA
ATOM      4  C   UNL     1       2.397   0.791  -0.721  0.00  0.00    +0.192 A 
ATOM      5  N   UNL     1       1.499  -0.200  -0.999  0.00  0.00    -0.303 N 
ENDROOT
BRANCH   1   6
ATOM      6  C   UNL     1      -1.058  -0.373  -0.871  0.00  0.00    +0.000 C 
BRANCH   6   9
ATOM      7  C   UNL     1      -1.217  -0.610   1.534  0.00  0.00    -0.096 C 
ATOM      8  C   UNL     1      -2.207   1.309   0.438  0.00  0.00    -0.096 C 
ATOM      9  N   UNL     1      -1.906  -0.133   0.316  0.00  0.00    +0.383 N 
ATOM     10  H   UNL     1      -2.786  -0.650   0.207  0.00  0.00    -0.082 HD
ENDBRANCH   6   9
BRANCH   6  12
ATOM     11  C   UNL     1      -3.079  -0.626  -2.317  0.00  0.00    +0.002 C 
ATOM     12  C   UNL     1      -1.779   0.154  -2.113  0.00  0.00    -0.011 C 
ENDBRANCH   6  12
ENDBRANCH   1   6
BRANCH   5  13
ATOM     13  C   UNL     1       1.794  -1.548  -1.491  0.00  0.00    +0.160 C 
BRANCH  13  14
ATOM     14  C   UNL     1       1.795  -1.544  -2.998  0.00  0.00    -0.028 A 
ATOM     15  C   UNL     1       0.627  -1.802  -3.691  0.00  0.00    +0.005 A 
ATOM     16  C   UNL     1       0.627  -1.793  -5.074  0.00  0.00    +0.000 A 
ATOM     17  C   UNL     1       1.797  -1.536  -5.763  0.00  0.00    +0.000 A 
ATOM     18  C   UNL     1       2.966  -1.283  -5.070  0.00  0.00    +0.000 A 
ATOM     19  C   UNL     1       2.965  -1.287  -3.688  0.00  0.00    +0.005 A 
ENDBRANCH  13  14
ENDBRANCH   5  13
BRANCH   4  20
ATOM     20  S   UNL     1       4.149   0.694  -0.885  0.00  0.00    -0.077 S 
BRANCH  20  21
ATOM     21  C   UNL     1       4.608   2.357  -0.339  0.00  0.00    +0.173 C 
BRANCH  21  22
ATOM     22  C   UNL     1       6.106   2.509  -0.398  0.00  0.00    +0.228 C 
ATOM     23  O   UNL     1       6.795   1.583  -0.772  0.00  0.00    -0.275 OA
ATOM     24  N   UNL     1       6.680   3.672  -0.034  0.00  0.00    -0.283 N 
ATOM     25  H   UNL     1       6.138   4.386   0.338  0.00  0.00    +0.155 HD
BRANCH  24  26
ATOM     26  C   UNL     1       8.056   3.852  -0.192  0.00  0.00    +0.062 A 
ATOM     27  C   UNL     1       8.738   3.117  -1.113  0.00  0.00    +0.025 A 
ATOM     28  C   UNL     1      10.111   3.272  -1.295  0.00  0.00    +0.004 A 
ATOM     29  C   UNL     1      10.828   4.161  -0.567  0.00  0.00    +0.031 A 
ATOM     30  C   UNL     1      10.186   4.964   0.413  0.00  0.00    +0.102 A 
ATOM     31  C   UNL     1       8.748   4.809   0.605  0.00  0.00    +0.121 A 
ATOM     32  N   UNL     1       8.278   5.624   1.546  0.00  0.00    -0.189 NA
ATOM     33  S   UNL     1       9.507   6.443   2.070  0.00  0.00    +0.117 S 
ATOM     34  N   UNL     1      10.703   5.885   1.224  0.00  0.00    -0.191 NA
ENDBRANCH  24  26
ENDBRANCH  21  22
ENDBRANCH  20  21
ENDBRANCH   4  20
TORSDOF 9
