REMARK  Name = ZINC09332422
REMARK  6 active torsions:
REMARK  status: ('A' for Active; 'I' for Inactive)
REMARK    1  A    between atoms: C_1  and  C_2
REMARK    2  A    between atoms: C_2  and  O_4
REMARK    3  A    between atoms: O_4  and  C_5
REMARK    4  A    between atoms: C_8  and  C_11
REMARK    5  A    between atoms: C_11  and  C_13
REMARK    6  A    between atoms: N_31  and  C_34
REMARK                            x       y       z     vdW  Elec       q    Type
REMARK                         _______ _______ _______ _____ _____    ______ ____
ROOT
ATOM      1  C   UNL     1      -4.744   3.552   6.453  0.00  0.00    +0.141 C 
ATOM      2  C   UNL     1      -5.112   4.834   5.752  0.00  0.00    +0.116 C 
ATOM      3  C   UNL     1      -6.639   4.903   6.171  0.00  0.00    +0.113 C 
ATOM      4  C   UNL     1      -6.492   4.729   7.644  0.00  0.00    +0.100 C 
ATOM      5  C   UNL     1      -5.194   2.968   8.919  0.00  0.00    +0.054 C 
ATOM      6  C   UNL     1      -6.254   2.713   9.709  0.00  0.00    +0.022 C 
ATOM      7  C   UNL     1      -7.586   3.221   9.326  0.00  0.00    -0.019 A 
ATOM      8  C   UNL     1      -7.723   4.173   8.311  0.00  0.00    -0.021 A 
ATOM      9  C   UNL     1      -8.976   4.599   7.929  0.00  0.00    +0.006 A 
ATOM     10  C   UNL     1     -10.102   4.098   8.560  0.00  0.00    +0.000 A 
ATOM     11  C   UNL     1      -9.975   3.168   9.577  0.00  0.00    +0.001 A 
ATOM     12  C   UNL     1      -8.726   2.727   9.963  0.00  0.00    +0.008 A 
ATOM     13  C   UNL     1      -7.032   6.068   5.370  0.00  0.00    +0.232 C 
ATOM     14  O   UNL     1      -7.817   6.942   5.673  0.00  0.00    -0.274 OA
ATOM     15  N   UNL     1      -6.319   5.954   4.204  0.00  0.00    -0.208 N 
ATOM     16  C   UNL     1      -5.290   5.055   4.304  0.00  0.00    +0.232 C 
ATOM     17  O   UNL     1      -4.660   4.551   3.398  0.00  0.00    -0.274 OA
ATOM     18  N   UNL     1      -5.247   4.006   7.801  0.00  0.00    -0.384 NA
ATOM     19  H   UNL     1      -4.576   4.723   8.104  0.00  0.00    +0.127 HD
ENDROOT
BRANCH  15  20
ATOM     20  C   UNL     1      -6.612   6.676   3.038  0.00  0.00    +0.062 A 
ATOM     21  C   UNL     1      -6.029   7.917   2.824  0.00  0.00    +0.025 A 
ATOM     22  C   UNL     1      -6.314   8.624   1.672  0.00  0.00    +0.002 A 
ATOM     23  C   UNL     1      -7.189   8.102   0.737  0.00  0.00    +0.002 A 
ATOM     24  C   UNL     1      -7.777   6.868   0.949  0.00  0.00    +0.022 A 
ATOM     25  C   UNL     1      -7.491   6.153   2.097  0.00  0.00    +0.063 A 
ATOM     26 CL   UNL     1      -8.228   4.604   2.363  0.00  0.00    -0.082 Cl
ENDBRANCH  15  20
BRANCH   1  27
ATOM     27  C   UNL     1      -3.251   3.452   6.634  0.00  0.00    +0.183 C 
ATOM     28  O   UNL     1      -2.750   3.730   7.703  0.00  0.00    -0.290 OA
BRANCH  27  32
ATOM     29  C   UNL     1      -0.803   2.199   3.406  0.00  0.00    +0.132 A 
ATOM     30  C   UNL     1      -2.180   2.296   3.235  0.00  0.00    +0.047 A 
ATOM     31  C   UNL     1      -2.979   2.696   4.281  0.00  0.00    +0.015 A 
ATOM     32  C   UNL     1      -2.403   3.018   5.516  0.00  0.00    +0.019 A 
ATOM     33  C   UNL     1      -1.016   2.924   5.681  0.00  0.00    +0.015 A 
ATOM     34  C   UNL     1      -0.226   2.517   4.630  0.00  0.00    +0.047 A 
BRANCH  29  35
ATOM     35  O   UNL     1      -0.020   1.799   2.372  0.00  0.00    -0.426 OA
BRANCH  35  37
ATOM     36  C   UNL     1       1.216  -0.015   1.240  0.00  0.00    +0.136 C 
ATOM     37  C   UNL     1       0.433   0.535   2.405  0.00  0.00    +0.309 C 
ATOM     38  O   UNL     1       0.214  -0.161   3.368  0.00  0.00    -0.251 OA
ENDBRANCH  35  37
ENDBRANCH  29  35
ENDBRANCH  27  32
ENDBRANCH   1  27
TORSDOF 5
