REMARK  Name = ZINC09024065
REMARK  6 active torsions:
REMARK  status: ('A' for Active; 'I' for Inactive)
REMARK    1  A    between atoms: C_5  and  C_7
REMARK    2  A    between atoms: C_7  and  S_8
REMARK    3  A    between atoms: S_8  and  C_11
REMARK    4  A    between atoms: C_14  and  C_16
REMARK    5  A    between atoms: N_21  and  S_22
REMARK    6  A    between atoms: S_22  and  C_25
REMARK                            x       y       z     vdW  Elec       q    Type
REMARK                         _______ _______ _______ _____ _____    ______ ____
ROOT
ATOM      1  C   UNL     1      -2.997   4.966   2.538  0.00  0.00    +0.361 A 
ATOM      2  N   UNL     1      -1.868   4.352   2.753  0.00  0.00    -0.090 NA
ATOM      3  N   UNL     1      -2.065   3.080   2.743  0.00  0.00    -0.109 NA
ATOM      4  C   UNL     1      -3.325   2.840   2.520  0.00  0.00    +0.238 A 
ATOM      5  O   UNL     1      -3.943   4.025   2.380  0.00  0.00    -0.406 OA
ENDROOT
BRANCH   4   6
ATOM      6  C   UNL     1      -3.971   1.481   2.429  0.00  0.00    +0.167 C 
ATOM      7  C   UNL     1      -4.066   0.847   3.833  0.00  0.00    +0.031 C 
ATOM      8  C   UNL     1      -2.822  -0.080   3.880  0.00  0.00    +0.019 C 
ATOM      9  C   UNL     1      -2.752  -0.578   2.413  0.00  0.00    +0.110 C 
ATOM     10  N   UNL     1      -3.146   0.589   1.602  0.00  0.00    -0.165 NA
BRANCH  10  11
ATOM     11  S   UNL     1      -2.733   0.848   0.020  0.00  0.00    +0.062 S 
ATOM     12  O   UNL     1      -3.722   1.713  -0.522  0.00  0.00    -0.153 OA
ATOM     13  O   UNL     1      -2.447  -0.426  -0.539  0.00  0.00    -0.153 OA
BRANCH  11  14
ATOM     14  C   UNL     1      -1.219   1.750   0.017  0.00  0.00    +0.107 A 
ATOM     15  C   UNL     1      -0.013   1.076   0.008  0.00  0.00    +0.028 A 
ATOM     16  C   UNL     1       1.175   1.783   0.000  0.00  0.00    +0.003 A 
ATOM     17  C   UNL     1       1.157   3.165   0.008  0.00  0.00    +0.020 A 
ATOM     18  C   UNL     1      -0.050   3.841   0.023  0.00  0.00    +0.043 A 
ATOM     19  C   UNL     1      -1.239   3.132   0.031  0.00  0.00    +0.048 A 
ATOM     20 CL   UNL     1      -0.074   5.576   0.032  0.00  0.00    -0.083 Cl
ENDBRANCH  11  14
ENDBRANCH  10  11
ENDBRANCH   4   6
BRANCH   1  21
ATOM     21  S   UNL     1      -3.238   6.709   2.460  0.00  0.00    +0.053 S 
ATOM     22  O   UNL     1      -4.598   6.904   2.824  0.00  0.00    -0.165 OA
ATOM     23  O   UNL     1      -2.191   7.255   3.252  0.00  0.00    -0.165 OA
BRANCH  21  24
ATOM     24  C   UNL     1      -2.990   7.137   0.715  0.00  0.00    +0.215 C 
BRANCH  24  29
ATOM     25  C   UNL     1      -2.260  10.834   0.484  0.00  0.00    +0.000 A 
ATOM     26  C   UNL     1      -3.510  11.346   0.191  0.00  0.00    +0.003 A 
ATOM     27  C   UNL     1      -4.593  10.497   0.067  0.00  0.00    +0.038 A 
ATOM     28  C   UNL     1      -4.425   9.133   0.232  0.00  0.00    +0.128 A 
ATOM     29  C   UNL     1      -3.174   8.621   0.531  0.00  0.00    +0.009 A 
ATOM     30  C   UNL     1      -2.092   9.473   0.653  0.00  0.00    +0.008 A 
ATOM     31  F   UNL     1      -5.482   8.301   0.107  0.00  0.00    -0.205 F 
ENDBRANCH  24  29
ENDBRANCH  21  24
ENDBRANCH   1  21
TORSDOF 6
