REMARK  Name = ZINC20847801
REMARK  9 active torsions:
REMARK  status: ('A' for Active; 'I' for Inactive)
REMARK    1  A    between atoms: C_1  and  C_2
REMARK    2  A    between atoms: C_5  and  C_34
REMARK    3  A    between atoms: N_8  and  C_10
REMARK    4  A    between atoms: C_10  and  C_11
REMARK    5  A    between atoms: C_11  and  C_12
REMARK    6  A    between atoms: C_12  and  N_13
REMARK    7  A    between atoms: C_14  and  C_16
REMARK    8  A    between atoms: C_16  and  N_17
REMARK    9  A    between atoms: C_24  and  C_27
REMARK                            x       y       z     vdW  Elec       q    Type
REMARK                         _______ _______ _______ _____ _____    ______ ____
ROOT
ATOM      1  C   UNL     1       5.944   3.612  -2.768  0.00  0.00    +0.221 C 
ENDROOT
BRANCH   1   2
ATOM      2  N   UNL     1       5.439   2.522  -1.930  0.00  0.00    -0.290 N 
ATOM      3  C   UNL     1       6.255   1.494  -1.593  0.00  0.00    +0.206 A 
ATOM      4  N   UNL     1       5.859   0.496  -0.850  0.00  0.00    -0.200 NA
ATOM      5  C   UNL     1       4.609   0.437  -0.377  0.00  0.00    +0.265 A 
ATOM      6  C   UNL     1       3.716   1.473  -0.693  0.00  0.00    +0.133 A 
ATOM      7  C   UNL     1       4.156   2.543  -1.495  0.00  0.00    +0.267 A 
ATOM      8  O   UNL     1       3.407   3.458  -1.788  0.00  0.00    -0.267 OA
ATOM      9  C   UNL     1       2.481   1.070  -0.016  0.00  0.00    +0.128 A 
ATOM     10  N   UNL     1       2.772  -0.064   0.576  0.00  0.00    -0.075 NA
ATOM     11  O   UNL     1       3.913  -0.417   0.384  0.00  0.00    -0.334 OA
BRANCH   9  12
ATOM     12  C   UNL     1       1.184   1.790   0.000  0.00  0.00    +0.005 A 
ATOM     13  C   UNL     1      -0.013   1.076   0.008  0.00  0.00    +0.011 A 
ATOM     14  C   UNL     1      -1.216   1.751   0.017  0.00  0.00    +0.020 A 
ATOM     15  C   UNL     1      -1.236   3.135   0.030  0.00  0.00    +0.041 A 
ATOM     16  C   UNL     1      -0.050   3.849   0.023  0.00  0.00    +0.020 A 
ATOM     17  C   UNL     1       1.159   3.184   0.008  0.00  0.00    +0.011 A 
ATOM     18 CL   UNL     1      -2.753   3.978   0.049  0.00  0.00    -0.084 Cl
ENDBRANCH   9  12
ENDBRANCH   1   2
BRANCH   1  20
ATOM     19  N   UNL     1       7.053   5.800  -2.447  0.00  0.00    -0.314 N 
ATOM     20  C   UNL     1       6.525   4.691  -1.891  0.00  0.00    +0.233 C 
ATOM     21  O   UNL     1       6.516   4.563  -0.685  0.00  0.00    -0.274 OA
ATOM     22  H   UNL     1       7.060   5.916  -3.541  0.00  0.00    +0.149 HD
BRANCH  19  23
ATOM     23  C   UNL     1       7.616   6.849  -1.595  0.00  0.00    +0.102 C 
BRANCH  23  24
ATOM     24  C   UNL     1       8.145   7.988  -2.470  0.00  0.00    +0.000 C 
BRANCH  24  25
ATOM     25  C   UNL     1       8.734   9.084  -1.580  0.00  0.00    -0.077 C 
BRANCH  25  31
ATOM     26  C   UNL     1      11.987  10.390  -5.030  0.00  0.00    +0.005 C 
ATOM     27  C   UNL     1      10.787  10.847  -4.198  0.00  0.00    -0.031 C 
ATOM     28  C   UNL     1      11.167  12.095  -3.396  0.00  0.00    +0.003 C 
ATOM     29  C   UNL     1       9.980  12.510  -2.521  0.00  0.00    -0.031 C 
ATOM     30  C   UNL     1       9.596  11.346  -1.605  0.00  0.00    -0.076 C 
ATOM     31  N   UNL     1       9.241  10.177  -2.420  0.00  0.00    +0.380 N 
ATOM     32  C   UNL     1      10.379   9.731  -3.234  0.00  0.00    -0.076 C 
ATOM     33  C   UNL     1      10.371  13.721  -1.671  0.00  0.00    +0.005 C 
ATOM     34  H   UNL     1       8.436  10.479  -3.107  0.00  0.00    -0.082 HD
ENDBRANCH  25  31
ENDBRANCH  24  25
ENDBRANCH  23  24
ENDBRANCH  19  23
ENDBRANCH   1  20
TORSDOF 7
