REMARK  Name = ZINC00888047
REMARK  10 active torsions:
REMARK  status: ('A' for Active; 'I' for Inactive)
REMARK    1  A    between atoms: C_3  and  N_8
REMARK    2  A    between atoms: N_8  and  C_9
REMARK    3  A    between atoms: C_9  and  C_11
REMARK    4  A    between atoms: C_9  and  C_18
REMARK    5  A    between atoms: C_14  and  O_17
REMARK    6  A    between atoms: N_20  and  C_21
REMARK    7  A    between atoms: C_21  and  C_22
REMARK    8  A    between atoms: C_29  and  C_31
REMARK    9  A    between atoms: C_31  and  N_32
REMARK   10  A    between atoms: C_34  and  C_37
REMARK                            x       y       z     vdW  Elec       q    Type
REMARK                         _______ _______ _______ _____ _____    ______ ____
ROOT
ATOM      1  N   UNL     1       3.739   2.367  -0.221  0.00  0.00    -0.254 N 
ATOM      2  C   UNL     1       3.575   3.285   0.753  0.00  0.00    +0.244 C 
ATOM      3  O   UNL     1       4.338   3.312   1.695  0.00  0.00    -0.273 OA
ENDROOT
BRANCH   1   6
ATOM      4  C   UNL     1       0.776   2.108  -2.384  0.00  0.00    +0.005 A 
ATOM      5  C   UNL     1       1.579   2.074  -1.260  0.00  0.00    +0.024 A 
ATOM      6  C   UNL     1       2.925   2.401  -1.358  0.00  0.00    +0.040 A 
ATOM      7  C   UNL     1       3.461   2.761  -2.587  0.00  0.00    +0.062 A 
ATOM      8  C   UNL     1       2.653   2.794  -3.709  0.00  0.00    +0.125 A 
ATOM      9  C   UNL     1       1.311   2.467  -3.607  0.00  0.00    +0.038 A 
ATOM     10  F   UNL     1       3.173   3.144  -4.906  0.00  0.00    -0.205 F 
ENDBRANCH   1   6
BRANCH   1  11
ATOM     11  C   UNL     1       4.770   1.335  -0.088  0.00  0.00    +0.197 C 
BRANCH  11  12
ATOM     12  C   UNL     1       4.835   0.524  -1.357  0.00  0.00    -0.018 A 
ATOM     13  C   UNL     1       3.708  -0.133  -1.815  0.00  0.00    +0.009 A 
ATOM     14  C   UNL     1       3.765  -0.877  -2.977  0.00  0.00    +0.046 A 
ATOM     15  C   UNL     1       4.955  -0.964  -3.685  0.00  0.00    +0.117 A 
ATOM     16  C   UNL     1       6.085  -0.304  -3.224  0.00  0.00    +0.046 A 
ATOM     17  C   UNL     1       6.021   0.443  -2.064  0.00  0.00    +0.009 A 
BRANCH  15  18
ATOM     18  O   UNL     1       5.014  -1.696  -4.829  0.00  0.00    -0.507 OA
ATOM     19  H   UNL     1       4.805  -1.194  -5.628  0.00  0.00    +0.292 HD
ENDBRANCH  15  18
ENDBRANCH  11  12
BRANCH  11  20
ATOM     20  C   UNL     1       4.430   0.431   1.069  0.00  0.00    +0.239 C 
ATOM     21  O   UNL     1       3.426   0.630   1.719  0.00  0.00    -0.273 OA
ATOM     22  N   UNL     1       5.243  -0.598   1.381  0.00  0.00    -0.309 N 
ATOM     23  H   UNL     1       6.046  -0.756   0.862  0.00  0.00    +0.149 HD
BRANCH  22  24
ATOM     24  C   UNL     1       4.913  -1.476   2.506  0.00  0.00    +0.139 C 
BRANCH  24  25
ATOM     25  C   UNL     1       5.973  -2.538   2.643  0.00  0.00    -0.030 A 
ATOM     26  C   UNL     1       5.844  -3.735   1.963  0.00  0.00    +0.008 A 
ATOM     27  C   UNL     1       6.817  -4.709   2.087  0.00  0.00    +0.038 A 
ATOM     28  C   UNL     1       7.920  -4.486   2.892  0.00  0.00    +0.123 A 
ATOM     29  C   UNL     1       8.049  -3.287   3.573  0.00  0.00    +0.038 A 
ATOM     30  C   UNL     1       7.078  -2.312   3.443  0.00  0.00    +0.008 A 
ATOM     31  F   UNL     1       8.871  -5.438   3.014  0.00  0.00    -0.205 F 
ENDBRANCH  24  25
ENDBRANCH  22  24
ENDBRANCH  11  20
ENDBRANCH   1  11
BRANCH   2  32
ATOM     32  C   UNL     1       2.442   4.276   0.671  0.00  0.00    +0.264 C 
BRANCH  32  33
ATOM     33  N   UNL     1       2.553   5.236   1.772  0.00  0.00    -0.154 N 
ATOM     34  N   UNL     1       2.023   5.097   2.938  0.00  0.00    -0.129 NA
ATOM     35  C   UNL     1       2.340   6.159   3.655  0.00  0.00    +0.211 A 
ATOM     36  N   UNL     1       3.087   6.946   2.865  0.00  0.00    -0.107 NA
ATOM     37  N   UNL     1       3.200   6.348   1.727  0.00  0.00    -0.045 NA
BRANCH  35  38
ATOM     38  C   UNL     1       1.948   6.430   5.055  0.00  0.00    +0.060 A 
ATOM     39  C   UNL     1       2.243   7.512   5.839  0.00  0.00    +0.019 A 
ATOM     40  C   UNL     1       1.761   7.546   7.130  0.00  0.00    +0.008 A 
ATOM     41  C   UNL     1       1.010   6.510   7.583  0.00  0.00    +0.046 A 
ATOM     42  S   UNL     1       0.959   5.434   6.159  0.00  0.00    -0.093 S 
ENDBRANCH  35  38
ENDBRANCH  32  33
ENDBRANCH   2  32
TORSDOF 10
