REMARK  Name = ZINC38091858
REMARK  5 active torsions:
REMARK  status: ('A' for Active; 'I' for Inactive)
REMARK    1  A    between atoms: C_3  and  C_11
REMARK    2  A    between atoms: C_6  and  N_7
REMARK    3  A    between atoms: C_11  and  N_12
REMARK    4  A    between atoms: N_12  and  C_13
REMARK    5  A    between atoms: C_16  and  C_19
REMARK                            x       y       z     vdW  Elec       q    Type
REMARK                         _______ _______ _______ _____ _____    ______ ____
ROOT
ATOM      1  N   UNL     1       4.289   2.120   1.310  0.00  0.00    +0.384 N 
ATOM      2  H   UNL     1       3.662   2.522   1.991  0.00  0.00    -0.085 HD
ATOM      3  H   UNL     1       4.473   1.157   1.549  0.00  0.00    -0.085 HD
ENDROOT
BRANCH   1   4
ATOM      4  C   UNL     1       5.551   2.872   1.301  0.00  0.00    -0.071 C 
ATOM      5  C   UNL     1       6.545   2.189   0.361  0.00  0.00    -0.015 C 
ATOM      6  C   UNL     1       7.859   2.972   0.352  0.00  0.00    +0.011 C 
ATOM      7  C   UNL     1       8.440   3.011   1.767  0.00  0.00    +0.075 C 
ATOM      8  C   UNL     1       7.445   3.695   2.708  0.00  0.00    +0.011 C 
ATOM      9  C   UNL     1       6.131   2.911   2.716  0.00  0.00    -0.015 C 
BRANCH   7  10
ATOM     10  C   UNL     1       9.734   3.783   1.758  0.00  0.00    +0.214 C 
ATOM     11  O   UNL     1      10.151   4.255   0.722  0.00  0.00    -0.276 OA
ATOM     12  N   UNL     1      10.428   3.948   2.902  0.00  0.00    -0.329 N 
ATOM     13  H   UNL     1      10.094   3.570   3.731  0.00  0.00    +0.145 HD
ATOM     14  H   UNL     1      11.261   4.445   2.897  0.00  0.00    +0.145 HD
ENDBRANCH   7  10
ENDBRANCH   1   4
BRANCH   1  15
ATOM     15  C   UNL     1       3.672   2.184  -0.022  0.00  0.00    -0.045 C 
BRANCH  15  18
ATOM     16  C   UNL     1      -0.017   1.378   0.010  0.00  0.00    +0.033 A 
ATOM     17  C   UNL     1       1.171   2.086   0.002  0.00  0.00    +0.005 A 
ATOM     18  C   UNL     1       2.377   1.412  -0.013  0.00  0.00    -0.050 A 
ATOM     19  C   UNL     1       2.397   0.029  -0.021  0.00  0.00    +0.021 A 
ATOM     20  C   UNL     1       1.208  -0.679  -0.013  0.00  0.00    +0.048 A 
ATOM     21  C   UNL     1       0.002  -0.004   0.002  0.00  0.00    +0.127 A 
ATOM     22 BR   UNL     1       4.047  -0.894  -0.042  0.00  0.00    -0.050 Br
BRANCH  21  23
ATOM     23  N   UNL     1      -1.270  -0.761   0.010  0.00  0.00    +0.056 N 
ATOM     24  O   UNL     1      -2.325  -0.171   0.023  0.00  0.00    -0.126 OA
ATOM     25  O   UNL     1      -1.253  -1.970   0.004  0.00  0.00    -0.126 OA
ENDBRANCH  21  23
ENDBRANCH  15  18
ENDBRANCH   1  15
TORSDOF 5
