REMARK  Name = ZINC67050236
REMARK  6 active torsions:
REMARK  status: ('A' for Active; 'I' for Inactive)
REMARK    1  A    between atoms: C_1  and  N_2
REMARK    2  A    between atoms: C_3  and  C_8
REMARK    3  A    between atoms: C_8  and  N_9
REMARK    4  A    between atoms: C_10  and  C_12
REMARK    5  A    between atoms: C_13  and  C_14
REMARK    6  A    between atoms: C_17  and  C_19
REMARK                            x       y       z     vdW  Elec       q    Type
REMARK                         _______ _______ _______ _____ _____    ______ ____
ROOT
ATOM      1  C   UNL     1      -0.974   7.698  -1.486  0.00  0.00    +0.068 C 
ATOM      2  C   UNL     1      -0.666   8.904  -0.942  0.00  0.00    +0.020 C 
ENDROOT
BRANCH   2   3
ATOM      3  C   UNL     1      -1.064  10.095  -1.592  0.00  0.00    +0.013 A 
ATOM      4  C   UNL     1      -0.846  11.415  -1.208  0.00  0.00    +0.016 A 
ATOM      5  C   UNL     1      -1.329  12.414  -2.003  0.00  0.00    +0.017 A 
ATOM      6  C   UNL     1      -2.017  12.076  -3.158  0.00  0.00    +0.023 A 
ATOM      7  S   UNL     1      -1.969  10.292  -3.118  0.00  0.00    -0.089 S 
BRANCH   6   8
ATOM      8  C   UNL     1      -2.628  12.964  -4.167  0.00  0.00    +0.024 A 
ATOM      9  C   UNL     1      -3.472  14.003  -3.768  0.00  0.00    +0.012 A 
ATOM     10  C   UNL     1      -4.039  14.829  -4.716  0.00  0.00    +0.001 A 
ATOM     11  C   UNL     1      -3.774  14.632  -6.060  0.00  0.00    +0.003 A 
ATOM     12  C   UNL     1      -2.940  13.606  -6.465  0.00  0.00    +0.039 A 
ATOM     13  C   UNL     1      -2.360  12.773  -5.526  0.00  0.00    +0.132 A 
ATOM     14  F   UNL     1      -1.540  11.774  -5.921  0.00  0.00    -0.205 F 
ENDBRANCH   6   8
ENDBRANCH   2   3
BRANCH   1  16
ATOM     15  N   UNL     1      -0.882   5.311  -1.377  0.00  0.00    -0.305 N 
ATOM     16  C   UNL     1      -0.576   6.507  -0.837  0.00  0.00    +0.237 C 
ATOM     17  O   UNL     1       0.043   6.562   0.210  0.00  0.00    -0.271 OA
ATOM     18  H   UNL     1      -1.375   5.267  -2.211  0.00  0.00    +0.149 HD
BRANCH  15  19
ATOM     19  C   UNL     1      -0.469   4.076  -0.704  0.00  0.00    +0.181 C 
BRANCH  19  22
ATOM     20  C   UNL     1      -0.013   1.086   0.008  0.00  0.00    +0.152 C 
ATOM     21  N   UNL     1      -0.721   1.571  -1.179  0.00  0.00    -0.309 N 
ATOM     22  C   UNL     1      -0.931   2.888  -1.508  0.00  0.00    +0.149 A 
ATOM     23  N   UNL     1      -1.590   2.941  -2.620  0.00  0.00    -0.157 NA
ATOM     24  N   UNL     1      -1.829   1.628  -3.048  0.00  0.00    -0.254 N 
ATOM     25  C   UNL     1      -1.274   0.801  -2.138  0.00  0.00    +0.175 A 
ATOM     26  S   UNL     1      -1.274  -0.910  -2.189  0.00  0.00    -0.011 S 
ATOM     27  H   UNL     1      -2.303   1.363  -3.852  0.00  0.00    +0.191 HD
ENDBRANCH  19  22
ENDBRANCH  15  19
ENDBRANCH   1  16
TORSDOF 5
