REMARK  Name = ZINC35886232
REMARK  6 active torsions:
REMARK  status: ('A' for Active; 'I' for Inactive)
REMARK    1  A    between atoms: C_4  and  C_7
REMARK    2  A    between atoms: C_7  and  C_8
REMARK    3  A    between atoms: N_11  and  C_14
REMARK    4  A    between atoms: C_14  and  C_15
REMARK    5  A    between atoms: C_20  and  C_22
REMARK    6  A    between atoms: C_29  and  C_31
REMARK                            x       y       z     vdW  Elec       q    Type
REMARK                         _______ _______ _______ _____ _____    ______ ____
ROOT
ATOM      1  C   UNL     1       8.047  -1.744   4.592  0.00  0.00    -0.001 C 
ATOM      2  C   UNL     1       8.490  -2.096   6.029  0.00  0.00    +0.110 C 
ATOM      3  N   UNL     1       9.968  -1.995   5.999  0.00  0.00    -0.294 N 
ATOM      4  C   UNL     1      10.238  -0.808   5.156  0.00  0.00    +0.116 C 
ATOM      5  C   UNL     1       9.199  -0.896   4.014  0.00  0.00    +0.039 C 
ATOM      6  C   UNL     1      10.864  -2.801   6.603  0.00  0.00    +0.282 C 
ATOM      7  O   UNL     1      10.481  -3.745   7.269  0.00  0.00    -0.267 OA
ENDROOT
BRANCH   5   8
ATOM      8  C   UNL     1       8.704   0.479   3.647  0.00  0.00    -0.040 A 
ATOM      9  C   UNL     1       8.329   1.366   4.640  0.00  0.00    +0.004 A 
ATOM     10  C   UNL     1       7.875   2.628   4.306  0.00  0.00    +0.003 A 
ATOM     11  C   UNL     1       7.794   3.005   2.978  0.00  0.00    +0.038 A 
ATOM     12  C   UNL     1       8.168   2.118   1.984  0.00  0.00    +0.124 A 
ATOM     13  C   UNL     1       8.629   0.856   2.320  0.00  0.00    +0.042 A 
ATOM     14  F   UNL     1       8.089   2.485   0.686  0.00  0.00    -0.205 F 
ENDBRANCH   5   8
BRANCH   6  15
ATOM     15  C   UNL     1      12.300  -2.540   6.458  0.00  0.00    +0.189 A 
ATOM     16  C   UNL     1      13.309  -3.277   7.009  0.00  0.00    +0.054 A 
ATOM     17  C   UNL     1      14.512  -2.673   6.612  0.00  0.00    +0.042 A 
ATOM     18  C   UNL     1      14.189  -1.608   5.847  0.00  0.00    +0.196 A 
ATOM     19  O   UNL     1      12.855  -1.534   5.752  0.00  0.00    -0.458 OA
ENDBRANCH   6  15
BRANCH   1  20
ATOM     20  C   UNL     1       6.750  -0.933   4.619  0.00  0.00    -0.073 C 
BRANCH  20  24
ATOM     21  C   UNL     1       4.295  -0.814   1.139  0.00  0.00    -0.010 C 
ATOM     22  C   UNL     1       4.691   0.496   1.826  0.00  0.00    -0.015 C 
ATOM     23  C   UNL     1       5.132   0.200   3.260  0.00  0.00    -0.079 C 
ATOM     24  N   UNL     1       6.282  -0.713   3.244  0.00  0.00    +0.380 N 
ATOM     25  C   UNL     1       5.889  -1.997   2.651  0.00  0.00    -0.079 C 
ATOM     26  C   UNL     1       5.477  -1.786   1.193  0.00  0.00    -0.015 C 
ATOM     27  H   UNL     1       7.026  -0.305   2.698  0.00  0.00    -0.082 HD
BRANCH  21  28
ATOM     28  C   UNL     1       3.928  -0.536  -0.321  0.00  0.00    +0.038 C 
BRANCH  28  32
ATOM     29  C   UNL     1       0.418   1.894  -0.470  0.00  0.00    +0.000 A 
ATOM     30  C   UNL     1       1.667   2.486  -0.428  0.00  0.00    +0.000 A 
ATOM     31  C   UNL     1       2.803   1.699  -0.380  0.00  0.00    +0.003 A 
ATOM     32  C   UNL     1       2.690   0.322  -0.373  0.00  0.00    -0.047 A 
ATOM     33  C   UNL     1       1.441  -0.270  -0.413  0.00  0.00    +0.003 A 
ATOM     34  C   UNL     1       0.305   0.517  -0.464  0.00  0.00    +0.000 A 
ENDBRANCH  28  32
ENDBRANCH  21  28
ENDBRANCH  20  24
ENDBRANCH   1  20
TORSDOF 6
