REMARK  Name = ZINC11616074
REMARK  3 active torsions:
REMARK  status: ('A' for Active; 'I' for Inactive)
REMARK    1  A    between atoms: C_1  and  C_2
REMARK    2  A    between atoms: C_6  and  N_19
REMARK    3  A    between atoms: C_7  and  C_11
REMARK                            x       y       z     vdW  Elec       q    Type
REMARK                         _______ _______ _______ _____ _____    ______ ____
ROOT
ATOM      1  C   UNL     1      -1.050   3.023  -3.592  0.00  0.00    +0.066 C 
ATOM      2  C   UNL     1      -1.248   3.785  -2.308  0.00  0.00    +0.043 A 
ATOM      3  C   UNL     1      -1.770   3.130  -1.193  0.00  0.00    -0.022 A 
ATOM      4  C   UNL     1      -1.949   3.815  -0.022  0.00  0.00    -0.031 A 
ATOM      5  C   UNL     1      -1.604   5.193   0.033  0.00  0.00    +0.032 A 
ATOM      6  C   UNL     1      -1.714   6.107   1.160  0.00  0.00    +0.054 A 
ATOM      7  C   UNL     1      -1.314   7.413   0.983  0.00  0.00    +0.097 A 
ATOM      8  S   UNL     1      -0.776   7.453  -0.716  0.00  0.00    -0.062 S 
ATOM      9  C   UNL     1      -1.086   5.760  -1.151  0.00  0.00    +0.111 A 
ATOM     10  N   UNL     1      -0.927   5.060  -2.254  0.00  0.00    -0.244 NA
ATOM     11  C   UNL     1      -2.497   3.181   1.226  0.00  0.00    +0.036 C 
ATOM     12  C   UNL     1      -3.194   1.862   0.898  0.00  0.00    +0.005 C 
ATOM     13  C   UNL     1      -2.248   1.015   0.039  0.00  0.00    +0.005 C 
ATOM     14  C   UNL     1      -2.118   1.670  -1.335  0.00  0.00    +0.037 C 
ENDROOT
BRANCH   7  15
ATOM     15  C   UNL     1      -1.328   8.472   1.925  0.00  0.00    +0.255 C 
ATOM     16  O   UNL     1      -1.012   8.261   3.082  0.00  0.00    -0.269 OA
ATOM     17  N   UNL     1      -1.692   9.711   1.540  0.00  0.00    -0.297 N 
ATOM     18  C   UNL     1      -2.190   9.957   0.180  0.00  0.00    +0.108 C 
ATOM     19  C   UNL     1      -3.549  10.668   0.279  0.00  0.00    +0.019 C 
ATOM     20  C   UNL     1      -3.397  11.931   1.130  0.00  0.00    +0.003 C 
ATOM     21  C   UNL     1      -2.952  11.545   2.543  0.00  0.00    +0.019 C 
ATOM     22  C   UNL     1      -1.592  10.844   2.471  0.00  0.00    +0.108 C 
ENDBRANCH   7  15
BRANCH   6  23
ATOM     23  N   UNL     1      -2.208   5.673   2.382  0.00  0.00    -0.356 N 
ATOM     24  H   UNL     1      -2.137   4.738   2.630  0.00  0.00    +0.142 HD
ATOM     25  H   UNL     1      -2.624   6.306   2.989  0.00  0.00    +0.142 HD
ENDBRANCH   6  23
TORSDOF 2
