REMARK  Name = ZINC08683115
REMARK  5 active torsions:
REMARK  status: ('A' for Active; 'I' for Inactive)
REMARK    1  A    between atoms: C_1  and  C_2
REMARK    2  A    between atoms: C_3  and  C_12
REMARK    3  A    between atoms: N_13  and  N_14
REMARK    4  A    between atoms: C_15  and  C_17
REMARK    5  A    between atoms: C_19  and  C_23
REMARK                            x       y       z     vdW  Elec       q    Type
REMARK                         _______ _______ _______ _____ _____    ______ ____
ROOT
ATOM      1  N   UNL     1      -0.035   1.401  -4.100  0.00  0.00    -0.202 N 
ATOM      2  C   UNL     1      -0.054   2.721  -4.370  0.00  0.00    +0.281 C 
ATOM      3  O   UNL     1      -0.060   3.528  -3.459  0.00  0.00    -0.267 OA
ATOM      4  H   UNL     1      -0.030   0.757  -4.826  0.00  0.00    +0.178 HD
ENDROOT
BRANCH   2   5
ATOM      5  C   UNL     1      -0.067   3.186  -5.766  0.00  0.00    +0.122 A 
ATOM      6  C   UNL     1      -0.081   4.497  -6.189  0.00  0.00    +0.063 A 
ATOM      7  C   UNL     1      -0.089   4.490  -7.593  0.00  0.00    +0.100 A 
ATOM      8  N   UNL     1      -0.081   3.237  -8.004  0.00  0.00    -0.173 NA
ATOM      9  N   UNL     1      -0.061   2.398  -6.883  0.00  0.00    -0.272 N 
ATOM     10  H   UNL     1      -0.048   1.428  -6.897  0.00  0.00    +0.189 HD
BRANCH   7  11
ATOM     11  C   UNL     1      -0.105   5.686  -8.464  0.00  0.00    +0.039 A 
ATOM     12  C   UNL     1      -0.119   5.757  -9.831  0.00  0.00    +0.018 A 
ATOM     13  C   UNL     1      -0.133   6.998 -10.430  0.00  0.00    +0.008 A 
ATOM     14  C   UNL     1      -0.132   8.109  -9.649  0.00  0.00    +0.046 A 
ATOM     15  S   UNL     1      -0.118   7.412  -8.006  0.00  0.00    -0.095 S 
ENDBRANCH   7  11
ENDBRANCH   2   5
BRANCH   1  17
ATOM     16  C   UNL     1      -0.005  -0.316  -2.511  0.00  0.00    +0.140 C 
ATOM     17  N   UNL     1      -0.023   0.957  -2.771  0.00  0.00    -0.187 NA
BRANCH  16  20
ATOM     18  C   UNL     1      -0.018   1.503   0.010  0.00  0.00    +0.064 C 
ATOM     19  C   UNL     1       0.002  -0.004   0.002  0.00  0.00    +0.023 A 
ATOM     20  C   UNL     1       0.007  -0.781  -1.115  0.00  0.00    +0.023 A 
ATOM     21  C   UNL     1       0.029  -2.180  -0.653  0.00  0.00    +0.009 A 
ATOM     22  C   UNL     1       0.042  -3.413  -1.303  0.00  0.00    +0.010 A 
ATOM     23  C   UNL     1       0.061  -4.574  -0.563  0.00  0.00    +0.001 A 
ATOM     24  C   UNL     1       0.066  -4.521   0.824  0.00  0.00    +0.002 A 
ATOM     25  C   UNL     1       0.052  -3.310   1.480  0.00  0.00    +0.026 A 
ATOM     26  C   UNL     1       0.034  -2.125   0.751  0.00  0.00    +0.047 A 
ATOM     27  N   UNL     1       0.024  -0.795   1.112  0.00  0.00    -0.358 N 
ATOM     28  H   UNL     1       0.029  -0.468   2.025  0.00  0.00    +0.166 HD
ENDBRANCH  16  20
ENDBRANCH   1  17
TORSDOF 4
