REMARK  Name = ZINC14882578
REMARK  10 active torsions:
REMARK  status: ('A' for Active; 'I' for Inactive)
REMARK    1  A    between atoms: C_1  and  N_69
REMARK    2  A    between atoms: C_2  and  C_3
REMARK    3  A    between atoms: C_2  and  N_69
REMARK    4  A    between atoms: C_7  and  O_9
REMARK    5  A    between atoms: O_9  and  C_10
REMARK    6  A    between atoms: C_10  and  C_11
REMARK    7  A    between atoms: C_11  and  C_12
REMARK    8  A    between atoms: C_19  and  C_21
REMARK    9  A    between atoms: C_26  and  C_27
REMARK   10  A    between atoms: C_26  and  N_69
REMARK                            x       y       z     vdW  Elec       q    Type
REMARK                         _______ _______ _______ _____ _____    ______ ____
ROOT
ATOM      1  C   UNL     1       7.394   3.934  -2.978  0.00  0.00    -0.060 A 
ATOM      2  C   UNL     1       6.628   3.471  -4.032  0.00  0.00    +0.002 A 
ATOM      3  C   UNL     1       5.262   3.683  -4.043  0.00  0.00    +0.004 A 
ATOM      4  C   UNL     1       4.659   4.359  -2.999  0.00  0.00    +0.045 A 
ATOM      5  C   UNL     1       5.425   4.825  -1.941  0.00  0.00    +0.121 A 
ATOM      6  C   UNL     1       6.797   4.615  -1.936  0.00  0.00    +0.047 A 
ENDROOT
BRANCH   1   7
ATOM      7  C   UNL     1       8.883   3.701  -2.970  0.00  0.00    -0.043 C 
BRANCH   7   9
ATOM      8  C   UNL     1       9.219   4.872  -5.063  0.00  0.00    -0.095 C 
ATOM      9  N   UNL     1       9.549   4.849  -3.622  0.00  0.00    +0.383 N 
ATOM     10  H   UNL     1       9.214   5.718  -3.189  0.00  0.00    -0.081 HD
BRANCH   9  11
ATOM     11  C   UNL     1      11.012   4.754  -3.440  0.00  0.00    -0.041 C 
BRANCH  11  12
ATOM     12  C   UNL     1      11.646   6.036  -3.916  0.00  0.00    -0.038 A 
ATOM     13  C   UNL     1      12.237   6.092  -5.141  0.00  0.00    +0.004 A 
ATOM     14  C   UNL     1      12.828   7.266  -5.600  0.00  0.00    +0.001 A 
ATOM     15  C   UNL     1      12.831   8.393  -4.835  0.00  0.00    +0.010 A 
ATOM     16  C   UNL     1      12.230   8.372  -3.567  0.00  0.00    +0.001 A 
ATOM     17  C   UNL     1      11.623   7.179  -3.099  0.00  0.00    +0.072 A 
ATOM     18  N   UNL     1      11.044   7.156  -1.894  0.00  0.00    -0.255 NA
ATOM     19  C   UNL     1      11.020   8.220  -1.129  0.00  0.00    +0.111 A 
ATOM     20  C   UNL     1      11.593   9.425  -1.530  0.00  0.00    +0.020 A 
ATOM     21  C   UNL     1      12.211   9.515  -2.745  0.00  0.00    +0.011 A 
ENDBRANCH  11  12
ENDBRANCH   9  11
ENDBRANCH   7   9
ENDBRANCH   1   7
BRANCH   5  22
ATOM     22  O   UNL     1       4.834   5.490  -0.914  0.00  0.00    -0.492 OA
BRANCH  22  23
ATOM     23  C   UNL     1       3.419   5.675  -0.989  0.00  0.00    +0.231 C 
BRANCH  23  24
ATOM     24  C   UNL     1       2.938   6.438   0.246  0.00  0.00    +0.063 C 
BRANCH  24  25
ATOM     25  C   UNL     1       1.410   6.523   0.231  0.00  0.00    +0.080 C 
ATOM     26  C   UNL     1       0.953   7.270  -1.021  0.00  0.00    +0.023 C 
ATOM     27  C   UNL     1      -0.562   7.478  -0.964  0.00  0.00    +0.003 C 
ATOM     28  C   UNL     1      -0.917   8.323   0.262  0.00  0.00    +0.019 C 
ATOM     29  C   UNL     1      -0.482   7.583   1.531  0.00  0.00    +0.108 C 
ATOM     30  N   UNL     1       0.945   7.251   1.419  0.00  0.00    -0.294 N 
ATOM     31  C   UNL     1       1.812   7.612   2.386  0.00  0.00    +0.250 C 
ATOM     32  O   UNL     1       3.005   7.440   2.228  0.00  0.00    -0.270 OA
BRANCH  31  33
ATOM     33  C   UNL     1       1.313   8.216   3.634  0.00  0.00    +0.075 A 
ATOM     34  C   UNL     1       1.982   9.234   4.458  0.00  0.00    +0.054 A 
ATOM     35  C   UNL     1       1.156   9.476   5.488  0.00  0.00    +0.195 A 
ATOM     36  O   UNL     1       0.065   8.704   5.367  0.00  0.00    -0.470 OA
ATOM     37  C   UNL     1       0.134   7.949   4.266  0.00  0.00    +0.207 A 
ENDBRANCH  31  33
ENDBRANCH  24  25
ENDBRANCH  23  24
ENDBRANCH  22  23
ENDBRANCH   5  22
TORSDOF 9
