REMARK  Name = ZINC33026406
REMARK  6 active torsions:
REMARK  status: ('A' for Active; 'I' for Inactive)
REMARK    1  A    between atoms: C_1  and  C_2
REMARK    2  A    between atoms: C_10  and  C_12
REMARK    3  A    between atoms: C_23  and  C_26
REMARK    4  A    between atoms: C_29  and  O_34
REMARK    5  A    between atoms: C_30  and  O_32
REMARK    6  A    between atoms: O_32  and  C_33
REMARK                            x       y       z     vdW  Elec       q    Type
REMARK                         _______ _______ _______ _____ _____    ______ ____
ROOT
ATOM      1  C   UNL     1       2.620   0.215   1.811  0.00  0.00    +0.069 C 
ATOM      2  C   UNL     1       2.521   1.267   0.737  0.00  0.00    +0.087 A 
ATOM      3  C   UNL     1       1.390   1.604  -0.003  0.00  0.00    +0.049 A 
ATOM      4  C   UNL     1       1.813   2.603  -0.841  0.00  0.00    +0.226 A 
ATOM      5  O   UNL     1       3.098   2.799  -0.569  0.00  0.00    -0.339 OA
ATOM      6  N   UNL     1       3.481   2.049   0.309  0.00  0.00    -0.081 NA
ATOM      7  N   UNL     1       0.950   3.190  -1.743  0.00  0.00    -0.286 N 
ATOM      8  C   UNL     1      -0.254   2.577  -1.997  0.00  0.00    +0.019 C 
ATOM      9  C   UNL     1      -0.744   1.588  -1.220  0.00  0.00    +0.024 C 
ATOM     10  C   UNL     1      -0.013   1.086   0.008  0.00  0.00    +0.092 C 
ATOM     11  C   UNL     1      -1.971   0.970  -1.524  0.00  0.00    +0.162 C 
ATOM     12  O   UNL     1      -2.389   0.092  -0.795  0.00  0.00    -0.292 OA
ATOM     13  C   UNL     1      -2.776   1.370  -2.728  0.00  0.00    +0.088 C 
ATOM     14  C   UNL     1      -1.827   1.911  -3.803  0.00  0.00    +0.032 C 
ATOM     15  C   UNL     1      -1.027   3.066  -3.201  0.00  0.00    +0.059 C 
ATOM     16  H   UNL     1       1.231   4.130  -2.242  0.00  0.00    +0.155 HD
ENDROOT
BRANCH  10  17
ATOM     17  C   UNL     1      -0.719   1.572   1.247  0.00  0.00    -0.017 A 
ATOM     18  C   UNL     1      -0.856   2.928   1.477  0.00  0.00    +0.007 A 
ATOM     19  C   UNL     1      -1.508   3.375   2.611  0.00  0.00    +0.020 A 
ATOM     20  C   UNL     1      -2.014   2.465   3.522  0.00  0.00    +0.042 A 
ATOM     21  C   UNL     1      -1.872   1.108   3.296  0.00  0.00    +0.040 A 
ATOM     22  C   UNL     1      -1.224   0.661   2.158  0.00  0.00    +0.046 A 
ATOM     23 CL   UNL     1      -1.044  -1.042   1.873  0.00  0.00    -0.083 Cl
ATOM     24 CL   UNL     1      -2.828   3.026   4.949  0.00  0.00    -0.083 Cl
ENDBRANCH  10  17
BRANCH  14  25
ATOM     25  C   UNL     1      -2.625   2.404  -4.983  0.00  0.00    -0.040 A 
ATOM     26  C   UNL     1      -3.548   3.419  -4.816  0.00  0.00    +0.008 A 
ATOM     27  C   UNL     1      -4.282   3.876  -5.895  0.00  0.00    +0.049 A 
ATOM     28  C   UNL     1      -4.092   3.316  -7.148  0.00  0.00    +0.158 A 
ATOM     29  C   UNL     1      -3.163   2.294  -7.317  0.00  0.00    +0.162 A 
ATOM     30  C   UNL     1      -2.427   1.845  -6.232  0.00  0.00    +0.053 A 
BRANCH  29  31
ATOM     31  O   UNL     1      -2.973   1.741  -8.544  0.00  0.00    -0.491 OA
ATOM     32  C   UNL     1      -2.003   0.696  -8.643  0.00  0.00    +0.277 C 
ENDBRANCH  29  31
BRANCH  28  33
ATOM     33  O   UNL     1      -4.813   3.763  -8.211  0.00  0.00    -0.503 OA
ATOM     34  H   UNL     1      -4.661   3.318  -9.205  0.00  0.00    +0.292 HD
ENDBRANCH  28  33
ENDBRANCH  14  25
TORSDOF 4
