REMARK  Name = ZINC22684561
REMARK  12 active torsions:
REMARK  status: ('A' for Active; 'I' for Inactive)
REMARK    1  A    between atoms: C_1  and  C_2
REMARK    2  A    between atoms: C_2  and  C_3
REMARK    3  A    between atoms: C_6  and  C_9
REMARK    4  A    between atoms: C_9  and  C_11
REMARK    5  A    between atoms: C_9  and  N_26
REMARK    6  A    between atoms: C_11  and  N_12
REMARK    7  A    between atoms: C_13  and  C_15
REMARK    8  A    between atoms: C_18  and  S_21
REMARK    9  A    between atoms: S_21  and  N_24
REMARK   10  A    between atoms: N_24  and  C_25
REMARK   11  A    between atoms: N_26  and  C_27
REMARK   12  A    between atoms: N_26  and  C_28
REMARK                            x       y       z     vdW  Elec       q    Type
REMARK                         _______ _______ _______ _____ _____    ______ ____
ROOT
ATOM      1  N   UNL     1       2.396   6.114   1.865  0.00  0.00    -0.313 N 
ATOM      2  C   UNL     1       1.203   5.795   2.405  0.00  0.00    +0.244 C 
ATOM      3  O   UNL     1       0.383   5.184   1.748  0.00  0.00    -0.270 OA
ATOM      4  H   UNL     1       3.138   6.668   2.459  0.00  0.00    +0.149 HD
ENDROOT
BRANCH   2   5
ATOM      5  C   UNL     1       0.892   6.189   3.796  0.00  0.00    +0.037 A 
ATOM      6  C   UNL     1      -0.342   5.859   4.358  0.00  0.00    +0.015 A 
ATOM      7  C   UNL     1      -0.625   6.229   5.657  0.00  0.00    +0.029 A 
ATOM      8  C   UNL     1       0.310   6.925   6.401  0.00  0.00    +0.105 A 
ATOM      9  C   UNL     1       1.536   7.254   5.850  0.00  0.00    +0.029 A 
ATOM     10  C   UNL     1       1.832   6.891   4.552  0.00  0.00    +0.015 A 
BRANCH   8  11
ATOM     11  S   UNL     1      -0.060   7.394   8.059  0.00  0.00    +0.058 S 
ATOM     12  O   UNL     1       0.767   8.509   8.359  0.00  0.00    -0.153 OA
ATOM     13  O   UNL     1      -1.476   7.446   8.159  0.00  0.00    -0.153 OA
BRANCH  11  14
ATOM     14  N   UNL     1       0.439   6.157   9.040  0.00  0.00    -0.193 NA
ATOM     15  C   UNL     1       1.863   5.827   9.138  0.00  0.00    +0.127 C 
ATOM     16  H   UNL     1      -0.313   5.487   9.485  0.00  0.00    +0.148 HD
ENDBRANCH  11  14
ENDBRANCH   8  11
ENDBRANCH   2   5
BRANCH   1  17
ATOM     17  C   UNL     1       2.704   5.724   0.487  0.00  0.00    +0.094 C 
BRANCH  17  18
ATOM     18  C   UNL     1       4.055   6.316   0.079  0.00  0.00    -0.021 C 
BRANCH  18  22
ATOM     19  C   UNL     1       3.814  10.580   0.121  0.00  0.00    -0.048 A 
ATOM     20  C   UNL     1       4.389   9.910   1.185  0.00  0.00    +0.004 A 
ATOM     21  C   UNL     1       4.467   8.530   1.171  0.00  0.00    +0.002 A 
ATOM     22  C   UNL     1       3.970   7.820   0.094  0.00  0.00    -0.059 A 
ATOM     23  C   UNL     1       3.400   8.491  -0.972  0.00  0.00    +0.002 A 
ATOM     24  C   UNL     1       3.317   9.871  -0.956  0.00  0.00    +0.004 A 
BRANCH  19  26
ATOM     25  C   UNL     1       4.989  12.672  -0.506  0.00  0.00    +0.009 C 
ATOM     26  C   UNL     1       3.730  12.085   0.136  0.00  0.00    +0.032 C 
ENDBRANCH  19  26
ENDBRANCH  18  22
BRANCH  18  27
ATOM     27  N   UNL     1       4.402   5.858  -1.273  0.00  0.00    +0.382 N 
ATOM     28  C   UNL     1       5.720   6.366  -1.679  0.00  0.00    -0.096 C 
ATOM     29  C   UNL     1       4.352   4.393  -1.362  0.00  0.00    -0.096 C 
ATOM     30  H   UNL     1       3.654   6.265  -1.970  0.00  0.00    -0.082 HD
ENDBRANCH  18  27
ENDBRANCH  17  18
ENDBRANCH   1  17
TORSDOF 8
