REMARK  Name = ZINC59421073
REMARK  9 active torsions:
REMARK  status: ('A' for Active; 'I' for Inactive)
REMARK    1  A    between atoms: C_1  and  C_2
REMARK    2  A    between atoms: C_7  and  S_27
REMARK    3  A    between atoms: N_11  and  C_12
REMARK    4  A    between atoms: C_12  and  C_13
REMARK    5  A    between atoms: C_16  and  O_19
REMARK    6  A    between atoms: O_19  and  C_20
REMARK    7  A    between atoms: C_20  and  C_21
REMARK    8  A    between atoms: N_25  and  C_26
REMARK    9  A    between atoms: S_27  and  N_30
REMARK                            x       y       z     vdW  Elec       q    Type
REMARK                         _______ _______ _______ _____ _____    ______ ____
ROOT
ATOM      1  C   UNL     1       0.282  -2.756   2.129  0.00  0.00    +0.028 C 
ATOM      2  C   UNL     1      -0.244  -1.325   2.002  0.00  0.00    +0.075 C 
ATOM      3  C   UNL     1      -1.504  -1.295   1.122  0.00  0.00    +0.059 C 
ATOM      4  C   UNL     1      -1.131  -0.411  -0.046  0.00  0.00    -0.023 A 
ATOM      5  C   UNL     1      -1.857  -0.019  -1.155  0.00  0.00    +0.034 A 
ATOM      6  C   UNL     1      -1.284   0.808  -2.103  0.00  0.00    +0.105 A 
ATOM      7  C   UNL     1       0.018   1.244  -1.939  0.00  0.00    +0.030 A 
ATOM      8  C   UNL     1       0.746   0.856  -0.835  0.00  0.00    +0.025 A 
ATOM      9  C   UNL     1       0.175   0.020   0.127  0.00  0.00    +0.034 A 
ATOM     10  N   UNL     1       0.733  -0.484   1.305  0.00  0.00    -0.322 N 
ENDROOT
BRANCH   6  11
ATOM     11  S   UNL     1      -2.212   1.307  -3.515  0.00  0.00    +0.056 S 
ATOM     12  O   UNL     1      -1.268   1.638  -4.524  0.00  0.00    -0.153 OA
ATOM     13  O   UNL     1      -3.219   0.323  -3.708  0.00  0.00    -0.153 OA
BRANCH  11  14
ATOM     14  N   UNL     1      -2.993   2.712  -3.118  0.00  0.00    -0.204 NA
ATOM     15  H   UNL     1      -2.881   3.095  -2.234  0.00  0.00    +0.144 HD
ATOM     16  H   UNL     1      -3.562   3.151  -3.769  0.00  0.00    +0.144 HD
ENDBRANCH  11  14
ENDBRANCH   6  11
BRANCH  10  17
ATOM     17  C   UNL     1       2.094  -0.214   1.775  0.00  0.00    +0.140 C 
BRANCH  17  18
ATOM     18  C   UNL     1       2.070   0.935   2.750  0.00  0.00    -0.030 A 
ATOM     19  C   UNL     1       2.112   2.236   2.285  0.00  0.00    +0.009 A 
ATOM     20  C   UNL     1       2.091   3.291   3.177  0.00  0.00    +0.046 A 
ATOM     21  C   UNL     1       2.027   3.043   4.540  0.00  0.00    +0.121 A 
ATOM     22  C   UNL     1       1.984   1.737   5.005  0.00  0.00    +0.046 A 
ATOM     23  C   UNL     1       2.001   0.686   4.108  0.00  0.00    +0.009 A 
BRANCH  21  24
ATOM     24  O   UNL     1       2.006   4.079   5.420  0.00  0.00    -0.484 OA
BRANCH  24  25
ATOM     25  C   UNL     1       1.939   3.750   6.809  0.00  0.00    +0.303 C 
BRANCH  25  26
ATOM     26  C   UNL     1       1.925   5.016   7.626  0.00  0.00    +0.147 A 
ATOM     27  N   UNL     1       2.977   5.640   8.079  0.00  0.00    -0.237 NA
ATOM     28  C   UNL     1       2.587   6.727   8.761  0.00  0.00    +0.130 A 
ATOM     29  C   UNL     1       1.242   6.779   8.729  0.00  0.00    +0.107 A 
ATOM     30  N   UNL     1       0.822   5.696   8.004  0.00  0.00    -0.335 N 
ATOM     31  C   UNL     1      -0.566   5.341   7.698  0.00  0.00    +0.150 C 
ENDBRANCH  25  26
ENDBRANCH  24  25
ENDBRANCH  21  24
ENDBRANCH  17  18
ENDBRANCH  10  17
TORSDOF 7
