REMARK  Name = ZINC64143982
REMARK  6 active torsions:
REMARK  status: ('A' for Active; 'I' for Inactive)
REMARK    1  A    between atoms: C_4  and  N_27
REMARK    2  A    between atoms: C_5  and  C_7
REMARK    3  A    between atoms: C_7  and  C_8
REMARK    4  A    between atoms: C_8  and  C_9
REMARK    5  A    between atoms: C_8  and  C_18
REMARK    6  A    between atoms: C_28  and  C_30
REMARK                            x       y       z     vdW  Elec       q    Type
REMARK                         _______ _______ _______ _____ _____    ______ ____
ROOT
ATOM      1  C   UNL     1       1.372  -2.696   1.420  0.00  0.00    +0.050 C 
ENDROOT
BRANCH   1   2
ATOM      2  C   UNL     1       0.158  -2.314   2.225  0.00  0.00    -0.034 C 
ATOM      3  C   UNL     1       0.128  -1.546   3.338  0.00  0.00    -0.001 A 
ATOM      4  C   UNL     1       1.179  -0.863   4.102  0.00  0.00    +0.010 A 
ATOM      5  C   UNL     1       0.834  -0.151   5.200  0.00  0.00    +0.001 A 
ATOM      6  C   UNL     1      -0.498  -0.051   5.625  0.00  0.00    +0.002 A 
ATOM      7  C   UNL     1      -1.518  -0.650   4.975  0.00  0.00    +0.026 A 
ATOM      8  C   UNL     1      -1.270  -1.424   3.807  0.00  0.00    +0.043 A 
ATOM      9  N   UNL     1      -2.075  -2.091   3.016  0.00  0.00    -0.380 N 
ATOM     10  C   UNL     1      -1.277  -2.708   1.950  0.00  0.00    +0.145 C 
ATOM     11  H   UNL     1      -3.037  -2.162   3.116  0.00  0.00    +0.160 HD
ENDBRANCH   1   2
BRANCH   1  12
ATOM     12  C   UNL     1       1.508  -4.197   1.397  0.00  0.00    -0.034 C 
ATOM     13  C   UNL     1       2.549  -4.926   1.860  0.00  0.00    -0.001 A 
ATOM     14  C   UNL     1       3.818  -4.555   2.498  0.00  0.00    +0.010 A 
ATOM     15  C   UNL     1       4.681  -5.532   2.860  0.00  0.00    +0.001 A 
ATOM     16  C   UNL     1       4.395  -6.886   2.640  0.00  0.00    +0.002 A 
ATOM     17  C   UNL     1       3.251  -7.305   2.059  0.00  0.00    +0.026 A 
ATOM     18  C   UNL     1       2.271  -6.364   1.639  0.00  0.00    +0.043 A 
ATOM     19  N   UNL     1       1.104  -6.517   1.063  0.00  0.00    -0.380 N 
ATOM     20  C   UNL     1       0.506  -5.193   0.857  0.00  0.00    +0.145 C 
ATOM     21  H   UNL     1       0.701  -7.364   0.817  0.00  0.00    +0.160 HD
ENDBRANCH   1  12
BRANCH   1  22
ATOM     22  C   UNL     1       1.220  -2.176  -0.011  0.00  0.00    +0.049 C 
BRANCH  22  27
ATOM     23  C   UNL     1      -0.007   1.394   0.036  0.00  0.00    +0.000 A 
ATOM     24  C   UNL     1       1.182   2.100   0.023  0.00  0.00    +0.002 A 
ATOM     25  C   UNL     1       2.387   1.425  -0.001  0.00  0.00    +0.023 A 
ATOM     26  C   UNL     1       2.403   0.036  -0.012  0.00  0.00    +0.037 A 
ATOM     27  C   UNL     1       1.207  -0.669   0.001  0.00  0.00    -0.025 A 
ATOM     28  C   UNL     1       0.005   0.012   0.025  0.00  0.00    +0.005 A 
BRANCH  26  29
ATOM     29  N   UNL     1       3.622  -0.651  -0.037  0.00  0.00    -0.285 N 
ATOM     30  C   UNL     1       4.669  -0.140  -0.715  0.00  0.00    +0.222 C 
ATOM     31  O   UNL     1       4.581   0.952  -1.235  0.00  0.00    -0.275 OA
ATOM     32  H   UNL     1       3.713  -1.494   0.433  0.00  0.00    +0.155 HD
BRANCH  30  33
ATOM     33  C   UNL     1       5.949  -0.927  -0.827  0.00  0.00    +0.098 C 
ATOM     34  C   UNL     1       6.535  -1.169   0.574  0.00  0.00    +0.037 C 
ATOM     35  C   UNL     1       7.989  -1.685   0.457  0.00  0.00    +0.166 C 
ATOM     36  S   UNL     1       8.551  -0.950  -1.133  0.00  0.00    -0.030 S 
ATOM     37  O   UNL     1       8.846  -1.997  -2.048  0.00  0.00    -0.174 OA
ATOM     38  O   UNL     1       9.534   0.040  -0.863  0.00  0.00    -0.174 OA
ATOM     39  C   UNL     1       6.991  -0.120  -1.654  0.00  0.00    +0.178 C 
ENDBRANCH  30  33
ENDBRANCH  26  29
ENDBRANCH  22  27
ENDBRANCH   1  22
TORSDOF 6
