REMARK  Name = ZINC35253359
REMARK  5 active torsions:
REMARK  status: ('A' for Active; 'I' for Inactive)
REMARK    1  A    between atoms: C_1  and  C_2
REMARK    2  A    between atoms: C_7  and  N_10
REMARK    3  A    between atoms: N_10  and  C_11
REMARK    4  A    between atoms: C_11  and  C_12
REMARK    5  A    between atoms: C_16  and  N_18
REMARK                            x       y       z     vdW  Elec       q    Type
REMARK                         _______ _______ _______ _____ _____    ______ ____
ROOT
ATOM      1  C   UNL     1       1.390  -3.993   2.478  0.00  0.00    -0.046 C 
ENDROOT
BRANCH   1   2
ATOM      2  C   UNL     1       2.119  -4.492   3.699  0.00  0.00    -0.062 A 
ATOM      3  C   UNL     1       3.466  -4.797   3.623  0.00  0.00    +0.003 A 
ATOM      4  C   UNL     1       4.134  -5.254   4.743  0.00  0.00    +0.018 A 
ATOM      5  C   UNL     1       3.457  -5.407   5.939  0.00  0.00    +0.048 A 
ATOM      6  C   UNL     1       2.110  -5.102   6.014  0.00  0.00    +0.140 A 
ATOM      7  C   UNL     1       1.442  -4.640   4.895  0.00  0.00    +0.035 A 
ATOM      8 BR   UNL     1       4.371  -6.034   7.471  0.00  0.00    -0.048 Br
BRANCH   6   9
ATOM      9  N   UNL     1       1.384  -5.266   7.293  0.00  0.00    +0.058 N 
ATOM     10  O   UNL     1       0.206  -5.000   7.359  0.00  0.00    -0.126 OA
ATOM     11  O   UNL     1       1.968  -5.667   8.273  0.00  0.00    -0.126 OA
ENDBRANCH   6   9
ENDBRANCH   1   2
BRANCH   1  12
ATOM     12  N   UNL     1       1.473  -2.527   2.423  0.00  0.00    +0.384 N 
ATOM     13  H   UNL     1       2.441  -2.247   2.375  0.00  0.00    -0.085 HD
ATOM     14  H   UNL     1       1.050  -2.135   3.251  0.00  0.00    -0.085 HD
BRANCH  12  20
ATOM     15  C   UNL     1      -0.019   1.526   0.010  0.00  0.00    +0.007 C 
ATOM     16  C   UNL     1       0.002  -0.004   0.002  0.00  0.00    -0.016 C 
ATOM     17  C   UNL     1       0.718  -0.497  -1.257  0.00  0.00    +0.003 C 
ATOM     18  C   UNL     1       0.739  -2.027  -1.265  0.00  0.00    -0.001 C 
ATOM     19  C   UNL     1       1.479  -2.534  -0.026  0.00  0.00    -0.016 C 
ATOM     20  C   UNL     1       0.763  -2.041   1.233  0.00  0.00    -0.071 C 
ATOM     21  C   UNL     1       0.742  -0.511   1.242  0.00  0.00    -0.013 C 
ENDBRANCH  12  20
ENDBRANCH   1  12
TORSDOF 4
