REMARK  Name = ZINC20389102
REMARK  7 active torsions:
REMARK  status: ('A' for Active; 'I' for Inactive)
REMARK    1  A    between atoms: C_1  and  C_2
REMARK    2  A    between atoms: C_4  and  O_9
REMARK    3  A    between atoms: C_7  and  N_8
REMARK    4  A    between atoms: O_9  and  C_10
REMARK    5  A    between atoms: C_10  and  C_12
REMARK    6  A    between atoms: C_10  and  C_13
REMARK    7  A    between atoms: N_18  and  C_19
REMARK                            x       y       z     vdW  Elec       q    Type
REMARK                         _______ _______ _______ _____ _____    ______ ____
ROOT
ATOM      1  O   UNL     1       0.058  -4.133  -0.020  0.00  0.00    -0.480 OA
ENDROOT
BRANCH   1   5
ATOM      2  C   UNL     1      -2.462   0.017   0.483  0.00  0.00    +0.046 C 
ATOM      3  C   UNL     1      -1.157  -0.736   0.454  0.00  0.00    -0.026 A 
ATOM      4  C   UNL     1      -1.149  -2.097   0.223  0.00  0.00    +0.050 A 
ATOM      5  C   UNL     1       0.052  -2.791   0.201  0.00  0.00    +0.122 A 
ATOM      6  C   UNL     1       1.247  -2.116   0.406  0.00  0.00    +0.047 A 
ATOM      7  C   UNL     1       1.241  -0.754   0.631  0.00  0.00    +0.026 A 
ATOM      8  C   UNL     1       0.039  -0.059   0.653  0.00  0.00    +0.028 A 
BRANCH   8   9
ATOM      9  N   UNL     1       0.033   1.322   0.881  0.00  0.00    -0.358 N 
ATOM     10  H   UNL     1       0.981   1.857   1.039  0.00  0.00    +0.142 HD
ATOM     11  H   UNL     1      -0.920   1.871   0.903  0.00  0.00    +0.142 HD
ENDBRANCH   8   9
ENDBRANCH   1   5
BRANCH   1  12
ATOM     12  C   UNL     1       1.334  -4.763  -0.146  0.00  0.00    +0.256 C 
ATOM     13  C   UNL     1       1.873  -5.107   1.244  0.00  0.00    +0.062 C 
BRANCH  12  14
ATOM     14  C   UNL     1       1.192  -6.026  -0.956  0.00  0.00    +0.261 C 
ATOM     15  O   UNL     1       0.106  -6.354  -1.383  0.00  0.00    -0.271 OA
ATOM     16  N   UNL     1       2.273  -6.792  -1.206  0.00  0.00    -0.237 N 
ATOM     17  C   UNL     1       2.146  -7.921  -1.930  0.00  0.00    +0.306 C 
ATOM     18  O   UNL     1       1.057  -8.249  -2.358  0.00  0.00    -0.252 OA
ATOM     19  N   UNL     1       3.227  -8.687  -2.180  0.00  0.00    -0.302 N 
ATOM     20  C   UNL     1       3.089  -9.914  -2.967  0.00  0.00    +0.129 C 
ATOM     21  H   UNL     1       3.259  -6.495  -0.819  0.00  0.00    +0.159 HD
ATOM     22  H   UNL     1       4.213  -8.389  -1.792  0.00  0.00    +0.150 HD
ENDBRANCH  12  14
ENDBRANCH   1  12
TORSDOF 4
