REMARK  Name = ZINC12523935
REMARK  6 active torsions:
REMARK  status: ('A' for Active; 'I' for Inactive)
REMARK    1  A    between atoms: C_1  and  N_2
REMARK    2  A    between atoms: N_2  and  C_3
REMARK    3  A    between atoms: N_2  and  C_4
REMARK    4  A    between atoms: C_7  and  N_10
REMARK    5  A    between atoms: N_21  and  S_22
REMARK    6  A    between atoms: S_22  and  C_25
REMARK                            x       y       z     vdW  Elec       q    Type
REMARK                         _______ _______ _______ _____ _____    ______ ____
ROOT
ATOM      1  N   UNL     1      -0.135   1.679   0.809  0.00  0.00    -0.297 N 
ATOM      2  C   UNL     1      -0.054   0.296   0.744  0.00  0.00    +0.165 A 
ATOM      3  C   UNL     1      -1.187  -0.491   1.063  0.00  0.00    +0.179 A 
ATOM      4  N   UNL     1      -1.123  -1.805   1.004  0.00  0.00    -0.226 NA
ATOM      5  C   UNL     1       0.022  -2.401   0.640  0.00  0.00    +0.091 A 
ATOM      6  C   UNL     1       0.115  -3.800   0.570  0.00  0.00    +0.030 A 
ATOM      7  C   UNL     1       1.288  -4.383   0.197  0.00  0.00    +0.002 A 
ATOM      8  C   UNL     1       2.402  -3.609  -0.117  0.00  0.00    +0.002 A 
ATOM      9  C   UNL     1       2.348  -2.249  -0.059  0.00  0.00    +0.030 A 
ATOM     10  C   UNL     1       1.155  -1.614   0.322  0.00  0.00    +0.091 A 
ATOM     11  N   UNL     1       1.075  -0.277   0.381  0.00  0.00    -0.227 NA
ATOM     12  N   UNL     1      -2.370   0.126   1.439  0.00  0.00    -0.196 N 
ATOM     13  H   UNL     1      -0.985   2.107   0.996  0.00  0.00    +0.154 HD
ATOM     14  H   UNL     1      -2.421   1.093   1.482  0.00  0.00    +0.175 HD
ENDROOT
BRANCH   1  18
ATOM     15  C   UNL     1       3.273   3.999   0.187  0.00  0.00    +0.029 A 
ATOM     16  C   UNL     1       2.032   4.464  -0.228  0.00  0.00    +0.025 A 
ATOM     17  C   UNL     1       0.903   3.696  -0.022  0.00  0.00    +0.025 A 
ATOM     18  C   UNL     1       1.010   2.458   0.600  0.00  0.00    +0.033 A 
ATOM     19  C   UNL     1       2.250   1.996   1.020  0.00  0.00    +0.025 A 
ATOM     20  C   UNL     1       3.380   2.762   0.809  0.00  0.00    +0.025 A 
BRANCH  15  22
ATOM     21  C   UNL     1       4.301   6.096  -0.652  0.00  0.00    +0.129 C 
ATOM     22  N   UNL     1       4.417   4.778  -0.023  0.00  0.00    -0.336 N 
ATOM     23  C   UNL     1       5.731   4.275   0.388  0.00  0.00    +0.129 C 
ENDBRANCH  15  22
ENDBRANCH   1  18
BRANCH  12  24
ATOM     24  S   UNL     1      -3.699  -0.790   1.812  0.00  0.00    +0.080 S 
ATOM     25  O   UNL     1      -4.728   0.118   2.179  0.00  0.00    -0.149 OA
ATOM     26  O   UNL     1      -3.852  -1.732   0.759  0.00  0.00    -0.149 OA
BRANCH  24  27
ATOM     27  C   UNL     1      -3.304  -1.714   3.260  0.00  0.00    +0.146 A 
ATOM     28  C   UNL     1      -3.483  -1.379   4.561  0.00  0.00    +0.036 A 
ATOM     29  C   UNL     1      -3.094  -2.272   5.543  0.00  0.00    +0.010 A 
ATOM     30  C   UNL     1      -2.545  -3.455   5.175  0.00  0.00    +0.047 A 
ATOM     31  S   UNL     1      -2.571  -3.336   3.393  0.00  0.00    -0.077 S 
ENDBRANCH  24  27
ENDBRANCH  12  24
TORSDOF 4
