REMARK  Name = ZINC56931584
REMARK  9 active torsions:
REMARK  status: ('A' for Active; 'I' for Inactive)
REMARK    1  A    between atoms: C_1  and  C_2
REMARK    2  A    between atoms: C_2  and  C_3
REMARK    3  A    between atoms: C_2  and  C_4
REMARK    4  A    between atoms: C_2  and  C_5
REMARK    5  A    between atoms: C_5  and  C_6
REMARK    6  A    between atoms: N_8  and  C_9
REMARK    7  A    between atoms: C_14  and  N_15
REMARK    8  A    between atoms: N_15  and  S_16
REMARK    9  A    between atoms: S_16  and  C_19
REMARK                            x       y       z     vdW  Elec       q    Type
REMARK                         _______ _______ _______ _____ _____    ______ ____
ROOT
ATOM      1  C   UNL     1       4.226   0.335  -2.439  0.00  0.00    +0.056 A 
ATOM      2  C   UNL     1       4.737   1.134  -1.427  0.00  0.00    +0.025 A 
ATOM      3  C   UNL     1       6.041   1.587  -1.497  0.00  0.00    +0.002 A 
ATOM      4  C   UNL     1       6.839   1.247  -2.573  0.00  0.00    +0.002 A 
ATOM      5  C   UNL     1       6.338   0.451  -3.586  0.00  0.00    +0.026 A 
ATOM      6  C   UNL     1       5.033  -0.014  -3.521  0.00  0.00    +0.069 A 
ENDROOT
BRANCH   1   9
ATOM      7  C   UNL     1       1.948   0.649  -1.821  0.00  0.00    +0.218 C 
ATOM      8  O   UNL     1       2.244   1.710  -1.315  0.00  0.00    -0.275 OA
ATOM      9  N   UNL     1       2.904  -0.126  -2.370  0.00  0.00    -0.284 N 
ATOM     10  H   UNL     1       2.677  -1.002  -2.719  0.00  0.00    +0.155 HD
BRANCH   7  11
ATOM     11  C   UNL     1       0.510   0.197  -1.836  0.00  0.00    +0.102 C 
BRANCH  11  13
ATOM     12  C   UNL     1      -0.239   2.579  -1.904  0.00  0.00    +0.011 C 
ATOM     13  C   UNL     1      -0.363   1.251  -1.154  0.00  0.00    -0.029 C 
ATOM     14  C   UNL     1       0.097   1.437   0.293  0.00  0.00    +0.011 C 
ATOM     15  C   UNL     1      -1.823   0.792  -1.169  0.00  0.00    +0.011 C 
ENDBRANCH  11  13
ENDBRANCH   7  11
ENDBRANCH   1   9
BRANCH   6  16
ATOM     16  N   UNL     1       4.525  -0.825  -4.542  0.00  0.00    -0.214 N 
ATOM     17  H   UNL     1       3.596  -0.743  -4.810  0.00  0.00    +0.174 HD
BRANCH  16  18
ATOM     18  S   UNL     1       5.510  -1.923  -5.295  0.00  0.00    +0.072 S 
ATOM     19  O   UNL     1       4.685  -2.672  -6.176  0.00  0.00    -0.150 OA
ATOM     20  O   UNL     1       6.650  -1.204  -5.745  0.00  0.00    -0.150 OA
BRANCH  18  21
ATOM     21  C   UNL     1       6.077  -3.045  -4.060  0.00  0.00    +0.109 A 
ATOM     22  C   UNL     1       7.242  -2.776  -3.365  0.00  0.00    +0.031 A 
ATOM     23  C   UNL     1       7.688  -3.655  -2.396  0.00  0.00    +0.040 A 
ATOM     24  C   UNL     1       6.967  -4.806  -2.122  0.00  0.00    +0.124 A 
ATOM     25  C   UNL     1       5.801  -5.074  -2.819  0.00  0.00    +0.040 A 
ATOM     26  C   UNL     1       5.355  -4.191  -3.784  0.00  0.00    +0.031 A 
ATOM     27  F   UNL     1       7.402  -5.666  -1.176  0.00  0.00    -0.205 F 
ENDBRANCH  18  21
ENDBRANCH  16  18
ENDBRANCH   6  16
TORSDOF 6
