REMARK  Name = ZINC36303256
REMARK  15 active torsions:
REMARK  status: ('A' for Active; 'I' for Inactive)
REMARK    1  A    between atoms: C_1  and  C_2
REMARK    2  A    between atoms: C_2  and  C_3
REMARK    3  A    between atoms: C_4  and  C_22
REMARK    4  A    between atoms: C_5  and  O_14
REMARK    5  A    between atoms: N_6  and  C_8
REMARK    6  A    between atoms: O_14  and  C_15
REMARK    7  A    between atoms: C_22  and  N_23
REMARK    8  A    between atoms: N_23  and  C_24
REMARK    9  A    between atoms: N_23  and  C_31
REMARK   10  A    between atoms: C_24  and  C_25
REMARK   11  A    between atoms: C_31  and  C_32
REMARK   12  A    between atoms: C_32  and  C_34
REMARK   13  A    between atoms: C_32  and  O_38
REMARK   14  A    between atoms: C_34  and  C_35
REMARK   15  A    between atoms: C_35  and  C_36
REMARK                            x       y       z     vdW  Elec       q    Type
REMARK                         _______ _______ _______ _____ _____    ______ ____
ROOT
ATOM      1  C   UNL     1       0.252  -0.748   1.279  0.00  0.00    +0.068 A 
ATOM      2  C   UNL     1       1.643  -0.824   1.400  0.00  0.00    +0.021 A 
ATOM      3  C   UNL     1       1.939  -0.994   2.717  0.00  0.00    +0.225 A 
ATOM      4  N   UNL     1       0.763  -1.022   3.399  0.00  0.00    -0.200 N 
ATOM      5  N   UNL     1      -0.274  -0.860   2.472  0.00  0.00    -0.168 NA
ENDROOT
BRANCH   4   6
ATOM      6  C   UNL     1       0.616  -1.180   4.784  0.00  0.00    +0.069 A 
ATOM      7  C   UNL     1       1.423  -2.076   5.472  0.00  0.00    +0.028 A 
ATOM      8  C   UNL     1       1.275  -2.229   6.837  0.00  0.00    +0.002 A 
ATOM      9  C   UNL     1       0.324  -1.492   7.518  0.00  0.00    +0.000 A 
ATOM     10  C   UNL     1      -0.482  -0.599   6.835  0.00  0.00    +0.002 A 
ATOM     11  C   UNL     1      -0.335  -0.437   5.472  0.00  0.00    +0.028 A 
ENDBRANCH   4   6
BRANCH   1  13
ATOM     12  C   UNL     1      -0.699   0.934  -0.276  0.00  0.00    +0.010 C 
ATOM     13  C   UNL     1      -0.511  -0.561  -0.007  0.00  0.00    +0.054 C 
ENDBRANCH   1  13
BRANCH   3  14
ATOM     14  O   UNL     1       3.181  -1.114   3.251  0.00  0.00    -0.438 OA
BRANCH  14  15
ATOM     15  C   UNL     1       3.730  -2.355   3.317  0.00  0.00    +0.133 A 
ATOM     16  C   UNL     1       3.076  -3.435   2.742  0.00  0.00    +0.046 A 
ATOM     17  C   UNL     1       3.635  -4.696   2.809  0.00  0.00    +0.006 A 
ATOM     18  C   UNL     1       4.847  -4.884   3.448  0.00  0.00    +0.038 A 
ATOM     19  C   UNL     1       5.503  -3.808   4.022  0.00  0.00    +0.127 A 
ATOM     20  C   UNL     1       4.949  -2.542   3.953  0.00  0.00    +0.084 A 
ATOM     21  F   UNL     1       6.686  -3.994   4.647  0.00  0.00    -0.205 F 
ENDBRANCH  14  15
ENDBRANCH   3  14
BRANCH   2  22
ATOM     22  C   UNL     1       2.638  -0.735   0.272  0.00  0.00    -0.036 C 
BRANCH  22  23
ATOM     23  N   UNL     1       3.023   0.668   0.068  0.00  0.00    +0.386 N 
ATOM     24  H   UNL     1       2.194   1.229  -0.060  0.00  0.00    -0.081 HD
BRANCH  23  25
ATOM     25  C   UNL     1       3.763   1.148   1.242  0.00  0.00    -0.046 C 
BRANCH  25  26
ATOM     26  C   UNL     1       5.065   0.358   1.383  0.00  0.00    +0.102 C 
ATOM     27  C   UNL     1       5.759   0.724   2.713  0.00  0.00    +0.032 C 
ATOM     28  C   UNL     1       7.257   0.759   2.304  0.00  0.00    +0.030 C 
ATOM     29  C   UNL     1       7.154   1.295   0.854  0.00  0.00    +0.160 C 
ATOM     30  O   UNL     1       5.959   0.700   0.318  0.00  0.00    -0.378 OA
ENDBRANCH  25  26
ENDBRANCH  23  25
BRANCH  23  31
ATOM     31  C   UNL     1       3.875   0.773  -1.124  0.00  0.00    -0.047 C 
BRANCH  31  32
ATOM     32  C   UNL     1       4.263   2.237  -1.346  0.00  0.00    +0.098 C 
BRANCH  32  33
ATOM     33  O   UNL     1       3.081   3.023  -1.511  0.00  0.00    -0.394 OA
ATOM     34  H   UNL     1       2.533   2.756  -2.262  0.00  0.00    +0.210 HD
ENDBRANCH  32  33
BRANCH  32  35
ATOM     35  C   UNL     1       5.130   2.350  -2.601  0.00  0.00    +0.033 C 
BRANCH  35  36
ATOM     36  C   UNL     1       5.621   3.791  -2.753  0.00  0.00    +0.029 C 
BRANCH  36  37
ATOM     37  C   UNL     1       6.476   3.903  -3.990  0.00  0.00    -0.034 C 
ATOM     38  C   UNL     1       6.184   4.788  -4.910  0.00  0.00    +0.004 C 
ENDBRANCH  36  37
ENDBRANCH  35  36
ENDBRANCH  32  35
ENDBRANCH  31  32
ENDBRANCH  23  31
ENDBRANCH  22  23
ENDBRANCH   2  22
TORSDOF 14
