REMARK  Name = ZINC32985289
REMARK  7 active torsions:
REMARK  status: ('A' for Active; 'I' for Inactive)
REMARK    1  A    between atoms: C_1  and  C_2
REMARK    2  A    between atoms: C_4  and  C_37
REMARK    3  A    between atoms: C_6  and  S_8
REMARK    4  A    between atoms: S_8  and  N_11
REMARK    5  A    between atoms: N_11  and  C_12
REMARK    6  A    between atoms: C_18  and  C_34
REMARK    7  A    between atoms: C_20  and  N_22
REMARK                            x       y       z     vdW  Elec       q    Type
REMARK                         _______ _______ _______ _____ _____    ______ ____
ROOT
ATOM      1  C   UNL     1       1.594  14.387  -0.140  0.00  0.00    +0.049 A 
ATOM      2  C   UNL     1       2.149  13.785   0.996  0.00  0.00    +0.026 A 
ATOM      3  C   UNL     1       2.120  12.436   1.157  0.00  0.00    +0.028 A 
ATOM      4  C   UNL     1       1.528  11.622   0.174  0.00  0.00    +0.049 A 
ATOM      5  C   UNL     1       0.965  12.229  -0.977  0.00  0.00    +0.014 A 
ATOM      6  C   UNL     1       1.005  13.618  -1.123  0.00  0.00    +0.035 A 
ATOM      7  C   UNL     1       0.352  11.371  -1.992  0.00  0.00    +0.075 A 
ATOM      8  C   UNL     1       0.366  10.002  -1.763  0.00  0.00    +0.057 A 
ATOM      9  C   UNL     1       0.945   9.508  -0.587  0.00  0.00    +0.100 A 
ATOM     10  N   UNL     1       1.490  10.294   0.313  0.00  0.00    -0.343 N 
ATOM     11  H   UNL     1       1.926   9.822   1.206  0.00  0.00    +0.167 HD
ENDROOT
BRANCH   9  12
ATOM     12  N   UNL     1       0.947   8.136  -0.367  0.00  0.00    -0.314 N 
ATOM     13  C   UNL     1       1.600   7.809   0.908  0.00  0.00    +0.125 C 
ATOM     14  C   UNL     1       1.653   6.288   1.075  0.00  0.00    +0.125 C 
ATOM     15  N   UNL     1       0.288   5.745   1.030  0.00  0.00    -0.314 N 
ATOM     16  C   UNL     1      -0.364   6.073  -0.246  0.00  0.00    +0.125 C 
ATOM     17  C   UNL     1      -0.417   7.593  -0.412  0.00  0.00    +0.125 C 
ATOM     18  C   UNL     1       0.291   4.372   1.250  0.00  0.00    +0.099 A 
ATOM     19  C   UNL     1      -0.911   3.671   1.246  0.00  0.00    +0.042 A 
ATOM     20  C   UNL     1      -0.893   2.305   1.461  0.00  0.00    +0.005 A 
ATOM     21  C   UNL     1       0.329   1.685   1.684  0.00  0.00    +0.018 A 
ATOM     22  C   UNL     1       1.483   2.442   1.674  0.00  0.00    +0.084 A 
ATOM     23  N   UNL     1       1.437   3.744   1.461  0.00  0.00    -0.350 N 
ATOM     24  H   UNL     1       2.381   4.308   1.461  0.00  0.00    +0.166 HD
ENDBRANCH   9  12
BRANCH   7  25
ATOM     25  C   UNL     1      -0.252  11.939  -3.215  0.00  0.00    +0.387 C 
ATOM     26  O   UNL     1      -0.345  13.143  -3.343  0.00  0.00    -0.241 OA
ATOM     27  O   UNL     1      -0.699  11.121  -4.188  0.00  0.00    -0.241 OA
ENDBRANCH   7  25
BRANCH   1  28
ATOM     28  N   UNL     1       1.637  15.775  -0.279  0.00  0.00    -0.216 N 
ATOM     29  H   UNL     1       1.946  16.223  -1.235  0.00  0.00    +0.174 HD
BRANCH  28  30
ATOM     30  S   UNL     1       1.222  16.748   0.995  0.00  0.00    +0.072 S 
ATOM     31  O   UNL     1       1.997  16.316   2.105  0.00  0.00    -0.150 OA
ATOM     32  O   UNL     1       1.259  18.085   0.514  0.00  0.00    -0.150 OA
BRANCH  30  38
ATOM     33  C   UNL     1      -3.904  17.464   0.266  0.00  0.00    +0.044 C 
ATOM     34  C   UNL     1      -2.796  16.768   1.014  0.00  0.00    -0.048 A 
ATOM     35  C   UNL     1      -3.099  15.857   2.008  0.00  0.00    +0.006 A 
ATOM     36  C   UNL     1      -2.083  15.218   2.694  0.00  0.00    -0.048 A 
ATOM     37  C   UNL     1      -0.763  15.491   2.384  0.00  0.00    +0.032 A 
ATOM     38  C   UNL     1      -0.460  16.401   1.389  0.00  0.00    +0.109 A 
ATOM     39  C   UNL     1      -1.476  17.044   0.708  0.00  0.00    +0.032 A 
ATOM     40  C   UNL     1      -2.413  14.225   3.778  0.00  0.00    +0.044 C 
ENDBRANCH  30  38
ENDBRANCH  28  30
ENDBRANCH   1  28
TORSDOF 5
