REMARK  Name = ZINC08778233
REMARK  6 active torsions:
REMARK  status: ('A' for Active; 'I' for Inactive)
REMARK    1  A    between atoms: C_1  and  C_2
REMARK    2  A    between atoms: C_2  and  C_4
REMARK    3  A    between atoms: C_2  and  N_53
REMARK    4  A    between atoms: N_6  and  C_7
REMARK    5  A    between atoms: C_8  and  C_15
REMARK    6  A    between atoms: C_23  and  C_25
REMARK                            x       y       z     vdW  Elec       q    Type
REMARK                         _______ _______ _______ _____ _____    ______ ____
ROOT
ATOM      1  C   UNL     1      -2.257   2.497  -3.496  0.00  0.00    +0.204 C 
ATOM      2  O   UNL     1      -3.300   3.079  -3.285  0.00  0.00    -0.277 OA
ATOM      3  N   UNL     1      -1.504   2.067  -2.463  0.00  0.00    -0.281 N 
ATOM      4  H   UNL     1      -0.670   1.602  -2.632  0.00  0.00    +0.155 HD
ENDROOT
BRANCH   3   5
ATOM      5  C   UNL     1      -1.923   2.290  -1.160  0.00  0.00    +0.084 A 
ATOM      6  C   UNL     1      -1.294   1.929   0.019  0.00  0.00    +0.068 A 
ATOM      7  C   UNL     1      -1.949   2.292   1.275  0.00  0.00    -0.023 A 
ATOM      8  C   UNL     1      -3.116   2.947   1.141  0.00  0.00    -0.004 A 
ATOM      9  S   UNL     1      -3.359   3.086  -0.613  0.00  0.00    -0.077 S 
ATOM     10  C   UNL     1      -3.727   3.290   2.473  0.00  0.00    +0.043 C 
ATOM     11  C   UNL     1      -2.568   3.137   3.483  0.00  0.00    +0.010 C 
ATOM     12  C   UNL     1      -1.659   2.119   2.766  0.00  0.00    +0.037 C 
BRANCH   6  13
ATOM     13  C   UNL     1      -0.014   1.213   0.009  0.00  0.00    +0.244 C 
ATOM     14  O   UNL     1       0.002  -0.004   0.002  0.00  0.00    -0.270 OA
ATOM     15  N   UNL     1       1.143   1.903   0.001  0.00  0.00    -0.325 N 
ATOM     16  H   UNL     1       1.990   1.429  -0.009  0.00  0.00    +0.145 HD
ATOM     17  H   UNL     1       1.130   2.873   0.007  0.00  0.00    +0.145 HD
ENDBRANCH   6  13
ENDBRANCH   3   5
BRANCH   1  19
ATOM     18  C   UNL     1      -1.668   0.750  -5.154  0.00  0.00    -0.004 C 
ATOM     19  C   UNL     1      -1.803   2.255  -4.912  0.00  0.00    +0.017 C 
BRANCH  19  27
ATOM     20  C   UNL     1      -4.101   2.176  -5.670  0.00  0.00    -0.058 C 
ATOM     21  C   UNL     1      -5.139   2.907  -6.528  0.00  0.00    +0.089 C 
ATOM     22  N   UNL     1      -4.650   2.954  -7.915  0.00  0.00    -0.305 N 
ATOM     23  C   UNL     1      -3.289   3.455  -8.156  0.00  0.00    +0.089 C 
ATOM     24  C   UNL     1      -2.323   2.703  -7.234  0.00  0.00    -0.058 C 
ATOM     25  C   UNL     1      -5.430   2.549  -8.937  0.00  0.00    +0.219 C 
ATOM     26  O   UNL     1      -5.011   2.595 -10.074  0.00  0.00    -0.275 OA
ATOM     27  N   UNL     1      -2.792   2.844  -5.838  0.00  0.00    +0.389 N 
ATOM     28  H   UNL     1      -2.897   3.842  -5.622  0.00  0.00    -0.081 HD
BRANCH  25  29
ATOM     29  C   UNL     1      -6.822   2.040  -8.667  0.00  0.00    +0.075 C 
ATOM     30  C   UNL     1      -7.088   0.551  -8.903  0.00  0.00    +0.013 C 
ATOM     31  C   UNL     1      -7.656   1.593  -9.870  0.00  0.00    +0.013 C 
ENDBRANCH  25  29
ENDBRANCH  19  27
ENDBRANCH   1  19
TORSDOF 5
