REMARK  Name = ZINC39708448
REMARK  8 active torsions:
REMARK  status: ('A' for Active; 'I' for Inactive)
REMARK    1  A    between atoms: C_1  and  C_2
REMARK    2  A    between atoms: C_3  and  N_9
REMARK    3  A    between atoms: C_10  and  C_23
REMARK    4  A    between atoms: C_13  and  S_14
REMARK    5  A    between atoms: S_14  and  C_15
REMARK    6  A    between atoms: C_15  and  C_16
REMARK    7  A    between atoms: C_23  and  N_24
REMARK    8  A    between atoms: C_25  and  C_27
REMARK                            x       y       z     vdW  Elec       q    Type
REMARK                         _______ _______ _______ _____ _____    ______ ____
ROOT
ATOM      1  N   UNL     1      -0.010   0.013  -2.415  0.00  0.00    -0.273 N 
ATOM      2  C   UNL     1       1.072   0.440  -3.139  0.00  0.00    +0.156 A 
ATOM      3  N   UNL     1       0.615   1.052  -4.195  0.00  0.00    -0.132 NA
ATOM      4  N   UNL     1      -0.670   1.042  -4.190  0.00  0.00    -0.122 NA
ATOM      5  C   UNL     1      -1.109   0.414  -3.125  0.00  0.00    +0.196 A 
ENDROOT
BRANCH   1   8
ATOM      6  C   UNL     1      -0.018   1.503   0.010  0.00  0.00    +0.047 C 
ATOM      7  C   UNL     1       0.002  -0.004   0.002  0.00  0.00    -0.008 A 
ATOM      8  C   UNL     1       0.006  -0.692  -1.204  0.00  0.00    +0.055 A 
ATOM      9  C   UNL     1       0.025  -2.080  -1.207  0.00  0.00    +0.026 A 
ATOM     10  C   UNL     1       0.040  -2.773  -0.012  0.00  0.00    +0.003 A 
ATOM     11  C   UNL     1       0.035  -2.086   1.187  0.00  0.00    +0.020 A 
ATOM     12  C   UNL     1       0.023  -0.702   1.195  0.00  0.00    +0.046 A 
ATOM     13 CL   UNL     1       0.026   0.157   2.703  0.00  0.00    -0.083 Cl
ENDBRANCH   1   8
BRANCH   5  14
ATOM     14  S   UNL     1      -2.794   0.141  -2.688  0.00  0.00    -0.081 S 
BRANCH  14  15
ATOM     15  C   UNL     1      -3.728   0.916  -4.037  0.00  0.00    +0.112 C 
BRANCH  15  16
ATOM     16  C   UNL     1      -5.204   0.753  -3.785  0.00  0.00    -0.034 A 
ATOM     17  C   UNL     1      -5.869  -0.360  -4.267  0.00  0.00    +0.004 A 
ATOM     18  C   UNL     1      -7.223  -0.511  -4.036  0.00  0.00    +0.003 A 
ATOM     19  C   UNL     1      -7.915   0.451  -3.324  0.00  0.00    +0.038 A 
ATOM     20  C   UNL     1      -7.251   1.565  -2.841  0.00  0.00    +0.124 A 
ATOM     21  C   UNL     1      -5.892   1.712  -3.068  0.00  0.00    +0.042 A 
ATOM     22  F   UNL     1      -7.926   2.506  -2.145  0.00  0.00    -0.205 F 
ENDBRANCH  15  16
ENDBRANCH  14  15
ENDBRANCH   5  14
BRANCH   2  23
ATOM     23  C   UNL     1       2.522   0.240  -2.780  0.00  0.00    +0.181 C 
BRANCH  23  24
ATOM     24  N   UNL     1       2.998  -1.019  -3.358  0.00  0.00    -0.308 N 
ATOM     25  C   UNL     1       4.274  -1.409  -3.167  0.00  0.00    +0.220 C 
ATOM     26  O   UNL     1       5.028  -0.717  -2.515  0.00  0.00    -0.275 OA
ATOM     27  H   UNL     1       2.396  -1.573  -3.879  0.00  0.00    +0.149 HD
BRANCH  25  28
ATOM     28  C   UNL     1       4.765  -2.704  -3.761  0.00  0.00    +0.048 C 
ATOM     29  C   UNL     1       3.937  -3.865  -3.208  0.00  0.00    +0.019 C 
ATOM     30  C   UNL     1       4.434  -5.179  -3.811  0.00  0.00    -0.009 C 
ATOM     31  C   UNL     1       5.906  -5.383  -3.447  0.00  0.00    +0.007 C 
ATOM     32  C   UNL     1       6.734  -4.222  -4.001  0.00  0.00    -0.009 C 
ATOM     33  C   UNL     1       6.237  -2.907  -3.397  0.00  0.00    +0.019 C 
ATOM     34  C   UNL     1       6.588  -4.172  -5.523  0.00  0.00    +0.007 C 
ATOM     35  C   UNL     1       5.116  -3.968  -5.888  0.00  0.00    -0.009 C 
ATOM     36  C   UNL     1       4.288  -5.129  -5.333  0.00  0.00    +0.007 C 
ATOM     37  C   UNL     1       4.618  -2.653  -5.284  0.00  0.00    +0.019 C 
ENDBRANCH  25  28
ENDBRANCH  23  24
ENDBRANCH   2  23
TORSDOF 7
