REMARK  Name = ZINC38783261
REMARK  6 active torsions:
REMARK  status: ('A' for Active; 'I' for Inactive)
REMARK    1  A    between atoms: C_7  and  C_10
REMARK    2  A    between atoms: C_10  and  C_11
REMARK    3  A    between atoms: C_11  and  N_12
REMARK    4  A    between atoms: C_13  and  C_15
REMARK    5  A    between atoms: N_19  and  C_26
REMARK    6  A    between atoms: C_20  and  C_22
REMARK                            x       y       z     vdW  Elec       q    Type
REMARK                         _______ _______ _______ _____ _____    ______ ____
ROOT
ATOM      1  C   UNL     1      -5.519   7.131  -2.560  0.00  0.00    +0.060 C 
ATOM      2  H   UNL     1      -7.632   9.161  -3.745  0.00  0.00    +0.169 HD
ATOM      3  C   UNL     1      -6.306   7.585  -3.553  0.00  0.00    +0.098 C 
ATOM      4  N   UNL     1      -7.009   8.684  -3.175  0.00  0.00    -0.270 N 
ATOM      5  N   UNL     1      -6.714   9.036  -1.852  0.00  0.00    -0.237 N 
ATOM      6  C   UNL     1      -5.735   8.046  -1.374  0.00  0.00    +0.234 C 
ENDROOT
BRANCH   5   7
ATOM      7  C   UNL     1      -7.246  10.107  -1.130  0.00  0.00    +0.050 A 
ATOM      8  C   UNL     1      -7.174  10.115   0.258  0.00  0.00    +0.025 A 
ATOM      9  C   UNL     1      -7.701  11.175   0.969  0.00  0.00    +0.003 A 
ATOM     10  C   UNL     1      -8.299  12.228   0.303  0.00  0.00    +0.020 A 
ATOM     11  C   UNL     1      -8.373  12.224  -1.079  0.00  0.00    +0.043 A 
ATOM     12  C   UNL     1      -7.842  11.169  -1.798  0.00  0.00    +0.044 A 
ATOM     13 CL   UNL     1      -9.126  13.549  -1.912  0.00  0.00    -0.083 Cl
ENDBRANCH   5   7
BRANCH   1  15
ATOM     14  N   UNL     1      -4.041   5.581  -1.495  0.00  0.00    -0.311 N 
ATOM     15  C   UNL     1      -4.658   6.010  -2.613  0.00  0.00    +0.243 C 
ATOM     16  O   UNL     1      -4.475   5.433  -3.670  0.00  0.00    -0.270 OA
ATOM     17  H   UNL     1      -4.138   6.076  -0.666  0.00  0.00    +0.149 HD
BRANCH  14  18
ATOM     18  C   UNL     1      -3.223   4.366  -1.530  0.00  0.00    +0.109 C 
BRANCH  18  19
ATOM     19  C   UNL     1      -2.640   4.103  -0.140  0.00  0.00    +0.056 C 
BRANCH  19  26
ATOM     20  C   UNL     1       1.825   3.276  -1.301  0.00  0.00    +0.001 A 
ATOM     21  C   UNL     1       2.177   1.939  -1.180  0.00  0.00    +0.002 A 
ATOM     22  C   UNL     1       1.256   1.006  -0.756  0.00  0.00    +0.026 A 
ATOM     23  C   UNL     1      -0.040   1.405  -0.446  0.00  0.00    +0.047 A 
ATOM     24  N   UNL     1      -1.160   0.735  -0.008  0.00  0.00    -0.360 N 
ATOM     25  C   UNL     1      -2.197   1.613   0.147  0.00  0.00    +0.087 A 
ATOM     26  C   UNL     1      -1.799   2.854  -0.176  0.00  0.00    -0.021 A 
ATOM     27  C   UNL     1      -0.391   2.762  -0.570  0.00  0.00    +0.003 A 
ATOM     28  C   UNL     1       0.560   3.692  -0.996  0.00  0.00    +0.010 A 
ATOM     29  H   UNL     1      -1.206  -0.219   0.164  0.00  0.00    +0.165 HD
ENDBRANCH  19  26
ENDBRANCH  18  19
ENDBRANCH  14  18
ENDBRANCH   1  15
BRANCH   6  30
ATOM     30  C   UNL     1      -4.426   8.737  -0.986  0.00  0.00    +0.414 C 
ATOM     31  F   UNL     1      -3.897   9.395  -2.101  0.00  0.00    -0.168 F 
ATOM     32  F   UNL     1      -4.672   9.666   0.031  0.00  0.00    -0.168 F 
ATOM     33  F   UNL     1      -3.511   7.781  -0.532  0.00  0.00    -0.168 F 
ENDBRANCH   6  30
TORSDOF 6
