REMARK  Name = ZINC08549530
REMARK  10 active torsions:
REMARK  status: ('A' for Active; 'I' for Inactive)
REMARK    1  A    between atoms: C_1  and  C_2
REMARK    2  A    between atoms: C_7  and  C_8
REMARK    3  A    between atoms: C_14  and  C_23
REMARK    4  A    between atoms: N_16  and  C_19
REMARK    5  A    between atoms: C_19  and  C_20
REMARK    6  A    between atoms: C_20  and  N_56
REMARK    7  A    between atoms: C_21  and  N_56
REMARK    8  A    between atoms: C_22  and  N_56
REMARK    9  A    between atoms: C_26  and  O_29
REMARK   10  A    between atoms: O_29  and  C_30
REMARK                            x       y       z     vdW  Elec       q    Type
REMARK                         _______ _______ _______ _____ _____    ______ ____
ROOT
ATOM      1  C   UNL     1      -5.013   1.380   0.053  0.00  0.00    +0.044 C 
ATOM      2  C   UNL     1      -3.673   2.071   0.044  0.00  0.00    -0.047 A 
ATOM      3  C   UNL     1      -2.515   1.325   0.031  0.00  0.00    +0.019 A 
ATOM      4  C   UNL     1      -1.281   1.972   0.019  0.00  0.00    +0.065 A 
ATOM      5  C   UNL     1      -1.213   3.376   0.029  0.00  0.00    +0.140 A 
ATOM      6  C   UNL     1      -2.396   4.109   0.043  0.00  0.00    +0.050 A 
ATOM      7  C   UNL     1      -3.610   3.458   0.050  0.00  0.00    -0.044 A 
ATOM      8  C   UNL     1      -4.885   4.261   0.066  0.00  0.00    +0.044 C 
ATOM      9  O   UNL     1      -0.021   4.001   0.022  0.00  0.00    -0.450 OA
ATOM     10  C   UNL     1       1.161   3.354   0.009  0.00  0.00    +0.199 A 
ATOM     11  C   UNL     1       1.222   2.001   0.001  0.00  0.00    +0.072 A 
ATOM     12  C   UNL     1      -0.014   1.214   0.009  0.00  0.00    +0.199 A 
ATOM     13  O   UNL     1       0.002  -0.004   0.002  0.00  0.00    -0.287 OA
ATOM     14  C   UNL     1       2.678   1.613  -0.014  0.00  0.00    +0.144 C 
ATOM     15  N   UNL     1       3.432   2.873  -0.014  0.00  0.00    -0.285 N 
ATOM     16  C   UNL     1       2.548   3.885  -0.001  0.00  0.00    +0.283 C 
ATOM     17  O   UNL     1       2.841   5.064   0.003  0.00  0.00    -0.267 OA
ENDROOT
BRANCH  14  18
ATOM     18  C   UNL     1       2.992   0.820  -1.256  0.00  0.00    -0.022 A 
ATOM     19  C   UNL     1       3.162   1.470  -2.465  0.00  0.00    +0.009 A 
ATOM     20  C   UNL     1       3.455   0.746  -3.604  0.00  0.00    +0.046 A 
ATOM     21  C   UNL     1       3.567  -0.635  -3.537  0.00  0.00    +0.120 A 
ATOM     22  C   UNL     1       3.390  -1.285  -2.325  0.00  0.00    +0.046 A 
ATOM     23  C   UNL     1       3.103  -0.556  -1.187  0.00  0.00    +0.009 A 
BRANCH  21  24
ATOM     24  O   UNL     1       3.850  -1.350  -4.658  0.00  0.00    -0.495 OA
ATOM     25  C   UNL     1       4.019  -0.615  -5.871  0.00  0.00    +0.277 C 
ENDBRANCH  21  24
ENDBRANCH  14  18
BRANCH  15  26
ATOM     26  C   UNL     1       4.891   3.003  -0.025  0.00  0.00    +0.090 C 
BRANCH  26  27
ATOM     27  C   UNL     1       5.411   3.042   1.413  0.00  0.00    -0.060 C 
BRANCH  27  30
ATOM     28  C   UNL     1       7.388   3.450   2.750  0.00  0.00    -0.097 C 
ATOM     29  C   UNL     1       7.506   1.974   0.834  0.00  0.00    -0.097 C 
ATOM     30  N   UNL     1       6.881   3.195   1.385  0.00  0.00    +0.377 N 
ATOM     31  H   UNL     1       7.122   3.993   0.785  0.00  0.00    -0.083 HD
ENDBRANCH  27  30
ENDBRANCH  26  27
ENDBRANCH  15  26
TORSDOF 5
