REMARK  Name = ZINC65215947
REMARK  4 active torsions:
REMARK  status: ('A' for Active; 'I' for Inactive)
REMARK    1  A    between atoms: N_3  and  C_20
REMARK    2  A    between atoms: C_8  and  C_10
REMARK    3  A    between atoms: C_12  and  C_16
REMARK    4  A    between atoms: C_20  and  C_21
REMARK                            x       y       z     vdW  Elec       q    Type
REMARK                         _______ _______ _______ _____ _____    ______ ____
ROOT
ATOM      1  C   UNL     1      -0.130   1.555  -0.052  0.00  0.00    +0.000 C 
ATOM      2  C   UNL     1       1.258   2.156  -0.109  0.00  0.00    -0.077 C 
ATOM      3  N   UNL     1       1.657   2.314  -1.506  0.00  0.00    +0.386 N 
ATOM      4  C   UNL     1       2.288   1.186  -2.076  0.00  0.00    -0.059 C 
ATOM      5  C   UNL     1       1.307  -0.009  -2.123  0.00  0.00    +0.089 C 
ATOM      6  N   UNL     1       1.067  -0.500  -0.782  0.00  0.00    -0.298 N 
ATOM      7  C   UNL     1      -0.021   0.024   0.069  0.00  0.00    +0.106 C 
ATOM      8  C   UNL     1       1.864  -1.470  -0.293  0.00  0.00    +0.268 C 
ATOM      9  O   UNL     1       1.620  -1.970   0.788  0.00  0.00    -0.268 OA
ATOM     10  H   UNL     1       0.835   2.528  -2.050  0.00  0.00    -0.081 HD
ENDROOT
BRANCH   8  11
ATOM     11  C   UNL     1       3.034  -1.927  -1.071  0.00  0.00    +0.161 A 
ATOM     12  C   UNL     1       3.891  -3.005  -0.746  0.00  0.00    +0.071 A 
ATOM     13  C   UNL     1       4.811  -3.049  -1.739  0.00  0.00    +0.054 A 
ATOM     14  N   UNL     1       4.513  -2.048  -2.604  0.00  0.00    -0.280 N 
ATOM     15  N   UNL     1       3.473  -1.410  -2.201  0.00  0.00    -0.168 NA
ATOM     16  H   UNL     1       5.010  -1.845  -3.412  0.00  0.00    +0.189 HD
ATOM     17 BR   UNL     1       3.775  -4.146   0.758  0.00  0.00    -0.046 Br
BRANCH  13  18
ATOM     18  C   UNL     1       5.952  -4.025  -1.859  0.00  0.00    +0.038 C 
ATOM     19  C   UNL     1       6.990  -3.768  -2.954  0.00  0.00    +0.010 C 
ATOM     20  C   UNL     1       5.991  -4.917  -3.102  0.00  0.00    +0.010 C 
ENDBRANCH  13  18
ENDBRANCH   8  11
BRANCH   3  21
ATOM     21  C   UNL     1       2.577   3.455  -1.598  0.00  0.00    +0.018 C 
BRANCH  21  22
ATOM     22  C   UNL     1       1.836   4.726  -1.272  0.00  0.00    +0.194 C 
ATOM     23  O   UNL     1       0.638   4.698  -1.085  0.00  0.00    -0.278 OA
ATOM     24  N   UNL     1       2.503   5.894  -1.189  0.00  0.00    -0.331 N 
ATOM     25  H   UNL     1       3.462   5.916  -1.339  0.00  0.00    +0.145 HD
ATOM     26  H   UNL     1       2.026   6.712  -0.980  0.00  0.00    +0.145 HD
ENDBRANCH  21  22
ENDBRANCH   3  21
TORSDOF 4
