REMARK  Name = ZINC20710507
REMARK  6 active torsions:
REMARK  status: ('A' for Active; 'I' for Inactive)
REMARK    1  A    between atoms: C_4  and  C_7
REMARK    2  A    between atoms: C_7  and  O_8
REMARK    3  A    between atoms: O_8  and  C_9
REMARK    4  A    between atoms: C_14  and  C_15
REMARK    5  A    between atoms: C_26  and  N_32
REMARK    6  A    between atoms: C_28  and  O_31
REMARK                            x       y       z     vdW  Elec       q    Type
REMARK                         _______ _______ _______ _____ _____    ______ ____
ROOT
ATOM      1  C   UNL     1      -0.939   1.525  -1.010  0.00  0.00    +0.109 C 
ATOM      2  C   UNL     1      -0.669   3.010  -1.140  0.00  0.00    +0.029 C 
ATOM      3  C   UNL     1      -1.445   3.791  -2.207  0.00  0.00    +0.033 C 
ATOM      4  C   UNL     1      -0.451   4.903  -2.553  0.00  0.00    -0.030 C 
ATOM      5  C   UNL     1       0.789   4.496  -2.303  0.00  0.00    -0.023 C 
ATOM      6  C   UNL     1       0.736   3.096  -1.814  0.00  0.00    +0.049 C 
ATOM      7  C   UNL     1       1.710   2.553  -0.842  0.00  0.00    -0.014 A 
ATOM      8  C   UNL     1       3.005   3.025  -0.771  0.00  0.00    +0.039 A 
ATOM      9  C   UNL     1       3.906   2.476   0.121  0.00  0.00    +0.130 A 
ATOM     10  C   UNL     1       3.505   1.445   0.951  0.00  0.00    +0.080 A 
ATOM     11  C   UNL     1       2.210   0.971   0.893  0.00  0.00    +0.140 A 
ATOM     12  C   UNL     1       1.285   1.523  -0.002  0.00  0.00    +0.074 A 
ATOM     13  N   UNL     1      -0.012   1.005   0.008  0.00  0.00    -0.334 N 
ATOM     14  H   UNL     1      -0.353   0.245   0.726  0.00  0.00    +0.147 HD
ENDROOT
BRANCH   1  20
ATOM     15  C   UNL     1      -1.674   0.845  -3.308  0.00  0.00    +0.126 A 
ATOM     16  C   UNL     1      -1.443   0.213  -4.522  0.00  0.00    +0.046 A 
ATOM     17  C   UNL     1      -0.236  -0.418  -4.753  0.00  0.00    +0.004 A 
ATOM     18  C   UNL     1       0.742  -0.421  -3.775  0.00  0.00    +0.001 A 
ATOM     19  C   UNL     1       0.516   0.212  -2.566  0.00  0.00    +0.009 A 
ATOM     20  C   UNL     1      -0.692   0.840  -2.329  0.00  0.00    +0.015 A 
BRANCH  15  21
ATOM     21  O   UNL     1      -2.860   1.467  -3.080  0.00  0.00    -0.487 OA
BRANCH  21  22
ATOM     22  C   UNL     1      -3.825   1.431  -4.133  0.00  0.00    +0.264 C 
BRANCH  22  26
ATOM     23  C   UNL     1      -7.348   3.515  -2.910  0.00  0.00    +0.000 A 
ATOM     24  C   UNL     1      -6.330   4.196  -3.552  0.00  0.00    +0.000 A 
ATOM     25  C   UNL     1      -5.190   3.521  -3.948  0.00  0.00    +0.007 A 
ATOM     26  C   UNL     1      -5.068   2.166  -3.701  0.00  0.00    -0.010 A 
ATOM     27  C   UNL     1      -6.088   1.485  -3.064  0.00  0.00    +0.007 A 
ATOM     28  C   UNL     1      -7.226   2.160  -2.664  0.00  0.00    +0.000 A 
ENDBRANCH  22  26
ENDBRANCH  21  22
ENDBRANCH  15  21
ENDBRANCH   1  20
BRANCH   9  29
ATOM     29  N   UNL     1       5.293   2.989   0.188  0.00  0.00    +0.057 N 
ATOM     30  O   UNL     1       5.642   3.897  -0.545  0.00  0.00    -0.126 OA
ATOM     31  O   UNL     1       6.084   2.502   0.975  0.00  0.00    -0.126 OA
ENDBRANCH   9  29
BRANCH  11  32
ATOM     32  O   UNL     1       1.827  -0.043   1.715  0.00  0.00    -0.505 OA
ATOM     33  H   UNL     1       0.796  -0.425   1.674  0.00  0.00    +0.292 HD
ENDBRANCH  11  32
TORSDOF 6
