REMARK  Name = ZINC30987368
REMARK  9 active torsions:
REMARK  status: ('A' for Active; 'I' for Inactive)
REMARK    1  A    between atoms: C_1  and  C_2
REMARK    2  A    between atoms: N_7  and  C_9
REMARK    3  A    between atoms: C_12  and  C_15
REMARK    4  A    between atoms: C_15  and  C_17
REMARK    5  A    between atoms: C_15  and  N_18
REMARK    6  A    between atoms: C_19  and  C_21
REMARK    7  A    between atoms: N_24  and  C_27
REMARK    8  A    between atoms: C_27  and  C_28
REMARK    9  A    between atoms: C_30  and  C_33
REMARK                            x       y       z     vdW  Elec       q    Type
REMARK                         _______ _______ _______ _____ _____    ______ ____
ROOT
ATOM      1  C   UNL     1       1.420   2.051  -0.001  0.00  0.00    +0.071 C 
ATOM      2  C   UNL     1      -0.019   1.526   0.010  0.00  0.00    -0.006 C 
ATOM      3  C   UNL     1       0.002  -0.004   0.002  0.00  0.00    -0.077 C 
ATOM      4  N   UNL     1       0.706  -0.479  -1.196  0.00  0.00    +0.386 N 
ATOM      5  C   UNL     1       2.103  -0.026  -1.205  0.00  0.00    -0.077 C 
ATOM      6  C   UNL     1       2.145   1.503  -1.232  0.00  0.00    -0.006 C 
ATOM      7  H   UNL     1       0.207  -0.042  -2.073  0.00  0.00    -0.081 HD
ENDROOT
BRANCH   1   9
ATOM      8  N   UNL     1       2.566   4.242  -0.071  0.00  0.00    -0.309 N 
ATOM      9  C   UNL     1       1.405   3.557  -0.053  0.00  0.00    +0.216 C 
ATOM     10  O   UNL     1       0.349   4.153  -0.079  0.00  0.00    -0.276 OA
ATOM     11  H   UNL     1       3.524   3.701  -0.047  0.00  0.00    +0.149 HD
BRANCH   8  12
ATOM     12  C   UNL     1       2.553   5.706  -0.121  0.00  0.00    +0.100 C 
ATOM     13  C   UNL     1       2.429   6.165  -1.576  0.00  0.00    +0.033 C 
BRANCH  12  17
ATOM     14  C   UNL     1       6.182   7.224   1.548  0.00  0.00    +0.030 A 
ATOM     15  C   UNL     1       4.975   7.858   1.814  0.00  0.00    +0.023 A 
ATOM     16  C   UNL     1       3.804   7.365   1.272  0.00  0.00    +0.007 A 
ATOM     17  C   UNL     1       3.832   6.241   0.467  0.00  0.00    -0.027 A 
ATOM     18  C   UNL     1       5.031   5.604   0.206  0.00  0.00    +0.007 A 
ATOM     19  C   UNL     1       6.207   6.095   0.739  0.00  0.00    +0.023 A 
BRANCH  14  25
ATOM     20  C   UNL     1      11.008   6.698   1.764  0.00  0.00    +0.009 C 
ATOM     21  C   UNL     1       9.812   7.558   2.175  0.00  0.00    +0.003 C 
ATOM     22  C   UNL     1       9.767   7.678   3.701  0.00  0.00    +0.006 C 
ATOM     23  C   UNL     1       8.534   8.490   4.106  0.00  0.00    +0.019 C 
ATOM     24  C   UNL     1       7.278   7.809   3.557  0.00  0.00    +0.105 C 
ATOM     25  N   UNL     1       7.369   7.720   2.094  0.00  0.00    -0.330 N 
ATOM     26  C   UNL     1       8.519   6.905   1.682  0.00  0.00    +0.108 C 
ENDBRANCH  14  25
ENDBRANCH  12  17
ENDBRANCH   8  12
ENDBRANCH   1   9
BRANCH   4  27
ATOM     27  C   UNL     1       0.626  -1.941  -1.309  0.00  0.00    +0.022 C 
BRANCH  27  28
ATOM     28  C   UNL     1       1.139  -2.369  -2.660  0.00  0.00    +0.211 A 
ATOM     29  N   UNL     1       2.376  -2.675  -2.961  0.00  0.00    -0.193 NA
ATOM     30  C   UNL     1       2.362  -2.996  -4.275  0.00  0.00    +0.202 A 
ATOM     31  N   UNL     1       1.128  -2.868  -4.690  0.00  0.00    -0.056 NA
ATOM     32  O   UNL     1       0.415  -2.515  -3.774  0.00  0.00    -0.340 OA
BRANCH  30  33
ATOM     33  C   UNL     1       3.527  -3.414  -5.092  0.00  0.00    +0.023 A 
ATOM     34  C   UNL     1       4.792  -3.501  -4.514  0.00  0.00    +0.013 A 
ATOM     35  C   UNL     1       5.871  -3.896  -5.277  0.00  0.00    +0.021 A 
ATOM     36  C   UNL     1       5.702  -4.195  -6.618  0.00  0.00    +0.041 A 
ATOM     37  C   UNL     1       4.448  -4.105  -7.199  0.00  0.00    +0.021 A 
ATOM     38  C   UNL     1       3.361  -3.716  -6.442  0.00  0.00    +0.013 A 
ATOM     39 CL   UNL     1       7.065  -4.684  -7.575  0.00  0.00    -0.084 Cl
ENDBRANCH  30  33
ENDBRANCH  27  28
ENDBRANCH   4  27
TORSDOF 7
