REMARK  Name = ZINC25224897
REMARK  9 active torsions:
REMARK  status: ('A' for Active; 'I' for Inactive)
REMARK    1  A    between atoms: C_1  and  C_2
REMARK    2  A    between atoms: C_2  and  C_3
REMARK    3  A    between atoms: C_2  and  C_4
REMARK    4  A    between atoms: C_7  and  C_10
REMARK    5  A    between atoms: C_10  and  C_28
REMARK    6  A    between atoms: N_13  and  C_17
REMARK    7  A    between atoms: C_17  and  C_18
REMARK    8  A    between atoms: C_18  and  C_20
REMARK    9  A    between atoms: C_18  and  O_27
REMARK                            x       y       z     vdW  Elec       q    Type
REMARK                         _______ _______ _______ _____ _____    ______ ____
ROOT
ATOM      1  C   UNL     1      -5.419  -2.005   0.043  0.00  0.00    +0.135 C 
ATOM      2  C   UNL     1      -5.969  -2.086  -1.367  0.00  0.00    +0.251 C 
ATOM      3  O   UNL     1      -5.542  -2.758  -2.281  0.00  0.00    -0.272 OA
ATOM      4  N   UNL     1      -7.031  -1.256  -1.393  0.00  0.00    -0.221 N 
ATOM      5  C   UNL     1      -7.226  -0.668  -0.207  0.00  0.00    +0.310 C 
ATOM      6  O   UNL     1      -8.123   0.121   0.016  0.00  0.00    -0.252 OA
ATOM      7  N   UNL     1      -6.319  -1.049   0.711  0.00  0.00    -0.281 N 
ATOM      8  C   UNL     1      -5.481  -3.371   0.728  0.00  0.00    +0.047 C 
ATOM      9  H   UNL     1      -6.269  -0.752   1.633  0.00  0.00    +0.152 HD
ENDROOT
BRANCH   1  13
ATOM     10  C   UNL     1      -1.412  -0.526   0.013  0.00  0.00    -0.045 A 
ATOM     11  C   UNL     1      -2.259  -0.204   1.056  0.00  0.00    +0.004 A 
ATOM     12  C   UNL     1      -3.556  -0.683   1.066  0.00  0.00    +0.006 A 
ATOM     13  C   UNL     1      -4.006  -1.482   0.032  0.00  0.00    -0.015 A 
ATOM     14  C   UNL     1      -3.159  -1.803  -1.012  0.00  0.00    +0.006 A 
ATOM     15  C   UNL     1      -1.863  -1.321  -1.024  0.00  0.00    +0.004 A 
BRANCH  10  17
ATOM     16  C   UNL     1      -0.019   1.526   0.010  0.00  0.00    +0.012 C 
ATOM     17  C   UNL     1       0.002  -0.004   0.002  0.00  0.00    +0.013 C 
ATOM     18  C   UNL     1       0.742  -0.511   1.242  0.00  0.00    +0.012 C 
ENDBRANCH  10  17
ENDBRANCH   1  13
BRANCH   4  19
ATOM     19  C   UNL     1      -7.867  -1.026  -2.573  0.00  0.00    +0.154 C 
BRANCH  19  20
ATOM     20  C   UNL     1      -9.018  -2.034  -2.587  0.00  0.00    +0.162 C 
BRANCH  20  21
ATOM     21  C   UNL     1      -9.878  -1.798  -3.802  0.00  0.00    -0.017 A 
ATOM     22  C   UNL     1      -9.540  -2.375  -5.011  0.00  0.00    +0.009 A 
ATOM     23  C   UNL     1     -10.328  -2.159  -6.125  0.00  0.00    +0.039 A 
ATOM     24  C   UNL     1     -11.457  -1.364  -6.030  0.00  0.00    +0.123 A 
ATOM     25  C   UNL     1     -11.796  -0.786  -4.818  0.00  0.00    +0.039 A 
ATOM     26  C   UNL     1     -11.008  -1.008  -3.704  0.00  0.00    +0.009 A 
ATOM     27  F   UNL     1     -12.229  -1.152  -7.119  0.00  0.00    -0.205 F 
ENDBRANCH  20  21
BRANCH  20  28
ATOM     28  O   UNL     1      -8.488  -3.361  -2.630  0.00  0.00    -0.386 OA
ATOM     29  H   UNL     1      -7.941  -3.542  -3.406  0.00  0.00    +0.210 HD
ENDBRANCH  20  28
ENDBRANCH  19  20
ENDBRANCH   4  19
TORSDOF 6
