REMARK  Name = ZINC22063400
REMARK  5 active torsions:
REMARK  status: ('A' for Active; 'I' for Inactive)
REMARK    1  A    between atoms: C_8  and  C_28
REMARK    2  A    between atoms: N_10  and  C_12
REMARK    3  A    between atoms: C_12  and  C_13
REMARK    4  A    between atoms: N_15  and  C_16
REMARK    5  A    between atoms: C_21  and  N_22
REMARK                            x       y       z     vdW  Elec       q    Type
REMARK                         _______ _______ _______ _____ _____    ______ ____
ROOT
ATOM      1  C   UNL     1       1.368   1.029   0.477  0.00  0.00    +0.020 C 
ENDROOT
BRANCH   1  10
ATOM      2  C   UNL     1      -1.165   5.654   4.152  0.00  0.00    +0.000 A 
ATOM      3  C   UNL     1      -0.213   6.216   3.323  0.00  0.00    +0.000 A 
ATOM      4  C   UNL     1       0.520   5.411   2.474  0.00  0.00    +0.002 A 
ATOM      5  C   UNL     1       0.307   4.041   2.449  0.00  0.00    -0.061 A 
ATOM      6  C   UNL     1      -0.645   3.481   3.274  0.00  0.00    -0.047 A 
ATOM      7  C   UNL     1      -1.380   4.290   4.127  0.00  0.00    +0.004 A 
ATOM      8  C   UNL     1      -0.916   1.999   3.277  0.00  0.00    +0.029 C 
ATOM      9  C   UNL     1       0.241   1.254   2.610  0.00  0.00    +0.024 C 
ATOM     10  N   UNL     1       0.519   1.889   1.312  0.00  0.00    +0.396 N 
ATOM     11  C   UNL     1       1.139   3.203   1.512  0.00  0.00    -0.041 C 
ATOM     12  H   UNL     1      -0.433   2.034   0.781  0.00  0.00    -0.080 HD
BRANCH   9  13
ATOM     13  C   UNL     1      -0.140  -0.188   2.397  0.00  0.00    +0.197 C 
ATOM     14  O   UNL     1      -0.761  -0.511   1.407  0.00  0.00    -0.278 OA
ATOM     15  N   UNL     1       0.208  -1.119   3.307  0.00  0.00    -0.331 N 
ATOM     16  H   UNL     1      -0.070  -2.171   3.152  0.00  0.00    +0.145 HD
ATOM     17  H   UNL     1       0.771  -0.826   4.206  0.00  0.00    +0.145 HD
ENDBRANCH   9  13
ENDBRANCH   1  10
BRANCH   1  18
ATOM     18  C   UNL     1       1.309   1.502  -0.953  0.00  0.00    +0.201 C 
ATOM     19  O   UNL     1       0.627   2.461  -1.247  0.00  0.00    -0.278 OA
ATOM     20  N   UNL     1       2.014   0.859  -1.905  0.00  0.00    -0.286 N 
ATOM     21  H   UNL     1       2.560  -0.063  -1.657  0.00  0.00    +0.155 HD
BRANCH  20  22
ATOM     22  C   UNL     1       2.051   1.365  -3.211  0.00  0.00    +0.055 A 
ATOM     23  C   UNL     1       1.728   2.692  -3.452  0.00  0.00    +0.025 A 
ATOM     24  C   UNL     1       1.770   3.191  -4.740  0.00  0.00    +0.002 A 
ATOM     25  C   UNL     1       2.123   2.367  -5.793  0.00  0.00    +0.002 A 
ATOM     26  C   UNL     1       2.441   1.042  -5.563  0.00  0.00    +0.025 A 
ATOM     27  C   UNL     1       2.406   0.534  -4.273  0.00  0.00    +0.057 A 
BRANCH  27  28
ATOM     28  N   UNL     1       2.727  -0.809  -4.037  0.00  0.00    -0.270 N 
ATOM     29  C   UNL     1       4.080  -1.298  -3.747  0.00  0.00    +0.114 C 
ATOM     30  C   UNL     1       4.029  -2.822  -3.994  0.00  0.00    +0.029 C 
ATOM     31  C   UNL     1       2.531  -3.128  -3.765  0.00  0.00    +0.098 C 
ATOM     32  C   UNL     1       1.835  -1.814  -4.042  0.00  0.00    +0.220 C 
ATOM     33  O   UNL     1       0.646  -1.686  -4.243  0.00  0.00    -0.275 OA
ENDBRANCH  27  28
ENDBRANCH  20  22
ENDBRANCH   1  18
TORSDOF 5
