REMARK  Name = ZINC09379631
REMARK  16 active torsions:
REMARK  status: ('A' for Active; 'I' for Inactive)
REMARK    1  A    between atoms: C_1  and  C_2
REMARK    2  A    between atoms: C_2  and  O_3
REMARK    3  A    between atoms: O_3  and  C_4
REMARK    4  A    between atoms: C_7  and  C_10
REMARK    5  A    between atoms: C_12  and  C_22
REMARK    6  A    between atoms: C_13  and  O_21
REMARK    7  A    between atoms: N_16  and  C_17
REMARK    8  A    between atoms: C_17  and  C_18
REMARK    9  A    between atoms: C_18  and  N_72
REMARK   10  A    between atoms: C_19  and  N_72
REMARK   11  A    between atoms: C_20  and  N_72
REMARK   12  A    between atoms: C_22  and  C_24
REMARK   13  A    between atoms: C_27  and  O_31
REMARK   14  A    between atoms: C_28  and  C_30
REMARK   15  A    between atoms: O_31  and  C_32
REMARK   16  A    between atoms: C_32  and  C_33
REMARK                            x       y       z     vdW  Elec       q    Type
REMARK                         _______ _______ _______ _____ _____    ______ ____
ROOT
ATOM      1  C   UNL     1       9.570  -3.938   0.382  0.00  0.00    +0.144 C 
ATOM      2  C   UNL     1       9.851  -4.097  -1.094  0.00  0.00    +0.071 C 
ATOM      3  C   UNL     1      11.066  -4.684  -1.199  0.00  0.00    +0.188 C 
ATOM      4  C   UNL     1      11.605  -4.929   0.155  0.00  0.00    +0.282 C 
ATOM      5  O   UNL     1      12.680  -5.444   0.395  0.00  0.00    -0.267 OA
ATOM      6  N   UNL     1      10.732  -4.498   1.083  0.00  0.00    -0.285 N 
ENDROOT
BRANCH   1  10
ATOM      7  C   UNL     1       6.041  -6.101   1.446  0.00  0.00    +0.121 A 
ATOM      8  C   UNL     1       5.972  -4.739   1.195  0.00  0.00    +0.046 A 
ATOM      9  C   UNL     1       7.114  -4.042   0.851  0.00  0.00    +0.009 A 
ATOM     10  C   UNL     1       8.326  -4.701   0.758  0.00  0.00    -0.022 A 
ATOM     11  C   UNL     1       8.397  -6.060   1.002  0.00  0.00    +0.009 A 
ATOM     12  C   UNL     1       7.258  -6.761   1.352  0.00  0.00    +0.046 A 
BRANCH   7  13
ATOM     13  O   UNL     1       4.919  -6.790   1.784  0.00  0.00    -0.492 OA
BRANCH  13  15
ATOM     14  C   UNL     1       3.706  -8.789   2.392  0.00  0.00    +0.048 C 
ATOM     15  C   UNL     1       5.066  -8.190   2.029  0.00  0.00    +0.225 C 
ENDBRANCH  13  15
ENDBRANCH   7  13
ENDBRANCH   1  10
BRANCH   3  16
ATOM     16  O   UNL     1      11.688  -4.997  -2.359  0.00  0.00    -0.502 OA
ATOM     17  H   UNL     1      12.571  -5.421  -2.160  0.00  0.00    +0.292 HD
ENDBRANCH   3  16
BRANCH   2  18
ATOM     18  C   UNL     1       8.979  -3.688  -2.199  0.00  0.00    +0.195 C 
ATOM     19  O   UNL     1       8.474  -4.530  -2.919  0.00  0.00    -0.287 OA
BRANCH  18  20
ATOM     20  C   UNL     1       8.714  -2.256  -2.439  0.00  0.00    +0.023 A 
ATOM     21  C   UNL     1       9.227  -1.292  -1.566  0.00  0.00    +0.015 A 
ATOM     22  C   UNL     1       8.981   0.043  -1.796  0.00  0.00    +0.046 A 
ATOM     23  C   UNL     1       8.214   0.432  -2.889  0.00  0.00    +0.124 A 
ATOM     24  C   UNL     1       7.703  -0.523  -3.760  0.00  0.00    -0.008 A 
ATOM     25  C   UNL     1       7.948  -1.860  -3.540  0.00  0.00    +0.018 A 
ATOM     26  C   UNL     1       6.878  -0.095  -4.946  0.00  0.00    +0.047 C 
BRANCH  23  27
ATOM     27  O   UNL     1       7.970   1.748  -3.109  0.00  0.00    -0.487 OA
BRANCH  27  28
ATOM     28  C   UNL     1       8.525   2.677  -2.175  0.00  0.00    +0.264 C 
BRANCH  28  29
ATOM     29  C   UNL     1       8.151   4.080  -2.578  0.00  0.00    -0.010 A 
ATOM     30  C   UNL     1       6.987   4.649  -2.099  0.00  0.00    +0.007 A 
ATOM     31  C   UNL     1       6.644   5.937  -2.469  0.00  0.00    +0.000 A 
ATOM     32  C   UNL     1       7.466   6.654  -3.318  0.00  0.00    +0.000 A 
ATOM     33  C   UNL     1       8.631   6.084  -3.797  0.00  0.00    +0.000 A 
ATOM     34  C   UNL     1       8.974   4.797  -3.427  0.00  0.00    +0.007 A 
ENDBRANCH  28  29
ENDBRANCH  27  28
ENDBRANCH  23  27
ENDBRANCH  18  20
ENDBRANCH   2  18
BRANCH   6  35
ATOM     35  C   UNL     1      10.911  -4.568   2.535  0.00  0.00    +0.090 C 
BRANCH  35  36
ATOM     36  C   UNL     1      11.600  -3.293   3.026  0.00  0.00    -0.060 C 
BRANCH  36  39
ATOM     37  C   UNL     1      12.721  -4.431   4.846  0.00  0.00    -0.097 C 
ATOM     38  C   UNL     1      12.218  -2.069   5.022  0.00  0.00    -0.097 C 
ATOM     39  N   UNL     1      11.754  -3.370   4.494  0.00  0.00    +0.377 N 
ATOM     40  H   UNL     1      10.845  -3.595   4.914  0.00  0.00    -0.083 HD
ENDBRANCH  36  39
ENDBRANCH  35  36
ENDBRANCH   6  35
TORSDOF 12
