REMARK  Name = ZINC65182611
REMARK  10 active torsions:
REMARK  status: ('A' for Active; 'I' for Inactive)
REMARK    1  A    between atoms: C_1  and  C_2
REMARK    2  A    between atoms: C_7  and  C_13
REMARK    3  A    between atoms: C_9  and  C_12
REMARK    4  A    between atoms: C_16  and  C_19
REMARK    5  A    between atoms: C_19  and  C_20
REMARK    6  A    between atoms: C_20  and  N_21
REMARK    7  A    between atoms: N_21  and  C_22
REMARK    8  A    between atoms: C_23  and  C_25
REMARK    9  A    between atoms: C_28  and  C_32
REMARK   10  A    between atoms: C_29  and  C_31
REMARK                            x       y       z     vdW  Elec       q    Type
REMARK                         _______ _______ _______ _____ _____    ______ ____
ROOT
ATOM      1  C   UNL     1       1.511  -5.164   1.922  0.00  0.00    +0.318 C 
ATOM      2  N   UNL     1       1.542  -6.415   1.147  0.00  0.00    -0.291 N 
ATOM      3  C   UNL     1       1.510  -7.447   2.054  0.00  0.00    +0.139 C 
ATOM      4  N   UNL     1       1.465  -7.012   3.261  0.00  0.00    -0.072 NA
ATOM      5  O   UNL     1       1.463  -5.594   3.292  0.00  0.00    -0.367 OA
ATOM      6  H   UNL     1       1.577  -6.495   0.180  0.00  0.00    +0.151 HD
ENDROOT
BRANCH   1  13
ATOM      7  C   UNL     1       0.340   1.579   0.183  0.00  0.00    +0.044 C 
ATOM      8  C   UNL     1       0.314   0.072   0.157  0.00  0.00    -0.050 A 
ATOM      9  C   UNL     1       0.277  -0.589  -1.078  0.00  0.00    +0.005 A 
ATOM     10  C   UNL     1       0.252  -1.934  -1.185  0.00  0.00    +0.026 A 
ATOM     11  C   UNL     1       0.261  -2.748  -0.019  0.00  0.00    +0.043 A 
ATOM     12  N   UNL     1       0.241  -4.050   0.137  0.00  0.00    -0.373 N 
ATOM     13  C   UNL     1       0.264  -4.349   1.573  0.00  0.00    +0.168 C 
ATOM     14  C   UNL     1       0.302  -3.010   2.275  0.00  0.00    -0.036 C 
ATOM     15  C   UNL     1       0.299  -2.074   1.298  0.00  0.00    -0.001 A 
ATOM     16  C   UNL     1       0.331  -0.607   1.327  0.00  0.00    +0.013 A 
ATOM     17  C   UNL     1       0.336  -2.767   3.762  0.00  0.00    +0.042 C 
ATOM     18  H   UNL     1       0.214  -4.705  -0.577  0.00  0.00    +0.160 HD
ENDBRANCH   1  13
BRANCH   3  19
ATOM     19  C   UNL     1       1.526  -8.906   1.679  0.00  0.00    +0.094 C 
BRANCH  19  20
ATOM     20  C   UNL     1       1.481  -9.760   2.949  0.00  0.00    +0.115 C 
BRANCH  20  21
ATOM     21  N   UNL     1       1.496 -11.178   2.584  0.00  0.00    -0.300 N 
ATOM     22  C   UNL     1       2.772 -11.886   2.448  0.00  0.00    +0.132 C 
ATOM     23  C   UNL     1       0.337 -11.833   2.374  0.00  0.00    +0.246 C 
ATOM     24  O   UNL     1      -0.715 -11.224   2.382  0.00  0.00    -0.270 OA
BRANCH  23  25
ATOM     25  C   UNL     1       0.345 -13.292   2.134  0.00  0.00    +0.037 A 
ATOM     26  C   UNL     1       1.271 -14.105   2.788  0.00  0.00    +0.013 A 
ATOM     27  C   UNL     1       1.273 -15.466   2.560  0.00  0.00    +0.004 A 
ATOM     28  C   UNL     1       0.358 -16.024   1.684  0.00  0.00    -0.047 A 
ATOM     29  C   UNL     1      -0.562 -15.224   1.032  0.00  0.00    -0.047 A 
ATOM     30  C   UNL     1      -0.578 -13.862   1.256  0.00  0.00    +0.016 A 
ATOM     31  C   UNL     1      -1.554 -15.841   0.080  0.00  0.00    +0.044 C 
ATOM     32  C   UNL     1       0.367 -17.511   1.439  0.00  0.00    +0.044 C 
ENDBRANCH  23  25
ENDBRANCH  20  21
ENDBRANCH  19  20
ENDBRANCH   3  19
TORSDOF 5
