REMARK  Name = ZINC20480257
REMARK  3 active torsions:
REMARK  status: ('A' for Active; 'I' for Inactive)
REMARK    1  A    between atoms: C_5  and  N_7
REMARK    2  A    between atoms: C_8  and  C_10
REMARK    3  A    between atoms: C_13  and  O_17
REMARK                            x       y       z     vdW  Elec       q    Type
REMARK                         _______ _______ _______ _____ _____    ______ ____
ROOT
ATOM      1  N   UNL     1      -1.191   1.867   0.018  0.00  0.00    -0.286 N 
ATOM      2  C   UNL     1      -0.015   1.208   0.014  0.00  0.00    +0.203 C 
ATOM      3  O   UNL     1       0.002  -0.004   0.003  0.00  0.00    -0.277 OA
ATOM      4  H   UNL     1      -1.207   2.963   0.102  0.00  0.00    +0.155 HD
ENDROOT
BRANCH   1   9
ATOM      5  C   UNL     1      -3.696  -0.798   0.395  0.00  0.00    +0.002 A 
ATOM      6  C   UNL     1      -4.765  -0.252  -0.291  0.00  0.00    +0.001 A 
ATOM      7  C   UNL     1      -4.651   0.996  -0.875  0.00  0.00    +0.016 A 
ATOM      8  C   UNL     1      -3.469   1.704  -0.769  0.00  0.00    +0.035 A 
ATOM      9  C   UNL     1      -2.391   1.155  -0.086  0.00  0.00    +0.047 A 
ATOM     10  C   UNL     1      -2.510  -0.099   0.499  0.00  0.00    +0.024 A 
ATOM     11  I   UNL     1      -3.299   3.599  -1.646  0.00  0.00    -0.042 I 
ENDBRANCH   1   9
BRANCH   2  12
ATOM     12  C   UNL     1       1.280   1.979   0.017  0.00  0.00    +0.019 C 
ATOM     13  C   UNL     1       1.647   2.438  -1.417  0.00  0.00    +0.023 C 
ATOM     14  C   UNL     1       3.183   2.610  -1.341  0.00  0.00    +0.097 C 
ATOM     15  C   UNL     1       3.628   1.746  -0.146  0.00  0.00    -0.050 C 
ATOM     16  N   UNL     1       2.414   1.097   0.396  0.00  0.00    +0.388 N 
ATOM     17  H   UNL     1       2.463   1.013   1.491  0.00  0.00    -0.085 HD
ATOM     18  H   UNL     1       2.265   0.100  -0.043  0.00  0.00    -0.085 HD
BRANCH  14  19
ATOM     19  O   UNL     1       3.516   3.981  -1.112  0.00  0.00    -0.394 OA
ATOM     20  H   UNL     1       4.570   4.285  -1.031  0.00  0.00    +0.210 HD
ENDBRANCH  14  19
ENDBRANCH   2  12
TORSDOF 3
