REMARK  Name = ZINC01280390
REMARK  13 active torsions:
REMARK  status: ('A' for Active; 'I' for Inactive)
REMARK    1  A    between atoms: C_1  and  C_2
REMARK    2  A    between atoms: C_4  and  O_33
REMARK    3  A    between atoms: C_5  and  C_32
REMARK    4  A    between atoms: C_6  and  C_31
REMARK    5  A    between atoms: C_7  and  C_8
REMARK    6  A    between atoms: C_9  and  C_10
REMARK    7  A    between atoms: C_10  and  C_12
REMARK    8  A    between atoms: C_12  and  C_13
REMARK    9  A    between atoms: C_20  and  O_21
REMARK   10  A    between atoms: O_21  and  C_22
REMARK   11  A    between atoms: N_28  and  C_29
REMARK   12  A    between atoms: N_28  and  C_30
REMARK   13  A    between atoms: O_33  and  C_34
REMARK                            x       y       z     vdW  Elec       q    Type
REMARK                         _______ _______ _______ _____ _____    ______ ____
ROOT
ATOM      1  C   UNL     1      -3.487   2.627  -0.081  0.00  0.00    -0.024 C 
ATOM      2  C   UNL     1      -2.581   3.711   0.441  0.00  0.00    -0.011 A 
ATOM      3  C   UNL     1      -2.897   5.047   0.311  0.00  0.00    -0.040 A 
ATOM      4  C   UNL     1      -2.041   6.015   0.811  0.00  0.00    +0.053 A 
ATOM      5  C   UNL     1      -0.862   5.652   1.441  0.00  0.00    +0.170 A 
ATOM      6  C   UNL     1      -0.540   4.306   1.577  0.00  0.00    +0.208 A 
ATOM      7  C   UNL     1      -1.398   3.340   1.072  0.00  0.00    +0.167 A 
ATOM      8  O   UNL     1       0.656   4.207   2.231  0.00  0.00    -0.449 OA
ATOM      9  C   UNL     1       0.858   5.488   2.858  0.00  0.00    +0.467 C 
ATOM     10  O   UNL     1       0.131   6.399   2.006  0.00  0.00    -0.452 OA
ATOM     11  C   UNL     1      -4.167   5.490  -0.370  0.00  0.00    +0.017 C 
ATOM     12  C   UNL     1      -5.137   4.312  -0.475  0.00  0.00    -0.070 C 
ATOM     13  N   UNL     1      -4.424   3.170  -1.068  0.00  0.00    +0.381 N 
ATOM     14  C   UNL     1      -3.684   3.616  -2.256  0.00  0.00    -0.091 C 
ATOM     15  C   UNL     1      -5.390   2.132  -1.452  0.00  0.00    -0.091 C 
ENDROOT
BRANCH   7  16
ATOM     16  O   UNL     1      -1.084   2.022   1.200  0.00  0.00    -0.491 OA
ATOM     17  C   UNL     1      -1.597   1.341   2.346  0.00  0.00    +0.277 C 
ENDBRANCH   7  16
BRANCH   1  18
ATOM     18  C   UNL     1      -2.640   1.535  -0.738  0.00  0.00    +0.069 C 
BRANCH  18  19
ATOM     19  C   UNL     1      -1.583   2.170  -1.603  0.00  0.00    +0.155 C 
ATOM     20  O   UNL     1      -1.424   3.374  -1.582  0.00  0.00    -0.293 OA
BRANCH  19  22
ATOM     21  C   UNL     1       0.170   1.941  -3.216  0.00  0.00    +0.012 C 
ATOM     22  C   UNL     1      -0.781   1.369  -2.438  0.00  0.00    +0.047 C 
BRANCH  21  29
ATOM     23  C   UNL     1       1.497  -0.379  -2.110  0.00  0.00    +0.044 C 
ATOM     24  C   UNL     1       1.656  -0.022  -3.565  0.00  0.00    -0.040 A 
ATOM     25  C   UNL     1       2.435  -0.805  -4.386  0.00  0.00    +0.049 A 
ATOM     26  C   UNL     1       2.586  -0.473  -5.728  0.00  0.00    +0.124 A 
ATOM     27  C   UNL     1       1.948   0.647  -6.249  0.00  0.00    -0.005 A 
ATOM     28  C   UNL     1       1.163   1.434  -5.439  0.00  0.00    -0.037 A 
ATOM     29  C   UNL     1       1.006   1.105  -4.086  0.00  0.00    -0.019 A 
ATOM     30  C   UNL     1       0.473   2.649  -6.005  0.00  0.00    +0.045 C 
ATOM     31  C   UNL     1       2.118   1.000  -7.705  0.00  0.00    +0.048 C 
BRANCH  26  32
ATOM     32  O   UNL     1       3.360  -1.246  -6.532  0.00  0.00    -0.495 OA
ATOM     33  C   UNL     1       3.986  -2.382  -5.933  0.00  0.00    +0.277 C 
ENDBRANCH  26  32
ENDBRANCH  21  29
ENDBRANCH  19  22
ENDBRANCH  18  19
ENDBRANCH   1  18
TORSDOF 6
