REMARK  Name = ZINC05343186
REMARK  8 active torsions:
REMARK  status: ('A' for Active; 'I' for Inactive)
REMARK    1  A    between atoms: C_1  and  C_2
REMARK    2  A    between atoms: C_5  and  C_8
REMARK    3  A    between atoms: C_11  and  C_22
REMARK    4  A    between atoms: N_18  and  C_19
REMARK    5  A    between atoms: C_19  and  C_20
REMARK    6  A    between atoms: C_20  and  O_21
REMARK    7  A    between atoms: C_25  and  C_29
REMARK    8  A    between atoms: C_27  and  O_28
REMARK                            x       y       z     vdW  Elec       q    Type
REMARK                         _______ _______ _______ _____ _____    ______ ____
ROOT
ATOM      1  C   UNL     1       0.097  -3.967   0.005  0.00  0.00    +0.141 C 
ATOM      2  C   UNL     1      -1.282  -4.518   0.247  0.00  0.00    +0.035 A 
ATOM      3  C   UNL     1      -2.603  -4.480  -0.063  0.00  0.00    +0.075 A 
ATOM      4  N   UNL     1      -3.215  -5.421   0.714  0.00  0.00    -0.276 N 
ATOM      5  H   UNL     1      -4.165  -5.618   0.705  0.00  0.00    +0.189 HD
ATOM      6  N   UNL     1      -2.346  -6.008   1.457  0.00  0.00    -0.168 NA
ATOM      7  C   UNL     1      -1.143  -5.518   1.236  0.00  0.00    +0.153 A 
ATOM      8  C   UNL     1       0.282  -5.594   1.605  0.00  0.00    +0.268 C 
ATOM      9  O   UNL     1       0.744  -6.356   2.433  0.00  0.00    -0.268 OA
ATOM     10  N   UNL     1       1.000  -4.703   0.898  0.00  0.00    -0.283 N 
ENDROOT
BRANCH   3  11
ATOM     11  C   UNL     1      -3.254  -3.591  -1.051  0.00  0.00    +0.043 A 
ATOM     12  C   UNL     1      -4.170  -2.628  -0.630  0.00  0.00    +0.034 A 
ATOM     13  C   UNL     1      -4.774  -1.800  -1.556  0.00  0.00    +0.045 A 
ATOM     14  C   UNL     1      -4.472  -1.924  -2.902  0.00  0.00    -0.029 A 
ATOM     15  C   UNL     1      -3.565  -2.875  -3.330  0.00  0.00    +0.050 A 
ATOM     16  C   UNL     1      -2.947  -3.708  -2.411  0.00  0.00    +0.126 A 
ATOM     17  C   UNL     1      -5.137  -1.017  -3.906  0.00  0.00    +0.045 C 
ATOM     18 CL   UNL     1      -5.915  -0.602  -1.032  0.00  0.00    -0.083 Cl
BRANCH  16  19
ATOM     19  O   UNL     1      -2.051  -4.639  -2.830  0.00  0.00    -0.506 OA
ATOM     20  H   UNL     1      -2.446  -5.494  -3.049  0.00  0.00    +0.292 HD
ENDBRANCH  16  19
ENDBRANCH   3  11
BRANCH   1  25
ATOM     21  C   UNL     1       0.227   1.673   1.259  0.00  0.00    +0.044 C 
ATOM     22  C   UNL     1       0.193   0.202   0.932  0.00  0.00    -0.050 A 
ATOM     23  C   UNL     1       0.251  -0.215  -0.385  0.00  0.00    +0.004 A 
ATOM     24  C   UNL     1       0.220  -1.564  -0.685  0.00  0.00    +0.006 A 
ATOM     25  C   UNL     1       0.132  -2.496   0.332  0.00  0.00    -0.022 A 
ATOM     26  C   UNL     1       0.076  -2.080   1.649  0.00  0.00    +0.006 A 
ATOM     27  C   UNL     1       0.111  -0.731   1.949  0.00  0.00    +0.004 A 
ENDBRANCH   1  25
BRANCH  10  28
ATOM     28  C   UNL     1       2.447  -4.500   1.002  0.00  0.00    +0.137 C 
BRANCH  28  29
ATOM     29  C   UNL     1       3.169  -5.507   0.104  0.00  0.00    +0.175 C 
BRANCH  29  30
ATOM     30  O   UNL     1       2.856  -5.236  -1.264  0.00  0.00    -0.393 OA
ATOM     31  H   UNL     1       3.280  -5.837  -1.891  0.00  0.00    +0.209 HD
ENDBRANCH  29  30
ENDBRANCH  28  29
ENDBRANCH  10  28
TORSDOF 6
