REMARK  Name = ZINC36596630
REMARK  13 active torsions:
REMARK  status: ('A' for Active; 'I' for Inactive)
REMARK    1  A    between atoms: C_1  and  C_2
REMARK    2  A    between atoms: C_5  and  C_7
REMARK    3  A    between atoms: C_7  and  N_8
REMARK    4  A    between atoms: N_8  and  C_9
REMARK    5  A    between atoms: C_9  and  C_11
REMARK    6  A    between atoms: C_9  and  C_18
REMARK    7  A    between atoms: C_16  and  O_17
REMARK    8  A    between atoms: N_20  and  C_21
REMARK    9  A    between atoms: C_21  and  C_22
REMARK   10  A    between atoms: C_21  and  C_23
REMARK   11  A    between atoms: C_21  and  C_24
REMARK   12  A    between atoms: C_25  and  C_27
REMARK   13  A    between atoms: C_29  and  N_34
REMARK                            x       y       z     vdW  Elec       q    Type
REMARK                         _______ _______ _______ _____ _____    ______ ____
ROOT
ATOM      1  N   UNL     1       2.592  -4.325  -0.948  0.00  0.00    -0.274 N 
ATOM      2  C   UNL     1       2.783  -3.544   0.133  0.00  0.00    +0.252 C 
ATOM      3  O   UNL     1       2.022  -3.619   1.079  0.00  0.00    -0.270 OA
ENDROOT
BRANCH   2   4
ATOM      4  C   UNL     1       3.914  -2.598   0.171  0.00  0.00    +0.086 A 
ATOM      5  C   UNL     1       4.463  -2.112  -1.019  0.00  0.00    +0.049 A 
ATOM      6  C   UNL     1       5.519  -1.228  -0.977  0.00  0.00    +0.127 A 
ATOM      7  C   UNL     1       6.042  -0.820   0.239  0.00  0.00    +0.036 A 
ATOM      8  C   UNL     1       5.510  -1.294   1.422  0.00  0.00    +0.054 A 
ATOM      9  C   UNL     1       4.442  -2.179   1.399  0.00  0.00    +0.191 A 
ATOM     10  O   UNL     1       3.914  -2.640   2.561  0.00  0.00    -0.287 OA
BRANCH   6  11
ATOM     11  N   UNL     1       6.100  -0.714  -2.238  0.00  0.00    +0.056 N 
ATOM     12  O   UNL     1       5.646  -1.069  -3.301  0.00  0.00    -0.126 OA
ATOM     13  O   UNL     1       7.027   0.061  -2.205  0.00  0.00    -0.126 OA
ENDBRANCH   6  11
ENDBRANCH   2   4
BRANCH   1  14
ATOM     14  C   UNL     1       1.361  -5.108  -1.080  0.00  0.00    +0.183 C 
BRANCH  14  19
ATOM     15  C   UNL     1      -2.292  -1.866  -2.341  0.00  0.00    +0.086 C 
ATOM     16  C   UNL     1      -1.227  -2.927  -2.451  0.00  0.00    +0.102 A 
ATOM     17  C   UNL     1      -0.861  -3.560  -3.580  0.00  0.00    +0.045 A 
ATOM     18  C   UNL     1       0.163  -4.468  -3.226  0.00  0.00    +0.046 A 
ATOM     19  C   UNL     1       0.361  -4.337  -1.902  0.00  0.00    +0.122 A 
ATOM     20  O   UNL     1      -0.480  -3.397  -1.439  0.00  0.00    -0.463 OA
ENDBRANCH  14  19
ENDBRANCH   1  14
BRANCH   1  21
ATOM     21  C   UNL     1       3.617  -4.392  -1.993  0.00  0.00    +0.196 C 
BRANCH  21  22
ATOM     22  C   UNL     1       3.294  -3.397  -3.078  0.00  0.00    +0.023 A 
ATOM     23  C   UNL     1       2.289  -2.468  -2.887  0.00  0.00    +0.009 A 
ATOM     24  C   UNL     1       1.992  -1.556  -3.882  0.00  0.00    +0.001 A 
ATOM     25  C   UNL     1       2.700  -1.569  -5.070  0.00  0.00    +0.004 A 
ATOM     26  C   UNL     1       3.706  -2.495  -5.266  0.00  0.00    +0.046 A 
ATOM     27  C   UNL     1       4.009  -3.409  -4.266  0.00  0.00    +0.122 A 
BRANCH  27  28
ATOM     28  O   UNL     1       5.003  -4.317  -4.454  0.00  0.00    -0.506 OA
ATOM     29  H   UNL     1       4.707  -5.147  -4.853  0.00  0.00    +0.292 HD
ENDBRANCH  27  28
ENDBRANCH  21  22
BRANCH  21  30
ATOM     30  C   UNL     1       4.963  -4.067  -1.398  0.00  0.00    +0.239 C 
ATOM     31  O   UNL     1       5.156  -4.225  -0.211  0.00  0.00    -0.273 OA
ATOM     32  N   UNL     1       5.953  -3.599  -2.185  0.00  0.00    -0.309 N 
ATOM     33  H   UNL     1       5.744  -3.221  -3.053  0.00  0.00    +0.149 HD
BRANCH  32  34
ATOM     34  C   UNL     1       7.343  -3.663  -1.728  0.00  0.00    +0.026 C 
ATOM     35  C   UNL     1       7.739  -5.123  -1.499  0.00  0.00    +0.031 C 
ATOM     36  C   UNL     1       8.257  -3.047  -2.789  0.00  0.00    +0.031 C 
ATOM     37  C   UNL     1       7.486  -2.885  -0.419  0.00  0.00    +0.031 C 
ENDBRANCH  32  34
ENDBRANCH  21  30
ENDBRANCH   1  21
TORSDOF 9
