REMARK  Name = ZINC35341201
REMARK  4 active torsions:
REMARK  status: ('A' for Active; 'I' for Inactive)
REMARK    1  A    between atoms: C_3  and  C_6
REMARK    2  A    between atoms: C_6  and  N_7
REMARK    3  A    between atoms: N_7  and  C_8
REMARK    4  A    between atoms: C_13  and  N_14
REMARK                            x       y       z     vdW  Elec       q    Type
REMARK                         _______ _______ _______ _____ _____    ______ ____
ROOT
ATOM      1  C   UNL     1       5.481   0.573   1.589  0.00  0.00    +0.049 A 
ATOM      2  C   UNL     1       6.372   0.564   0.527  0.00  0.00    +0.030 A 
ATOM      3  C   UNL     1       7.733   0.530   0.765  0.00  0.00    -0.024 A 
ATOM      4  C   UNL     1       8.213   0.506   2.068  0.00  0.00    +0.038 A 
ATOM      5  C   UNL     1       7.325   0.517   3.135  0.00  0.00    +0.048 A 
ATOM      6  C   UNL     1       5.960   0.556   2.899  0.00  0.00    +0.047 A 
ATOM      7  N   UNL     1       9.593   0.473   2.304  0.00  0.00    -0.285 N 
ATOM      8  C   UNL     1      10.459   0.831   1.338  0.00  0.00    +0.218 C 
ATOM      9  O   UNL     1      11.651   0.782   1.553  0.00  0.00    -0.275 OA
ATOM     10  C   UNL     1       9.963   1.292  -0.006  0.00  0.00    +0.101 C 
ATOM     11  C   UNL     1       8.702   0.519  -0.390  0.00  0.00    +0.046 C 
ATOM     12  H   UNL     1       9.927   0.188   3.169  0.00  0.00    +0.155 HD
ENDROOT
BRANCH   6  13
ATOM     13  N   UNL     1       5.062   0.572   3.974  0.00  0.00    -0.356 N 
ATOM     14  H   UNL     1       4.107   0.595   3.808  0.00  0.00    +0.142 HD
ATOM     15  H   UNL     1       5.396   0.559   4.885  0.00  0.00    +0.142 HD
ENDBRANCH   6  13
BRANCH   1  16
ATOM     16  N   UNL     1       4.101   0.607   1.347  0.00  0.00    -0.335 N 
ATOM     17  H   UNL     1       3.478   0.617   2.090  0.00  0.00    +0.147 HD
BRANCH  16  18
ATOM     18  C   UNL     1       3.599   0.625  -0.029  0.00  0.00    +0.176 C 
BRANCH  18  21
ATOM     19  C   UNL     1      -0.016   1.341   0.009  0.00  0.00    +0.041 A 
ATOM     20  C   UNL     1       1.331   1.769  -0.001  0.00  0.00    +0.046 A 
ATOM     21  C   UNL     1       2.092   0.660  -0.014  0.00  0.00    +0.122 A 
ATOM     22  O   UNL     1       1.282  -0.411  -0.012  0.00  0.00    -0.466 OA
ATOM     23  C   UNL     1       0.002  -0.004   0.002  0.00  0.00    +0.195 A 
ENDBRANCH  18  21
ENDBRANCH  16  18
ENDBRANCH   1  16
TORSDOF 4
