REMARK  Name = ZINC02201117
REMARK  13 active torsions:
REMARK  status: ('A' for Active; 'I' for Inactive)
REMARK    1  A    between atoms: C_1  and  C_2
REMARK    2  A    between atoms: C_2  and  C_3
REMARK    3  A    between atoms: C_2  and  C_4
REMARK    4  A    between atoms: C_4  and  C_5
REMARK    5  A    between atoms: C_11  and  N_15
REMARK    6  A    between atoms: N_15  and  C_16
REMARK    7  A    between atoms: C_16  and  C_17
REMARK    8  A    between atoms: C_17  and  C_18
REMARK    9  A    between atoms: C_18  and  N_63
REMARK   10  A    between atoms: C_19  and  N_63
REMARK   11  A    between atoms: C_20  and  N_63
REMARK   12  A    between atoms: C_25  and  C_28
REMARK   13  A    between atoms: C_25  and  C_29
REMARK                            x       y       z     vdW  Elec       q    Type
REMARK                         _______ _______ _______ _____ _____    ______ ____
ROOT
ATOM      1  C   UNL     1      -3.165   3.255   7.145  0.00  0.00    +0.051 A 
ATOM      2  C   UNL     1      -2.207   2.604   7.908  0.00  0.00    +0.004 A 
ATOM      3  C   UNL     1      -1.199   1.912   7.271  0.00  0.00    -0.023 A 
ATOM      4  C   UNL     1      -1.185   1.899   5.877  0.00  0.00    +0.070 A 
ATOM      5  C   UNL     1      -0.308   1.295   4.861  0.00  0.00    +0.124 A 
ATOM      6  C   UNL     1      -0.853   1.667   3.626  0.00  0.00    +0.196 A 
ATOM      7  C   UNL     1      -0.208   1.223   2.466  0.00  0.00    +0.165 A 
ATOM      8  N   UNL     1       0.880   0.469   2.588  0.00  0.00    -0.217 NA
ATOM      9  C   UNL     1       1.361   0.147   3.774  0.00  0.00    +0.224 A 
ATOM     10  N   UNL     1       0.788   0.542   4.892  0.00  0.00    -0.231 NA
ATOM     11  O   UNL     1      -1.950   2.421   3.846  0.00  0.00    -0.432 OA
ATOM     12  C   UNL     1      -2.184   2.582   5.166  0.00  0.00    +0.231 A 
ATOM     13  N   UNL     1      -3.132   3.229   5.830  0.00  0.00    -0.217 NA
ATOM     14  C   UNL     1      -0.136   1.180   8.043  0.00  0.00    +0.070 C 
ATOM     15  C   UNL     1      -0.119   1.673   9.492  0.00  0.00    +0.068 C 
ATOM     16  O   UNL     1      -1.460   1.662   9.992  0.00  0.00    -0.369 OA
ATOM     17  C   UNL     1      -2.287   2.670   9.409  0.00  0.00    +0.197 C 
ATOM     18  C   UNL     1       0.754   0.745  10.340  0.00  0.00    +0.041 C 
ATOM     19  C   UNL     1       0.442   3.095   9.544  0.00  0.00    +0.041 C 
ENDROOT
BRANCH   7  20
ATOM     20  N   UNL     1      -0.698   1.558   1.213  0.00  0.00    -0.326 N 
ATOM     21  H   UNL     1      -1.495   2.106   1.135  0.00  0.00    +0.148 HD
BRANCH  20  22
ATOM     22  C   UNL     1      -0.013   1.086   0.008  0.00  0.00    +0.101 C 
BRANCH  22  23
ATOM     23  C   UNL     1      -0.753   1.593  -1.232  0.00  0.00    +0.000 C 
BRANCH  23  24
ATOM     24  C   UNL     1      -0.037   1.099  -2.490  0.00  0.00    -0.078 C 
BRANCH  24  27
ATOM     25  C   UNL     1      -0.664   3.049  -3.782  0.00  0.00    -0.097 C 
ATOM     26  C   UNL     1      -0.235   0.944  -4.898  0.00  0.00    -0.097 C 
ATOM     27  N   UNL     1      -0.775   1.579  -3.678  0.00  0.00    +0.376 N 
ATOM     28  H   UNL     1      -1.765   1.325  -3.580  0.00  0.00    -0.083 HD
ENDBRANCH  24  27
ENDBRANCH  23  24
ENDBRANCH  22  23
ENDBRANCH  20  22
ENDBRANCH   7  20
BRANCH   1  29
ATOM     29  C   UNL     1      -4.271   4.009   7.838  0.00  0.00    +0.059 C 
BRANCH  29  31
ATOM     30  C   UNL     1      -3.649   6.157   6.722  0.00  0.00    +0.007 C 
ATOM     31  C   UNL     1      -3.833   5.457   8.070  0.00  0.00    -0.011 C 
ATOM     32  C   UNL     1      -4.902   6.189   8.884  0.00  0.00    +0.007 C 
ENDBRANCH  29  31
ENDBRANCH   1  29
TORSDOF 7
