REMARK  Name = ZINC36345805
REMARK  19 active torsions:
REMARK  status: ('A' for Active; 'I' for Inactive)
REMARK    1  A    between atoms: C_1  and  C_2
REMARK    2  A    between atoms: C_2  and  C_3
REMARK    3  A    between atoms: C_4  and  C_22
REMARK    4  A    between atoms: C_5  and  O_14
REMARK    5  A    between atoms: N_6  and  C_8
REMARK    6  A    between atoms: O_14  and  C_15
REMARK    7  A    between atoms: C_22  and  N_23
REMARK    8  A    between atoms: N_23  and  C_24
REMARK    9  A    between atoms: N_23  and  C_34
REMARK   10  A    between atoms: C_24  and  C_25
REMARK   11  A    between atoms: C_25  and  C_27
REMARK   12  A    between atoms: C_25  and  O_33
REMARK   13  A    between atoms: C_27  and  O_28
REMARK   14  A    between atoms: O_28  and  C_29
REMARK   15  A    between atoms: C_29  and  C_30
REMARK   16  A    between atoms: C_30  and  C_31
REMARK   17  A    between atoms: C_30  and  C_32
REMARK   18  A    between atoms: C_34  and  C_35
REMARK   19  A    between atoms: C_34  and  C_36
REMARK                            x       y       z     vdW  Elec       q    Type
REMARK                         _______ _______ _______ _____ _____    ______ ____
ROOT
ATOM      1  C   UNL     1       0.846  -0.628   2.513  0.00  0.00    +0.068 A 
ATOM      2  C   UNL     1       1.935  -0.732   1.642  0.00  0.00    +0.021 A 
ATOM      3  C   UNL     1       2.936  -1.377   2.300  0.00  0.00    +0.225 A 
ATOM      4  N   UNL     1       2.483  -1.668   3.549  0.00  0.00    -0.200 N 
ATOM      5  N   UNL     1       1.173  -1.182   3.653  0.00  0.00    -0.168 NA
ENDROOT
BRANCH   4   6
ATOM      6  C   UNL     1       3.200  -2.331   4.554  0.00  0.00    +0.069 A 
ATOM      7  C   UNL     1       3.961  -3.450   4.242  0.00  0.00    +0.028 A 
ATOM      8  C   UNL     1       4.667  -4.102   5.235  0.00  0.00    +0.002 A 
ATOM      9  C   UNL     1       4.615  -3.642   6.538  0.00  0.00    +0.000 A 
ATOM     10  C   UNL     1       3.857  -2.528   6.851  0.00  0.00    +0.002 A 
ATOM     11  C   UNL     1       3.155  -1.868   5.862  0.00  0.00    +0.028 A 
ENDBRANCH   4   6
BRANCH   1  13
ATOM     12  C   UNL     1      -0.421   1.503   2.554  0.00  0.00    +0.010 C 
ATOM     13  C   UNL     1      -0.478   0.017   2.194  0.00  0.00    +0.054 C 
ENDBRANCH   1  13
BRANCH   3  14
ATOM     14  O   UNL     1       4.162  -1.675   1.801  0.00  0.00    -0.438 OA
BRANCH  14  15
ATOM     15  C   UNL     1       4.293  -2.812   1.067  0.00  0.00    +0.131 A 
ATOM     16  C   UNL     1       3.171  -3.558   0.736  0.00  0.00    +0.049 A 
ATOM     17  C   UNL     1       3.306  -4.712  -0.010  0.00  0.00    +0.042 A 
ATOM     18  C   UNL     1       4.560  -5.125  -0.428  0.00  0.00    +0.124 A 
ATOM     19  C   UNL     1       5.681  -4.381  -0.098  0.00  0.00    +0.042 A 
ATOM     20  C   UNL     1       5.549  -3.224   0.643  0.00  0.00    +0.049 A 
ATOM     21  F   UNL     1       4.690  -6.254  -1.158  0.00  0.00    -0.205 F 
ENDBRANCH  14  15
ENDBRANCH   3  14
BRANCH   2  22
ATOM     22  C   UNL     1       1.990  -0.221   0.226  0.00  0.00    -0.035 C 
BRANCH  22  23
ATOM     23  N   UNL     1       2.377   1.197   0.232  0.00  0.00    +0.386 N 
ATOM     24  H   UNL     1       1.753   1.713   0.833  0.00  0.00    -0.081 HD
BRANCH  23  25
ATOM     25  C   UNL     1       2.295   1.732  -1.134  0.00  0.00    -0.074 C 
ATOM     26  C   UNL     1       3.254   0.960  -2.042  0.00  0.00    -0.014 C 
ATOM     27  C   UNL     1       0.865   1.582  -1.656  0.00  0.00    -0.014 C 
ENDBRANCH  23  25
BRANCH  23  28
ATOM     28  C   UNL     1       3.754   1.327   0.727  0.00  0.00    -0.044 C 
BRANCH  28  29
ATOM     29  C   UNL     1       4.100   2.808   0.888  0.00  0.00    +0.124 C 
BRANCH  29  30
ATOM     30  O   UNL     1       4.162   3.425  -0.400  0.00  0.00    -0.391 OA
ATOM     31  H   UNL     1       4.794   3.012  -1.004  0.00  0.00    +0.210 HD
ENDBRANCH  29  30
BRANCH  29  32
ATOM     32  C   UNL     1       5.456   2.943   1.583  0.00  0.00    +0.189 C 
BRANCH  32  33
ATOM     33  O   UNL     1       5.726   4.323   1.838  0.00  0.00    -0.377 OA
BRANCH  33  34
ATOM     34  C   UNL     1       6.976   4.560   2.488  0.00  0.00    +0.163 C 
BRANCH  34  35
ATOM     35  C   UNL     1       7.159   6.063   2.709  0.00  0.00    +0.009 C 
ATOM     36  C   UNL     1       6.093   6.569   3.684  0.00  0.00    +0.009 C 
ATOM     37  C   UNL     1       8.549   6.327   3.292  0.00  0.00    +0.009 C 
ENDBRANCH  34  35
ENDBRANCH  33  34
ENDBRANCH  32  33
ENDBRANCH  29  32
ENDBRANCH  28  29
ENDBRANCH  23  28
ENDBRANCH  22  23
ENDBRANCH   2  22
TORSDOF 14
