REMARK  Name = ZINC13174371
REMARK  9 active torsions:
REMARK  status: ('A' for Active; 'I' for Inactive)
REMARK    1  A    between atoms: C_1  and  C_2
REMARK    2  A    between atoms: C_5  and  C_37
REMARK    3  A    between atoms: C_6  and  N_8
REMARK    4  A    between atoms: C_9  and  C_11
REMARK    5  A    between atoms: C_11  and  S_12
REMARK    6  A    between atoms: S_12  and  C_13
REMARK    7  A    between atoms: C_14  and  C_35
REMARK    8  A    between atoms: C_15  and  C_25
REMARK    9  A    between atoms: C_30  and  C_31
REMARK                            x       y       z     vdW  Elec       q    Type
REMARK                         _______ _______ _______ _____ _____    ______ ____
ROOT
ATOM      1  C   UNL     1       0.532  -2.655   7.668  0.00  0.00    +0.080 C 
ATOM      2  C   UNL     1       0.646  -2.155   8.927  0.00  0.00    +0.069 C 
ATOM      3  C   UNL     1       0.750  -3.065  10.115  0.00  0.00    +0.097 C 
ATOM      4  C   UNL     1       1.143  -4.460   9.699  0.00  0.00    +0.024 C 
ATOM      5  C   UNL     1       1.006  -4.867   8.419  0.00  0.00    +0.016 C 
ATOM      6  N   UNL     1       0.513  -4.016   7.465  0.00  0.00    -0.311 N 
ATOM      7  C   UNL     1       1.380  -6.269   8.006  0.00  0.00    +0.051 C 
ATOM      8  C   UNL     1       2.529  -6.774   8.882  0.00  0.00    +0.014 C 
ATOM      9  C   UNL     1       2.081  -6.726  10.346  0.00  0.00    +0.080 C 
ATOM     10  C   UNL     1       1.657  -5.323  10.683  0.00  0.00    +0.162 C 
ATOM     11  O   UNL     1       1.761  -4.928  11.827  0.00  0.00    -0.292 OA
ATOM     12  H   UNL     1       0.152  -4.374   6.639  0.00  0.00    +0.152 HD
ENDROOT
BRANCH   3  13
ATOM     13  C   UNL     1      -0.582  -3.116  10.817  0.00  0.00    -0.023 A 
ATOM     14  C   UNL     1      -1.667  -3.708  10.197  0.00  0.00    +0.005 A 
ATOM     15  C   UNL     1      -2.890  -3.756  10.841  0.00  0.00    +0.000 A 
ATOM     16  C   UNL     1      -3.027  -3.211  12.104  0.00  0.00    +0.001 A 
ATOM     17  C   UNL     1      -1.942  -2.621  12.724  0.00  0.00    +0.012 A 
ATOM     18  C   UNL     1      -0.719  -2.577  12.082  0.00  0.00    +0.059 A 
BRANCH  18  19
ATOM     19  C   UNL     1       0.466  -1.938  12.760  0.00  0.00    +0.418 C 
ATOM     20  F   UNL     1       0.057  -1.363  13.969  0.00  0.00    -0.166 F 
ATOM     21  F   UNL     1       1.440  -2.910  13.012  0.00  0.00    -0.166 F 
ATOM     22  F   UNL     1       1.000  -0.947  11.930  0.00  0.00    -0.166 F 
ENDBRANCH  18  19
ENDBRANCH   3  13
BRANCH   2  23
ATOM     23  C   UNL     1       0.666  -0.736   9.122  0.00  0.00    +0.098 C 
ATOM     24  N   UNL     1       0.682   0.389   9.277  0.00  0.00    -0.191 NA
ENDBRANCH   2  23
BRANCH   1  25
ATOM     25  S   UNL     1       0.401  -1.560   6.294  0.00  0.00    -0.100 S 
BRANCH  25  26
ATOM     26  C   UNL     1       0.265  -2.665   4.862  0.00  0.00    +0.171 C 
BRANCH  26  28
ATOM     27  N   UNL     1       0.032  -2.457   2.409  0.00  0.00    -0.285 N 
ATOM     28  C   UNL     1       0.145  -1.845   3.604  0.00  0.00    +0.227 C 
ATOM     29  O   UNL     1       0.151  -0.633   3.667  0.00  0.00    -0.275 OA
ATOM     30  H   UNL     1      -0.052  -3.422   2.364  0.00  0.00    +0.155 HD
BRANCH  27  36
ATOM     31  C   UNL     1       1.293   1.653   0.024  0.00  0.00    +0.044 C 
ATOM     32  C   UNL     1       0.639   0.296   0.048  0.00  0.00    -0.049 A 
ATOM     33  C   UNL     1       0.041  -0.203  -1.095  0.00  0.00    +0.004 A 
ATOM     34  C   UNL     1      -0.560  -1.448  -1.077  0.00  0.00    +0.005 A 
ATOM     35  C   UNL     1      -0.564  -2.198   0.083  0.00  0.00    -0.029 A 
ATOM     36  C   UNL     1       0.035  -1.700   1.232  0.00  0.00    +0.037 A 
ATOM     37  C   UNL     1       0.643  -0.451   1.209  0.00  0.00    +0.027 A 
ATOM     38  C   UNL     1      -1.220  -3.555   0.101  0.00  0.00    +0.045 C 
ENDBRANCH  27  36
ENDBRANCH  26  28
ENDBRANCH  25  26
ENDBRANCH   1  25
TORSDOF 7
