REMARK  Name = ZINC59645034
REMARK  5 active torsions:
REMARK  status: ('A' for Active; 'I' for Inactive)
REMARK    1  A    between atoms: C_3  and  C_9
REMARK    2  A    between atoms: C_12  and  C_14
REMARK    3  A    between atoms: N_15  and  N_16
REMARK    4  A    between atoms: C_17  and  C_19
REMARK    5  A    between atoms: C_19  and  C_20
REMARK                            x       y       z     vdW  Elec       q    Type
REMARK                         _______ _______ _______ _____ _____    ______ ____
ROOT
ATOM      1  C   UNL     1       5.896   4.715  -1.261  0.00  0.00    +0.176 C 
ATOM      2  N   UNL     1       5.310   5.348  -2.236  0.00  0.00    -0.185 NA
ENDROOT
BRANCH   1   6
ATOM      3  C   UNL     1       3.655   2.162  -0.022  0.00  0.00    +0.137 A 
ATOM      4  C   UNL     1       4.712   1.947   0.812  0.00  0.00    +0.050 A 
ATOM      5  C   UNL     1       5.704   2.874   0.466  0.00  0.00    +0.051 A 
ATOM      6  C   UNL     1       5.203   3.623  -0.576  0.00  0.00    +0.148 A 
ATOM      7  O   UNL     1       3.964   3.171  -0.858  0.00  0.00    -0.454 OA
BRANCH   3  10
ATOM      8  C   UNL     1      -0.017   1.381   0.010  0.00  0.00    +0.021 A 
ATOM      9  C   UNL     1       1.166   2.090   0.002  0.00  0.00    +0.014 A 
ATOM     10  C   UNL     1       2.385   1.409  -0.013  0.00  0.00    +0.036 A 
ATOM     11  C   UNL     1       2.398   0.011  -0.021  0.00  0.00    +0.053 A 
ATOM     12  C   UNL     1       1.207  -0.686  -0.013  0.00  0.00    +0.040 A 
ATOM     13  C   UNL     1       0.002  -0.004   0.002  0.00  0.00    +0.042 A 
ATOM     14 CL   UNL     1      -1.492  -0.888   0.012  0.00  0.00    -0.083 Cl
ATOM     15 CL   UNL     1       3.908  -0.846  -0.040  0.00  0.00    -0.083 Cl
ENDBRANCH   3  10
ENDBRANCH   1   6
BRANCH   2  16
ATOM     16  N   UNL     1       5.973   6.393  -2.892  0.00  0.00    -0.207 N 
ATOM     17  C   UNL     1       5.367   7.048  -3.902  0.00  0.00    +0.238 C 
ATOM     18  O   UNL     1       4.246   6.732  -4.243  0.00  0.00    -0.274 OA
ATOM     19  H   UNL     1       6.869   6.646  -2.619  0.00  0.00    +0.177 HD
BRANCH  17  20
ATOM     20  C   UNL     1       6.080   8.173  -4.607  0.00  0.00    +0.153 C 
BRANCH  20  21
ATOM     21  C   UNL     1       5.191   8.732  -5.687  0.00  0.00    +0.059 A 
ATOM     22  C   UNL     1       4.886  10.051  -5.740  0.00  0.00    +0.072 A 
ATOM     23  S   UNL     1       3.840  10.095  -7.186  0.00  0.00    -0.061 S 
ATOM     24  C   UNL     1       3.899   8.456  -7.566  0.00  0.00    +0.156 A 
ATOM     25  N   UNL     1       4.679   7.959  -6.628  0.00  0.00    -0.230 NA
ATOM     26  N   UNL     1       3.282   7.792  -8.614  0.00  0.00    -0.338 N 
ATOM     27  H   UNL     1       2.731   8.284  -9.243  0.00  0.00    +0.144 HD
ATOM     28  H   UNL     1       3.400   6.835  -8.718  0.00  0.00    +0.144 HD
ENDBRANCH  20  21
ENDBRANCH  17  20
ENDBRANCH   2  16
TORSDOF 5
