REMARK  Name = ZINC43633084
REMARK  7 active torsions:
REMARK  status: ('A' for Active; 'I' for Inactive)
REMARK    1  A    between atoms: C_1  and  C_2
REMARK    2  A    between atoms: C_7  and  C_8
REMARK    3  A    between atoms: C_8  and  N_9
REMARK    4  A    between atoms: C_14  and  C_23
REMARK    5  A    between atoms: C_28  and  O_29
REMARK    6  A    between atoms: O_29  and  C_30
REMARK    7  A    between atoms: C_30  and  C_31
REMARK                            x       y       z     vdW  Elec       q    Type
REMARK                         _______ _______ _______ _____ _____    ______ ____
ROOT
ATOM      1  N   UNL     1      -1.431  -0.300   3.501  0.00  0.00    -0.298 N 
ATOM      2  C   UNL     1      -2.024   0.940   2.990  0.00  0.00    +0.110 C 
ATOM      3  C   UNL     1      -3.550   0.769   3.112  0.00  0.00    +0.003 C 
ATOM      4  C   UNL     1      -4.104   0.118   1.821  0.00  0.00    -0.007 C 
ATOM      5  C   UNL     1      -5.242  -0.771   2.383  0.00  0.00    -0.032 C 
ATOM      6  N   UNL     1      -4.722  -1.291   3.667  0.00  0.00    +0.394 N 
ATOM      7  C   UNL     1      -3.672  -0.359   4.165  0.00  0.00    +0.018 C 
ATOM      8  C   UNL     1      -2.327  -1.024   4.193  0.00  0.00    +0.206 C 
ATOM      9  O   UNL     1      -2.083  -2.068   4.761  0.00  0.00    -0.277 OA
ATOM     10  C   UNL     1      -4.094   0.197   5.527  0.00  0.00    -0.004 C 
ATOM     11  C   UNL     1      -5.132  -0.848   6.023  0.00  0.00    -0.019 C 
ATOM     12  C   UNL     1      -5.813  -1.293   4.668  0.00  0.00    -0.077 C 
ATOM     13  H   UNL     1      -4.356  -2.223   3.545  0.00  0.00    -0.079 HD
ENDROOT
BRANCH   5  14
ATOM     14  C   UNL     1      -5.537  -1.906   1.436  0.00  0.00    -0.019 A 
ATOM     15  C   UNL     1      -4.793  -3.068   1.498  0.00  0.00    +0.005 A 
ATOM     16  C   UNL     1      -5.062  -4.109   0.629  0.00  0.00    +0.000 A 
ATOM     17  C   UNL     1      -6.077  -3.990  -0.303  0.00  0.00    +0.004 A 
ATOM     18  C   UNL     1      -6.824  -2.830  -0.368  0.00  0.00    +0.046 A 
ATOM     19  C   UNL     1      -6.559  -1.786   0.506  0.00  0.00    +0.123 A 
BRANCH  19  20
ATOM     20  O   UNL     1      -7.296  -0.646   0.448  0.00  0.00    -0.488 OA
BRANCH  20  21
ATOM     21  C   UNL     1      -8.332  -0.593  -0.535  0.00  0.00    +0.256 C 
BRANCH  21  22
ATOM     22  C   UNL     1      -9.036   0.737  -0.451  0.00  0.00    +0.006 C 
ATOM     23  C   UNL     1      -9.309   1.404  -1.545  0.00  0.00    +0.007 C 
ENDBRANCH  21  22
ENDBRANCH  20  21
ENDBRANCH  19  20
ENDBRANCH   5  14
BRANCH   1  24
ATOM     24  C   UNL     1      -0.039  -0.701   3.280  0.00  0.00    +0.143 C 
BRANCH  24  31
ATOM     25  C   UNL     1       2.514  -1.735   2.409  0.00  0.00    +0.044 C 
ATOM     26  C   UNL     1       1.255  -2.128   1.682  0.00  0.00    -0.046 A 
ATOM     27  C   UNL     1       1.320  -2.989   0.601  0.00  0.00    +0.003 A 
ATOM     28  C   UNL     1       0.165  -3.349  -0.066  0.00  0.00    +0.000 A 
ATOM     29  C   UNL     1      -1.056  -2.851   0.347  0.00  0.00    +0.000 A 
ATOM     30  C   UNL     1      -1.122  -1.991   1.428  0.00  0.00    +0.005 A 
ATOM     31  C   UNL     1       0.033  -1.634   2.098  0.00  0.00    -0.027 A 
ENDBRANCH  24  31
ENDBRANCH   1  24
TORSDOF 6
