REMARK  Name = ZINC39637377
REMARK  7 active torsions:
REMARK  status: ('A' for Active; 'I' for Inactive)
REMARK    1  A    between atoms: C_1  and  C_2
REMARK    2  A    between atoms: C_7  and  N_12
REMARK    3  A    between atoms: C_9  and  C_11
REMARK    4  A    between atoms: C_13  and  C_15
REMARK    5  A    between atoms: C_26  and  C_28
REMARK    6  A    between atoms: C_30  and  O_35
REMARK    7  A    between atoms: O_35  and  C_36
REMARK                            x       y       z     vdW  Elec       q    Type
REMARK                         _______ _______ _______ _____ _____    ______ ____
ROOT
ATOM      1  C   UNL     1       2.575  -4.570   4.157  0.00  0.00    +0.100 C 
ATOM      2  C   UNL     1       3.786  -3.610   4.200  0.00  0.00    +0.121 C 
ATOM      3  N   UNL     1       4.944  -4.482   4.509  0.00  0.00    -0.296 N 
ATOM      4  C   UNL     1       4.696  -5.716   3.725  0.00  0.00    +0.115 C 
ATOM      5  C   UNL     1       3.177  -5.950   3.845  0.00  0.00    -0.004 C 
ATOM      6  C   UNL     1       2.620  -6.483   2.527  0.00  0.00    -0.010 C 
ATOM      7  C   UNL     1       3.188  -7.881   2.267  0.00  0.00    -0.082 C 
ATOM      8  N   UNL     1       2.821  -8.774   3.373  0.00  0.00    +0.379 N 
ATOM      9  C   UNL     1       3.437  -8.306   4.620  0.00  0.00    -0.082 C 
ATOM     10  C   UNL     1       2.880  -6.925   4.980  0.00  0.00    -0.010 C 
ATOM     11  C   UNL     1       5.987  -4.214   5.319  0.00  0.00    +0.248 C 
ATOM     12  O   UNL     1       6.913  -4.997   5.396  0.00  0.00    -0.270 OA
ATOM     13  H   UNL     1       1.817  -8.782   3.478  0.00  0.00    -0.086 HD
ATOM     14  H   UNL     1       3.143  -9.708   3.170  0.00  0.00    -0.086 HD
ENDROOT
BRANCH  11  15
ATOM     15  C   UNL     1       6.004  -2.968   6.114  0.00  0.00    +0.054 A 
ATOM     16  C   UNL     1       5.472  -1.791   5.584  0.00  0.00    +0.059 A 
ATOM     17  C   UNL     1       5.491  -0.629   6.335  0.00  0.00    +0.121 A 
ATOM     18  C   UNL     1       6.038  -0.633   7.611  0.00  0.00    +0.047 A 
ATOM     19  C   UNL     1       6.565  -1.797   8.138  0.00  0.00    +0.019 A 
ATOM     20  C   UNL     1       6.547  -2.965   7.401  0.00  0.00    +0.030 A 
ATOM     21 BR   UNL     1       7.263  -4.556   8.130  0.00  0.00    -0.050 Br
BRANCH  17  22
ATOM     22  O   UNL     1       4.974   0.519   5.822  0.00  0.00    -0.495 OA
ATOM     23  C   UNL     1       5.027   1.682   6.651  0.00  0.00    +0.277 C 
ENDBRANCH  17  22
ENDBRANCH  11  15
BRANCH   1  25
ATOM     24  N   UNL     1       0.300  -4.419   3.198  0.00  0.00    -0.312 N 
ATOM     25  C   UNL     1       1.616  -4.157   3.071  0.00  0.00    +0.218 C 
ATOM     26  O   UNL     1       2.029  -3.588   2.082  0.00  0.00    -0.275 OA
ATOM     27  H   UNL     1      -0.029  -4.873   3.989  0.00  0.00    +0.149 HD
BRANCH  24  33
ATOM     28  C   UNL     1      -4.403  -3.244   2.228  0.00  0.00    +0.008 C 
ATOM     29  C   UNL     1      -3.004  -3.421   1.633  0.00  0.00    -0.009 C 
ATOM     30  C   UNL     1      -3.043  -4.500   0.550  0.00  0.00    +0.003 C 
ATOM     31  C   UNL     1      -1.645  -4.677  -0.045  0.00  0.00    +0.002 C 
ATOM     32  C   UNL     1      -0.671  -5.097   1.058  0.00  0.00    +0.022 C 
ATOM     33  C   UNL     1      -0.632  -4.017   2.142  0.00  0.00    +0.076 C 
ATOM     34  C   UNL     1      -2.030  -3.840   2.736  0.00  0.00    +0.009 C 
ATOM     35  C   UNL     1      -2.495  -5.162   3.350  0.00  0.00    +0.009 C 
ENDBRANCH  24  33
ENDBRANCH   1  25
TORSDOF 4
