REMARK  Name = ZINC36346581
REMARK  18 active torsions:
REMARK  status: ('A' for Active; 'I' for Inactive)
REMARK    1  A    between atoms: C_1  and  C_2
REMARK    2  A    between atoms: C_3  and  C_22
REMARK    3  A    between atoms: C_4  and  O_14
REMARK    4  A    between atoms: N_5  and  C_7
REMARK    5  A    between atoms: O_14  and  C_15
REMARK    6  A    between atoms: C_22  and  N_23
REMARK    7  A    between atoms: N_23  and  C_24
REMARK    8  A    between atoms: N_23  and  C_34
REMARK    9  A    between atoms: C_24  and  C_25
REMARK   10  A    between atoms: C_25  and  C_27
REMARK   11  A    between atoms: C_25  and  O_33
REMARK   12  A    between atoms: C_27  and  O_28
REMARK   13  A    between atoms: O_28  and  C_29
REMARK   14  A    between atoms: C_29  and  C_30
REMARK   15  A    between atoms: C_30  and  C_31
REMARK   16  A    between atoms: C_30  and  C_32
REMARK   17  A    between atoms: C_34  and  C_35
REMARK   18  A    between atoms: C_34  and  C_36
REMARK                            x       y       z     vdW  Elec       q    Type
REMARK                         _______ _______ _______ _____ _____    ______ ____
ROOT
ATOM      1  C   UNL     1      -1.334  -0.422  -0.249  0.00  0.00    +0.068 C 
ATOM      2  C   UNL     1      -1.084  -1.512  -1.260  0.00  0.00    +0.065 A 
ATOM      3  C   UNL     1      -0.510  -1.340  -2.523  0.00  0.00    +0.021 A 
ATOM      4  C   UNL     1      -0.457  -2.558  -3.127  0.00  0.00    +0.225 A 
ATOM      5  N   UNL     1      -0.985  -3.465  -2.262  0.00  0.00    -0.200 N 
ATOM      6  N   UNL     1      -1.363  -2.781  -1.100  0.00  0.00    -0.168 NA
ENDROOT
BRANCH   5   7
ATOM      7  C   UNL     1      -1.120  -4.842  -2.491  0.00  0.00    +0.069 A 
ATOM      8  C   UNL     1      -1.531  -5.303  -3.735  0.00  0.00    +0.031 A 
ATOM      9  C   UNL     1      -1.664  -6.659  -3.959  0.00  0.00    +0.040 A 
ATOM     10  C   UNL     1      -1.388  -7.560  -2.943  0.00  0.00    +0.124 A 
ATOM     11  C   UNL     1      -0.978  -7.102  -1.702  0.00  0.00    +0.040 A 
ATOM     12  C   UNL     1      -0.839  -5.747  -1.476  0.00  0.00    +0.031 A 
ATOM     13  F   UNL     1      -1.519  -8.886  -3.164  0.00  0.00    -0.205 F 
ENDBRANCH   5   7
BRANCH   4  14
ATOM     14  O   UNL     1       0.032  -2.818  -4.365  0.00  0.00    -0.435 OA
BRANCH  14  15
ATOM     15  C   UNL     1       1.278  -3.354  -4.460  0.00  0.00    +0.165 A 
ATOM     16  C   UNL     1       2.010  -3.616  -3.311  0.00  0.00    +0.049 A 
ATOM     17  C   UNL     1       3.276  -4.160  -3.410  0.00  0.00    +0.004 A 
ATOM     18  C   UNL     1       3.815  -4.444  -4.651  0.00  0.00    +0.003 A 
ATOM     19  C   UNL     1       3.089  -4.184  -5.798  0.00  0.00    +0.042 A 
ATOM     20  C   UNL     1       1.818  -3.644  -5.706  0.00  0.00    +0.165 A 
ATOM     21  F   UNL     1       1.106  -3.396  -6.827  0.00  0.00    -0.202 F 
ENDBRANCH  14  15
ENDBRANCH   4  14
BRANCH   3  22
ATOM     22  C   UNL     1      -0.035  -0.037  -3.111  0.00  0.00    -0.035 C 
BRANCH  22  23
ATOM     23  N   UNL     1       1.431  -0.044  -3.197  0.00  0.00    +0.386 N 
ATOM     24  H   UNL     1       1.746  -0.956  -3.492  0.00  0.00    -0.081 HD
BRANCH  23  25
ATOM     25  C   UNL     1       2.000   0.270  -1.880  0.00  0.00    -0.074 C 
ATOM     26  C   UNL     1       1.365   1.554  -1.342  0.00  0.00    -0.014 C 
ATOM     27  C   UNL     1       1.716  -0.883  -0.914  0.00  0.00    -0.014 C 
ENDBRANCH  23  25
BRANCH  23  28
ATOM     28  C   UNL     1       1.869   0.964  -4.172  0.00  0.00    -0.044 C 
BRANCH  28  29
ATOM     29  C   UNL     1       3.369   0.806  -4.431  0.00  0.00    +0.124 C 
BRANCH  29  30
ATOM     30  O   UNL     1       4.101   1.319  -3.316  0.00  0.00    -0.391 OA
ATOM     31  H   UNL     1       3.909   2.244  -3.111  0.00  0.00    +0.210 HD
ENDBRANCH  29  30
BRANCH  29  32
ATOM     32  C   UNL     1       3.753   1.579  -5.693  0.00  0.00    +0.189 C 
BRANCH  32  33
ATOM     33  O   UNL     1       5.128   1.337  -6.000  0.00  0.00    -0.377 OA
BRANCH  33  34
ATOM     34  C   UNL     1       5.591   2.018  -7.168  0.00  0.00    +0.163 C 
BRANCH  34  35
ATOM     35  C   UNL     1       7.067   1.687  -7.399  0.00  0.00    +0.009 C 
ATOM     36  C   UNL     1       7.213   0.197  -7.714  0.00  0.00    +0.009 C 
ATOM     37  C   UNL     1       7.596   2.511  -8.575  0.00  0.00    +0.009 C 
ENDBRANCH  34  35
ENDBRANCH  33  34
ENDBRANCH  32  33
ENDBRANCH  29  32
ENDBRANCH  28  29
ENDBRANCH  23  28
ENDBRANCH  22  23
ENDBRANCH   3  22
TORSDOF 13
