REMARK  Name = ZINC09503538
REMARK  7 active torsions:
REMARK  status: ('A' for Active; 'I' for Inactive)
REMARK    1  A    between atoms: C_1  and  N_2
REMARK    2  A    between atoms: C_4  and  S_19
REMARK    3  A    between atoms: C_5  and  S_7
REMARK    4  A    between atoms: S_7  and  N_10
REMARK    5  A    between atoms: N_10  and  C_11
REMARK    6  A    between atoms: S_19  and  N_22
REMARK    7  A    between atoms: N_22  and  C_23
REMARK                            x       y       z     vdW  Elec       q    Type
REMARK                         _______ _______ _______ _____ _____    ______ ____
ROOT
ATOM      1  C   UNL     1      -2.265   1.229   0.242  0.00  0.00    +0.148 C 
ATOM      2  N   UNL     1      -1.774  -0.151   0.240  0.00  0.00    -0.352 N 
ATOM      3  C   UNL     1      -1.419  -0.867  -0.865  0.00  0.00    +0.116 A 
ATOM      4  C   UNL     1      -1.016  -2.090  -0.464  0.00  0.00    +0.149 A 
ATOM      5  C   UNL     1      -1.135  -2.134   0.939  0.00  0.00    +0.149 A 
ATOM      6  C   UNL     1      -1.601  -0.934   1.343  0.00  0.00    +0.116 A 
ENDROOT
BRANCH   5   7
ATOM      7  S   UNL     1      -0.747  -3.504   1.976  0.00  0.00    +0.062 S 
ATOM      8  O   UNL     1      -1.009  -3.091   3.311  0.00  0.00    -0.153 OA
ATOM      9  O   UNL     1      -1.368  -4.642   1.395  0.00  0.00    -0.153 OA
BRANCH   7  10
ATOM     10  N   UNL     1       0.887  -3.751   1.870  0.00  0.00    -0.187 NA
ATOM     11  H   UNL     1       1.230  -4.565   1.469  0.00  0.00    +0.148 HD
BRANCH  10  12
ATOM     12  C   UNL     1       1.816  -2.740   2.381  0.00  0.00    +0.077 C 
ATOM     13  C   UNL     1       2.273  -1.840   1.232  0.00  0.00    +0.020 C 
ATOM     14  C   UNL     1       2.907  -0.569   1.800  0.00  0.00    +0.002 C 
ATOM     15  C   UNL     1       2.046  -0.038   2.948  0.00  0.00    +0.000 C 
ATOM     16  C   UNL     1       2.814  -0.167   4.265  0.00  0.00    +0.000 C 
ATOM     17  C   UNL     1       2.803  -1.628   4.719  0.00  0.00    +0.000 C 
ATOM     18  C   UNL     1       3.795  -2.432   3.875  0.00  0.00    +0.002 C 
ATOM     19  C   UNL     1       3.031  -3.431   3.003  0.00  0.00    +0.020 C 
ENDBRANCH  10  12
ENDBRANCH   7  10
ENDBRANCH   5   7
BRANCH   4  20
ATOM     20  S   UNL     1      -0.452  -3.395  -1.504  0.00  0.00    +0.062 S 
ATOM     21  O   UNL     1      -0.507  -2.905  -2.837  0.00  0.00    -0.153 OA
ATOM     22  O   UNL     1       0.748  -3.887  -0.923  0.00  0.00    -0.153 OA
BRANCH  20  23
ATOM     23  N   UNL     1      -1.563  -4.618  -1.402  0.00  0.00    -0.187 NA
ATOM     24  H   UNL     1      -1.316  -5.466  -1.003  0.00  0.00    +0.148 HD
BRANCH  23  25
ATOM     25  C   UNL     1      -2.921  -4.418  -1.915  0.00  0.00    +0.077 C 
ATOM     26  C   UNL     1      -3.846  -4.015  -0.765  0.00  0.00    +0.020 C 
ATOM     27  C   UNL     1      -5.140  -3.427  -1.333  0.00  0.00    +0.002 C 
ATOM     28  C   UNL     1      -4.805  -2.466  -2.476  0.00  0.00    +0.000 C 
ATOM     29  C   UNL     1      -5.317  -3.046  -3.796  0.00  0.00    +0.000 C 
ATOM     30  C   UNL     1      -4.385  -4.170  -4.254  0.00  0.00    +0.000 C 
ATOM     31  C   UNL     1      -4.647  -5.423  -3.416  0.00  0.00    +0.002 C 
ATOM     32  C   UNL     1      -3.426  -5.719  -2.543  0.00  0.00    +0.020 C 
ENDBRANCH  23  25
ENDBRANCH  20  23
ENDBRANCH   4  20
TORSDOF 6
