REMARK  Name = ZINC59983554
REMARK  9 active torsions:
REMARK  status: ('A' for Active; 'I' for Inactive)
REMARK    1  A    between atoms: C_1  and  C_2
REMARK    2  A    between atoms: N_7  and  C_9
REMARK    3  A    between atoms: C_9  and  C_10
REMARK    4  A    between atoms: C_9  and  C_11
REMARK    5  A    between atoms: C_9  and  C_12
REMARK    6  A    between atoms: C_12  and  N_13
REMARK    7  A    between atoms: C_14  and  C_16
REMARK    8  A    between atoms: C_20  and  S_22
REMARK    9  A    between atoms: S_22  and  N_25
REMARK                            x       y       z     vdW  Elec       q    Type
REMARK                         _______ _______ _______ _____ _____    ______ ____
ROOT
ATOM      1  N   UNL     1       2.186  -4.461   1.142  0.00  0.00    -0.313 N 
ATOM      2  C   UNL     1       2.321  -5.782   0.914  0.00  0.00    +0.244 C 
ATOM      3  O   UNL     1       1.924  -6.584   1.738  0.00  0.00    -0.270 OA
ATOM      4  H   UNL     1       2.502  -3.821   0.485  0.00  0.00    +0.149 HD
ENDROOT
BRANCH   2   5
ATOM      5  C   UNL     1       2.950  -6.256  -0.337  0.00  0.00    +0.039 A 
ATOM      6  C   UNL     1       3.411  -5.338  -1.281  0.00  0.00    +0.013 A 
ATOM      7  C   UNL     1       3.998  -5.787  -2.446  0.00  0.00    +0.003 A 
ATOM      8  C   UNL     1       4.129  -7.145  -2.679  0.00  0.00    +0.028 A 
ATOM      9  C   UNL     1       3.674  -8.060  -1.747  0.00  0.00    +0.106 A 
ATOM     10  C   UNL     1       3.091  -7.624  -0.575  0.00  0.00    +0.041 A 
BRANCH   9  11
ATOM     11  S   UNL     1       3.846  -9.787  -2.054  0.00  0.00    +0.061 S 
ATOM     12  O   UNL     1       2.850 -10.438  -1.278  0.00  0.00    -0.153 OA
ATOM     13  O   UNL     1       3.935  -9.941  -3.464  0.00  0.00    -0.153 OA
BRANCH  11  14
ATOM     14  N   UNL     1       5.309 -10.251  -1.434  0.00  0.00    -0.177 NA
ATOM     15  C   UNL     1       6.476 -10.187  -2.286  0.00  0.00    +0.109 C 
ATOM     16  C   UNL     1       6.637 -11.526  -3.048  0.00  0.00    +0.017 C 
ATOM     17  C   UNL     1       7.064 -12.590  -2.126  0.00  0.00    +0.001 C 
ATOM     18  C   UNL     1       6.061 -12.903  -1.020  0.00  0.00    +0.001 C 
ATOM     19  C   UNL     1       6.272 -11.950   0.131  0.00  0.00    +0.017 C 
ATOM     20  C   UNL     1       5.370 -10.708  -0.032  0.00  0.00    +0.109 C 
ENDBRANCH  11  14
ENDBRANCH   9  11
ENDBRANCH   2   5
BRANCH   1  21
ATOM     21  C   UNL     1       1.562  -3.991   2.382  0.00  0.00    +0.092 C 
BRANCH  21  22
ATOM     22  C   UNL     1       1.534  -2.461   2.390  0.00  0.00    -0.055 C 
ATOM     23  C   UNL     1       2.963  -1.924   2.303  0.00  0.00    -0.008 C 
ATOM     24  C   UNL     1       0.882  -1.970   3.685  0.00  0.00    -0.008 C 
BRANCH  22  30
ATOM     25  C   UNL     1      -0.019   1.526   0.010  0.00  0.00    +0.005 C 
ATOM     26  C   UNL     1       0.002  -0.004   0.002  0.00  0.00    -0.031 C 
ATOM     27  C   UNL     1      -1.434  -0.535   0.015  0.00  0.00    -0.001 C 
ATOM     28  C   UNL     1      -1.402  -2.064   0.086  0.00  0.00    -0.018 C 
ATOM     29  C   UNL     1      -0.613  -2.496   1.324  0.00  0.00    -0.078 C 
ATOM     30  N   UNL     1       0.758  -1.980   1.239  0.00  0.00    +0.384 N 
ATOM     31  C   UNL     1       0.740  -0.512   1.242  0.00  0.00    -0.075 C 
ATOM     32  H   UNL     1       1.188  -2.307   0.386  0.00  0.00    -0.081 HD
ENDBRANCH  22  30
ENDBRANCH  21  22
ENDBRANCH   1  21
TORSDOF 6
