REMARK  Name = ZINC58402189
REMARK  9 active torsions:
REMARK  status: ('A' for Active; 'I' for Inactive)
REMARK    1  A    between atoms: C_1  and  C_2
REMARK    2  A    between atoms: C_4  and  N_15
REMARK    3  A    between atoms: C_11  and  C_12
REMARK    4  A    between atoms: C_12  and  C_13
REMARK    5  A    between atoms: C_12  and  C_14
REMARK    6  A    between atoms: N_15  and  C_16
REMARK    7  A    between atoms: C_16  and  C_17
REMARK    8  A    between atoms: C_20  and  N_24
REMARK    9  A    between atoms: C_27  and  O_30
REMARK                            x       y       z     vdW  Elec       q    Type
REMARK                         _______ _______ _______ _____ _____    ______ ____
ROOT
ATOM      1  N   UNL     1       0.048  -2.789  -2.358  0.00  0.00    -0.326 N 
ATOM      2  H   UNL     1       0.061  -3.759  -2.360  0.00  0.00    +0.148 HD
ENDROOT
BRANCH   1   6
ATOM      3  C   UNL     1      -0.009   1.503   0.010  0.00  0.00    +0.044 C 
ATOM      4  C   UNL     1       0.011  -0.004   0.002  0.00  0.00    -0.038 A 
ATOM      5  C   UNL     1       0.020  -0.696  -1.171  0.00  0.00    +0.045 A 
ATOM      6  C   UNL     1       0.039  -2.098  -1.155  0.00  0.00    +0.097 A 
ATOM      7  N   UNL     1       0.049  -2.774  -0.025  0.00  0.00    -0.343 N 
ATOM      8  C   UNL     1       0.042  -2.149   1.158  0.00  0.00    +0.051 A 
ATOM      9  C   UNL     1       0.028  -0.733   1.208  0.00  0.00    +0.002 A 
ATOM     10  C   UNL     1       0.026  -0.084   2.452  0.00  0.00    +0.010 A 
ATOM     11  C   UNL     1       0.042  -0.822   3.597  0.00  0.00    +0.001 A 
ATOM     12  C   UNL     1       0.062  -2.213   3.550  0.00  0.00    +0.006 A 
ATOM     13  C   UNL     1       0.052  -2.876   2.361  0.00  0.00    -0.021 A 
ATOM     14  H   UNL     1       0.062  -3.744  -0.050  0.00  0.00    +0.167 HD
BRANCH  13  15
ATOM     15  C   UNL     1       0.072  -4.382   2.333  0.00  0.00    +0.015 C 
ATOM     16  C   UNL     1       1.399  -4.885   2.908  0.00  0.00    +0.012 C 
ATOM     17  C   UNL     1      -1.085  -4.923   3.175  0.00  0.00    +0.012 C 
ENDBRANCH  13  15
ENDBRANCH   1   6
BRANCH   1  18
ATOM     18  C   UNL     1       0.036  -2.054  -3.625  0.00  0.00    +0.138 C 
BRANCH  18  19
ATOM     19  C   UNL     1       0.049  -3.031  -4.772  0.00  0.00    -0.028 A 
ATOM     20  C   UNL     1       1.253  -3.466  -5.295  0.00  0.00    +0.007 A 
ATOM     21  C   UNL     1       1.269  -4.361  -6.347  0.00  0.00    +0.026 A 
ATOM     22  C   UNL     1       0.074  -4.825  -6.880  0.00  0.00    +0.065 A 
ATOM     23  C   UNL     1      -1.136  -4.387  -6.353  0.00  0.00    +0.145 A 
ATOM     24  C   UNL     1      -1.144  -3.495  -5.296  0.00  0.00    +0.045 A 
ATOM     25  F   UNL     1      -2.301  -4.836  -6.869  0.00  0.00    -0.204 F 
BRANCH  22  26
ATOM     26  N   UNL     1       0.087  -5.731  -7.946  0.00  0.00    -0.328 N 
ATOM     27  C   UNL     1       0.092  -5.253  -9.335  0.00  0.00    +0.107 C 
ATOM     28  C   UNL     1      -1.066  -5.915 -10.088  0.00  0.00    +0.050 C 
ATOM     29  C   UNL     1      -0.959  -7.436  -9.946  0.00  0.00    +0.118 C 
ATOM     30  C   UNL     1      -1.061  -7.820  -8.469  0.00  0.00    +0.050 C 
ATOM     31  C   UNL     1       0.103  -7.179  -7.697  0.00  0.00    +0.107 C 
BRANCH  29  32
ATOM     32  O   UNL     1      -2.019  -8.058 -10.675  0.00  0.00    -0.392 OA
ATOM     33  H   UNL     1      -2.013  -9.024 -10.629  0.00  0.00    +0.210 HD
ENDBRANCH  29  32
ENDBRANCH  22  26
ENDBRANCH  18  19
ENDBRANCH   1  18
TORSDOF 6
