REMARK  Name = ZINC66313211
REMARK  6 active torsions:
REMARK  status: ('A' for Active; 'I' for Inactive)
REMARK    1  A    between atoms: C_1  and  S_2
REMARK    2  A    between atoms: S_2  and  C_5
REMARK    3  A    between atoms: C_7  and  C_14
REMARK    4  A    between atoms: N_16  and  C_17
REMARK    5  A    between atoms: C_17  and  C_18
REMARK    6  A    between atoms: C_18  and  C_19
REMARK                            x       y       z     vdW  Elec       q    Type
REMARK                         _______ _______ _______ _____ _____    ______ ____
ROOT
ATOM      1  C   UNL     1       0.975  -1.231  -4.974  0.00  0.00    +0.265 C 
ATOM      2  O   UNL     1       1.910  -1.507  -5.703  0.00  0.00    -0.268 OA
ATOM      3  N   UNL     1      -0.278  -1.189  -5.471  0.00  0.00    -0.310 N 
ATOM      4  H   UNL     1      -1.023  -0.969  -4.890  0.00  0.00    +0.149 HD
ENDROOT
BRANCH   1   7
ATOM      5  C   UNL     1       0.845  -0.437  -1.483  0.00  0.00    +0.256 A 
ATOM      6  N   UNL     1       0.277  -0.626  -2.639  0.00  0.00    -0.206 NA
ATOM      7  C   UNL     1       1.210  -0.944  -3.559  0.00  0.00    +0.153 A 
ATOM      8  C   UNL     1       2.448  -0.948  -2.903  0.00  0.00    +0.080 A 
ATOM      9  N   UNL     1       2.191  -0.620  -1.595  0.00  0.00    -0.284 N 
ATOM     10  C   UNL     1       3.216  -0.538  -0.697  0.00  0.00    +0.094 A 
ATOM     11  C   UNL     1       4.488  -0.774  -1.082  0.00  0.00    +0.018 A 
ATOM     12  C   UNL     1       4.777  -1.107  -2.415  0.00  0.00    +0.004 A 
ATOM     13  C   UNL     1       3.763  -1.201  -3.320  0.00  0.00    +0.028 A 
BRANCH   5  15
ATOM     14  C   UNL     1      -0.022   1.810   0.012  0.00  0.00    +0.204 C 
ATOM     15  S   UNL     1       0.002  -0.004   0.002  0.00  0.00    +0.028 S 
ATOM     16  O   UNL     1       0.835  -0.488   1.046  0.00  0.00    -0.167 OA
ATOM     17  O   UNL     1      -1.315  -0.510  -0.168  0.00  0.00    -0.167 OA
ENDBRANCH   5  15
ENDBRANCH   1   7
BRANCH   3  18
ATOM     18  C   UNL     1      -0.514  -1.476  -6.888  0.00  0.00    +0.110 C 
BRANCH  18  19
ATOM     19  C   UNL     1      -2.009  -1.362  -7.189  0.00  0.00    +0.073 C 
BRANCH  19  20
ATOM     20  C   UNL     1      -2.252  -1.657  -8.647  0.00  0.00    +0.035 A 
ATOM     21  C   UNL     1      -2.152  -0.774  -9.662  0.00  0.00    +0.108 A 
ATOM     22  N   UNL     1      -2.453  -1.455 -10.804  0.00  0.00    -0.336 N 
ATOM     23  C   UNL     1      -2.728  -2.733 -10.453  0.00  0.00    +0.087 A 
ATOM     24  N   UNL     1      -2.600  -2.847  -9.163  0.00  0.00    -0.347 N 
ATOM     25  C   UNL     1      -3.112  -3.814 -11.435  0.00  0.00    +0.072 C 
ATOM     26  C   UNL     1      -3.514  -3.143 -12.754  0.00  0.00    +0.009 C 
ATOM     27  C   UNL     1      -2.444  -2.121 -13.148  0.00  0.00    +0.022 C 
ATOM     28  C   UNL     1      -2.483  -0.938 -12.174  0.00  0.00    +0.123 C 
ATOM     29  H   UNL     1      -2.736  -3.662  -8.655  0.00  0.00    +0.167 HD
ENDBRANCH  19  20
ENDBRANCH  18  19
ENDBRANCH   3  18
TORSDOF 5
