REMARK  Name = ZINC38700647
REMARK  13 active torsions:
REMARK  status: ('A' for Active; 'I' for Inactive)
REMARK    1  A    between atoms: C_1  and  C_2
REMARK    2  A    between atoms: C_2  and  C_3
REMARK    3  A    between atoms: C_3  and  O_4
REMARK    4  A    between atoms: O_4  and  C_5
REMARK    5  A    between atoms: C_10  and  C_11
REMARK    6  A    between atoms: C_16  and  O_25
REMARK    7  A    between atoms: C_20  and  N_24
REMARK    8  A    between atoms: C_21  and  C_22
REMARK    9  A    between atoms: O_25  and  C_26
REMARK   10  A    between atoms: C_26  and  C_28
REMARK   11  A    between atoms: C_29  and  C_39
REMARK   12  A    between atoms: C_32  and  C_38
REMARK   13  A    between atoms: C_33  and  C_37
REMARK                            x       y       z     vdW  Elec       q    Type
REMARK                         _______ _______ _______ _____ _____    ______ ____
ROOT
ATOM      1  C   UNL     1      -1.438  -4.830  -0.037  0.00  0.00    +0.101 C 
ATOM      2  C   UNL     1      -1.371  -5.686   1.200  0.00  0.00    +0.008 A 
ATOM      3  C   UNL     1      -0.947  -5.128   2.392  0.00  0.00    +0.012 A 
ATOM      4  C   UNL     1      -0.879  -5.898   3.536  0.00  0.00    +0.047 A 
ATOM      5  C   UNL     1      -1.238  -7.238   3.493  0.00  0.00    +0.136 A 
ATOM      6  C   UNL     1      -1.664  -7.800   2.300  0.00  0.00    +0.093 A 
ATOM      7  C   UNL     1      -1.731  -7.024   1.150  0.00  0.00    +0.138 A 
ATOM      8  O   UNL     1      -2.150  -7.590  -0.009  0.00  0.00    -0.441 OA
ATOM      9  C   UNL     1      -1.864  -7.001  -1.182  0.00  0.00    +0.199 C 
ATOM     10  C   UNL     1      -1.521  -5.697  -1.262  0.00  0.00    +0.098 C 
ENDROOT
BRANCH   1  16
ATOM     11  C   UNL     1      -2.514  -2.566   0.017  0.00  0.00    +0.125 A 
ATOM     12  C   UNL     1      -3.639  -1.755   0.076  0.00  0.00    +0.046 A 
ATOM     13  C   UNL     1      -4.895  -2.323   0.155  0.00  0.00    +0.004 A 
ATOM     14  C   UNL     1      -5.033  -3.699   0.176  0.00  0.00    +0.001 A 
ATOM     15  C   UNL     1      -3.915  -4.509   0.118  0.00  0.00    +0.008 A 
ATOM     16  C   UNL     1      -2.656  -3.946   0.033  0.00  0.00    +0.007 A 
BRANCH  11  17
ATOM     17  O   UNL     1      -1.277  -2.010  -0.062  0.00  0.00    -0.492 OA
BRANCH  17  18
ATOM     18  C   UNL     1      -1.207  -0.583  -0.073  0.00  0.00    +0.229 C 
BRANCH  18  20
ATOM     19  C   UNL     1       0.331   1.383  -0.177  0.00  0.00    +0.007 C 
ATOM     20  C   UNL     1       0.256  -0.145  -0.165  0.00  0.00    +0.038 C 
ENDBRANCH  18  20
ENDBRANCH  17  18
ENDBRANCH  11  17
ENDBRANCH   1  16
BRANCH   9  21
ATOM     21  N   UNL     1      -1.924  -7.747  -2.333  0.00  0.00    -0.328 N 
ATOM     22  H   UNL     1      -2.170  -8.685  -2.291  0.00  0.00    +0.145 HD
ATOM     23  H   UNL     1      -1.721  -7.337  -3.188  0.00  0.00    +0.145 HD
ENDBRANCH   9  21
BRANCH  10  24
ATOM     24  C   UNL     1      -1.230  -5.130  -2.544  0.00  0.00    +0.101 C 
ATOM     25  N   UNL     1      -0.999  -4.680  -3.561  0.00  0.00    -0.191 NA
ENDBRANCH  10  24
BRANCH   5  26
ATOM     26  O   UNL     1      -1.171  -7.997   4.618  0.00  0.00    -0.420 OA
BRANCH  26  27
ATOM     27  C   UNL     1      -0.226  -8.958   4.678  0.00  0.00    +0.380 C 
ATOM     28  O   UNL     1       0.599  -9.056   3.790  0.00  0.00    -0.241 OA
BRANCH  27  29
ATOM     29  C   UNL     1      -0.194  -9.886   5.815  0.00  0.00    +0.216 A 
ATOM     30  C   UNL     1       0.711 -10.885   5.984  0.00  0.00    +0.010 A 
ATOM     31  C   UNL     1       0.360 -11.541   7.242  0.00  0.00    +0.024 A 
ATOM     32  C   UNL     1       0.890 -12.616   7.961  0.00  0.00    +0.015 A 
ATOM     33  C   UNL     1       0.311 -12.993   9.140  0.00  0.00    -0.047 A 
ATOM     34  C   UNL     1      -0.799 -12.315   9.627  0.00  0.00    -0.044 A 
ATOM     35  C   UNL     1      -1.336 -11.253   8.934  0.00  0.00    +0.050 A 
ATOM     36  C   UNL     1      -0.765 -10.851   7.731  0.00  0.00    +0.137 A 
ATOM     37  O   UNL     1      -1.055  -9.871   6.854  0.00  0.00    -0.448 OA
ATOM     38  C   UNL     1      -1.422 -12.747  10.930  0.00  0.00    +0.044 C 
ATOM     39  C   UNL     1       0.881 -14.152   9.917  0.00  0.00    +0.044 C 
ATOM     40  C   UNL     1       1.847 -11.245   5.061  0.00  0.00    +0.048 C 
ENDBRANCH  27  29
ENDBRANCH  26  27
ENDBRANCH   5  26
TORSDOF 9
