REMARK  Name = ZINC67647236
REMARK  7 active torsions:
REMARK  status: ('A' for Active; 'I' for Inactive)
REMARK    1  A    between atoms: C_1  and  C_2
REMARK    2  A    between atoms: C_2  and  C_3
REMARK    3  A    between atoms: C_3  and  C_4
REMARK    4  A    between atoms: C_4  and  C_5
REMARK    5  A    between atoms: C_8  and  N_11
REMARK    6  A    between atoms: C_17  and  C_20
REMARK    7  A    between atoms: C_25  and  C_28
REMARK                            x       y       z     vdW  Elec       q    Type
REMARK                         _______ _______ _______ _____ _____    ______ ____
ROOT
ATOM      1  N   UNL     1       4.190  -4.697  -2.621  0.00  0.00    -0.296 N 
ATOM      2  C   UNL     1       4.687  -5.949  -2.670  0.00  0.00    +0.302 C 
ATOM      3  O   UNL     1       4.526  -6.629  -3.666  0.00  0.00    -0.253 OA
ATOM      4  N   UNL     1       5.361  -6.448  -1.615  0.00  0.00    -0.286 N 
ATOM      5  C   UNL     1       5.463  -5.686  -0.364  0.00  0.00    +0.110 C 
ATOM      6  C   UNL     1       6.942  -5.561   0.018  0.00  0.00    +0.032 C 
ATOM      7  C   UNL     1       7.569  -6.955   0.079  0.00  0.00    +0.078 C 
ATOM      8  C   UNL     1       7.480  -7.617  -1.299  0.00  0.00    +0.032 C 
ATOM      9  C   UNL     1       6.003  -7.768  -1.693  0.00  0.00    +0.110 C 
ATOM     10  H   UNL     1       4.254  -4.182  -1.802  0.00  0.00    +0.151 HD
ENDROOT
BRANCH   7  11
ATOM     11  C   UNL     1       9.015  -6.839   0.487  0.00  0.00    +0.222 C 
ATOM     12  O   UNL     1       9.496  -5.748   0.708  0.00  0.00    -0.275 OA
ATOM     13  N   UNL     1       9.773  -7.947   0.607  0.00  0.00    -0.267 N 
ATOM     14  C   UNL     1      11.111  -7.838   0.985  0.00  0.00    +0.168 A 
ATOM     15  C   UNL     1      11.799  -6.639   1.277  0.00  0.00    +0.091 A 
ATOM     16  C   UNL     1      13.066  -6.952   1.599  0.00  0.00    +0.136 A 
ATOM     17  O   UNL     1      13.200  -8.286   1.522  0.00  0.00    -0.358 OA
ATOM     18  N   UNL     1      11.951  -8.830   1.137  0.00  0.00    -0.063 NA
ATOM     19  C   UNL     1      14.148  -5.976   1.981  0.00  0.00    +0.089 C 
ATOM     20  H   UNL     1       9.387  -8.819   0.430  0.00  0.00    +0.156 HD
ENDBRANCH   7  11
BRANCH   1  24
ATOM     21  C   UNL     1       1.457  -2.518  -2.526  0.00  0.00    -0.011 C 
ATOM     22  C   UNL     1       2.927  -2.095  -2.476  0.00  0.00    +0.005 C 
ATOM     23  C   UNL     1       3.643  -2.589  -3.734  0.00  0.00    +0.022 C 
ATOM     24  C   UNL     1       3.554  -4.115  -3.806  0.00  0.00    +0.074 C 
ATOM     25  C   UNL     1       2.085  -4.538  -3.857  0.00  0.00    +0.022 C 
ATOM     26  C   UNL     1       1.369  -4.044  -2.598  0.00  0.00    +0.005 C 
BRANCH  21  27
ATOM     27  C   UNL     1       0.741  -2.025  -1.268  0.00  0.00    +0.003 C 
BRANCH  27  28
ATOM     28  C   UNL     1       0.721  -0.495  -1.260  0.00  0.00    +0.000 C 
BRANCH  28  30
ATOM     29  C   UNL     1      -0.015   1.529   0.007  0.00  0.00    +0.004 C 
ATOM     30  C   UNL     1       0.004  -0.001  -0.001  0.00  0.00    -0.003 C 
ENDBRANCH  28  30
ENDBRANCH  27  28
ENDBRANCH  21  27
ENDBRANCH   1  24
TORSDOF 5
