REMARK  Name = ZINC16382471
REMARK  6 active torsions:
REMARK  status: ('A' for Active; 'I' for Inactive)
REMARK    1  A    between atoms: C_4  and  C_7
REMARK    2  A    between atoms: C_8  and  C_26
REMARK    3  A    between atoms: C_9  and  C_15
REMARK    4  A    between atoms: C_20  and  O_21
REMARK    5  A    between atoms: O_21  and  C_22
REMARK    6  A    between atoms: C_22  and  C_23
REMARK                            x       y       z     vdW  Elec       q    Type
REMARK                         _______ _______ _______ _____ _____    ______ ____
ROOT
ATOM      1  C   UNL     1      -2.534   0.541  -0.233  0.00  0.00    +0.050 C 
ATOM      2  C   UNL     1      -3.548   1.425  -0.005  0.00  0.00    +0.060 C 
ATOM      3  C   UNL     1      -4.902   0.859   0.375  0.00  0.00    +0.143 C 
ATOM      4  N   UNL     1      -5.010  -0.606   0.477  0.00  0.00    -0.315 N 
ATOM      5  C   UNL     1      -3.917  -1.353   0.227  0.00  0.00    +0.135 C 
ATOM      6  S   UNL     1      -4.040  -3.057   0.345  0.00  0.00    -0.019 S 
ATOM      7  N   UNL     1      -2.740  -0.813  -0.110  0.00  0.00    -0.296 N 
ATOM      8  H   UNL     1      -5.850  -1.024   0.719  0.00  0.00    +0.149 HD
ATOM      9  H   UNL     1      -1.992  -1.408  -0.276  0.00  0.00    +0.154 HD
ENDROOT
BRANCH   3  10
ATOM     10  C   UNL     1      -5.907   1.328  -0.644  0.00  0.00    +0.020 A 
ATOM     11  C   UNL     1      -6.291   0.491  -1.674  0.00  0.00    +0.024 A 
ATOM     12  C   UNL     1      -7.218   0.919  -2.607  0.00  0.00    +0.018 A 
ATOM     13  C   UNL     1      -7.755   2.192  -2.517  0.00  0.00    +0.019 A 
ATOM     14  C   UNL     1      -7.371   3.034  -1.492  0.00  0.00    +0.047 A 
ATOM     15  C   UNL     1      -6.445   2.604  -0.552  0.00  0.00    +0.127 A 
ATOM     16 BR   UNL     1      -7.746  -0.232  -4.011  0.00  0.00    -0.050 Br
BRANCH  15  17
ATOM     17  O   UNL     1      -6.065   3.431   0.457  0.00  0.00    -0.477 OA
BRANCH  17  18
ATOM     18  C   UNL     1      -6.743   4.685   0.557  0.00  0.00    +0.346 C 
BRANCH  18  19
ATOM     19  C   UNL     1      -6.205   5.444   1.699  0.00  0.00    +0.104 C 
ATOM     20  N   UNL     1      -5.790   6.029   2.579  0.00  0.00    -0.193 NA
ENDBRANCH  18  19
ENDBRANCH  17  18
ENDBRANCH  15  17
ENDBRANCH   3  10
BRANCH   1  24
ATOM     21  C   UNL     1       1.306   1.993  -1.320  0.00  0.00    +0.000 A 
ATOM     22  C   UNL     1       0.720   0.977  -2.055  0.00  0.00    +0.001 A 
ATOM     23  C   UNL     1      -0.525   0.498  -1.705  0.00  0.00    +0.010 A 
ATOM     24  C   UNL     1      -1.197   1.044  -0.609  0.00  0.00    -0.003 A 
ATOM     25  C   UNL     1      -0.598   2.065   0.131  0.00  0.00    +0.010 A 
ATOM     26  C   UNL     1       0.648   2.535  -0.230  0.00  0.00    +0.001 A 
ENDBRANCH   1  24
BRANCH   2  27
ATOM     27  C   UNL     1      -3.345   2.816  -0.123  0.00  0.00    +0.241 C 
ATOM     28  O   UNL     1      -3.219   3.501   0.876  0.00  0.00    -0.271 OA
ATOM     29  N   UNL     1      -3.290   3.388  -1.343  0.00  0.00    -0.325 N 
ATOM     30  H   UNL     1      -3.316   2.835  -2.139  0.00  0.00    +0.145 HD
ATOM     31  H   UNL     1      -3.224   4.353  -1.424  0.00  0.00    +0.145 HD
ENDBRANCH   2  27
TORSDOF 6
