REMARK  Name = ZINC08901151
REMARK  7 active torsions:
REMARK  status: ('A' for Active; 'I' for Inactive)
REMARK    1  A    between atoms: C_4  and  S_10
REMARK    2  A    between atoms: C_5  and  N_7
REMARK    3  A    between atoms: S_10  and  N_13
REMARK    4  A    between atoms: N_13  and  C_14
REMARK    5  A    between atoms: C_14  and  C_15
REMARK    6  A    between atoms: C_15  and  C_17
REMARK    7  A    between atoms: C_15  and  N_50
REMARK                            x       y       z     vdW  Elec       q    Type
REMARK                         _______ _______ _______ _____ _____    ______ ____
ROOT
ATOM      1  C   UNL     1      -0.576   1.500  -0.484  0.00  0.00    +0.095 C 
ENDROOT
BRANCH   1   2
ATOM      2  N   UNL     1      -1.443   1.482  -1.665  0.00  0.00    -0.191 NA
ATOM      3  H   UNL     1      -2.402   1.582  -1.564  0.00  0.00    +0.148 HD
BRANCH   2   4
ATOM      4  S   UNL     1      -0.784   1.293  -3.172  0.00  0.00    +0.061 S 
ATOM      5  O   UNL     1      -1.871   1.187  -4.081  0.00  0.00    -0.153 OA
ATOM      6  O   UNL     1       0.224   2.286  -3.303  0.00  0.00    -0.153 OA
BRANCH   4  10
ATOM      7  C   UNL     1       1.331  -2.709  -3.216  0.00  0.00    +0.002 A 
ATOM      8  C   UNL     1       2.052  -1.545  -3.403  0.00  0.00    +0.002 A 
ATOM      9  C   UNL     1       1.405  -0.323  -3.395  0.00  0.00    +0.031 A 
ATOM     10  C   UNL     1       0.039  -0.265  -3.189  0.00  0.00    +0.135 A 
ATOM     11  C   UNL     1      -0.681  -1.429  -3.002  0.00  0.00    +0.152 A 
ATOM     12  C   UNL     1      -0.035  -2.652  -3.016  0.00  0.00    +0.035 A 
BRANCH  11  13
ATOM     13  N   UNL     1      -2.145  -1.368  -2.788  0.00  0.00    +0.058 N 
ATOM     14  O   UNL     1      -2.798  -2.395  -2.748  0.00  0.00    -0.126 OA
ATOM     15  O   UNL     1      -2.696  -0.290  -2.652  0.00  0.00    -0.126 OA
ENDBRANCH  11  13
ENDBRANCH   4  10
ENDBRANCH   2   4
ENDBRANCH   1   2
BRANCH   1  16
ATOM     16  C   UNL     1      -1.291   2.218   0.663  0.00  0.00    -0.021 C 
BRANCH  16  23
ATOM     17  C   UNL     1      -1.245   4.471   1.573  0.00  0.00    -0.078 C 
ATOM     18  C   UNL     1      -1.616   5.913   1.357  0.00  0.00    -0.019 C 
ATOM     19  C   UNL     1      -3.095   6.103   1.754  0.00  0.00    -0.002 C 
ATOM     20  C   UNL     1      -4.008   5.630   0.719  0.00  0.00    -0.002 C 
ATOM     21  C   UNL     1      -3.839   4.122   0.438  0.00  0.00    -0.019 C 
ATOM     22  C   UNL     1      -2.625   3.931  -0.430  0.00  0.00    -0.078 C 
ATOM     23  N   UNL     1      -1.354   3.647   0.321  0.00  0.00    +0.385 N 
ATOM     24  H   UNL     1      -0.560   3.878  -0.289  0.00  0.00    -0.081 HD
ENDBRANCH  16  23
BRANCH  16  25
ATOM     25  C   UNL     1      -0.505   2.039   1.936  0.00  0.00    -0.053 A 
ATOM     26  C   UNL     1      -0.931   1.150   2.904  0.00  0.00    +0.009 A 
ATOM     27  C   UNL     1      -0.198   1.008   4.035  0.00  0.00    +0.045 A 
ATOM     28  S   UNL     1       1.135   2.164   3.758  0.00  0.00    -0.105 S 
ATOM     29  C   UNL     1       0.628   2.751   2.150  0.00  0.00    +0.047 A 
ENDBRANCH  16  25
ENDBRANCH   1  16
TORSDOF 7
