REMARK  Name = ZINC36588647
REMARK  16 active torsions:
REMARK  status: ('A' for Active; 'I' for Inactive)
REMARK    1  A    between atoms: C_1  and  C_2
REMARK    2  A    between atoms: C_2  and  C_3
REMARK    3  A    between atoms: C_2  and  C_4
REMARK    4  A    between atoms: C_2  and  N_5
REMARK    5  A    between atoms: C_6  and  C_8
REMARK    6  A    between atoms: C_8  and  C_10
REMARK    7  A    between atoms: C_8  and  N_17
REMARK    8  A    between atoms: C_15  and  O_16
REMARK    9  A    between atoms: N_17  and  C_34
REMARK   10  A    between atoms: C_18  and  C_20
REMARK   11  A    between atoms: C_20  and  C_21
REMARK   12  A    between atoms: C_20  and  C_27
REMARK   13  A    between atoms: C_20  and  O_33
REMARK   14  A    between atoms: C_34  and  C_35
REMARK   15  A    between atoms: C_34  and  C_36
REMARK   16  A    between atoms: C_34  and  C_37
REMARK                            x       y       z     vdW  Elec       q    Type
REMARK                         _______ _______ _______ _____ _____    ______ ____
ROOT
ATOM      1  N   UNL     1       2.904   1.115  -2.085  0.00  0.00    -0.278 N 
ATOM      2  C   UNL     1       2.775  -0.170  -1.700  0.00  0.00    +0.258 C 
ATOM      3  O   UNL     1       1.700  -0.584  -1.321  0.00  0.00    -0.272 OA
ENDROOT
BRANCH   1   4
ATOM      4  C   UNL     1       4.207   1.623  -2.521  0.00  0.00    +0.030 C 
ATOM      5  C   UNL     1       4.261   3.137  -2.310  0.00  0.00    +0.031 C 
ATOM      6  C   UNL     1       5.314   0.954  -1.702  0.00  0.00    +0.031 C 
ATOM      7  C   UNL     1       4.408   1.306  -4.004  0.00  0.00    +0.031 C 
ENDBRANCH   1   4
BRANCH   1   8
ATOM      8  C   UNL     1       1.740   2.005  -2.068  0.00  0.00    +0.196 C 
BRANCH   8   9
ATOM      9  C   UNL     1       1.037   1.888  -0.741  0.00  0.00    +0.023 A 
ATOM     10  C   UNL     1      -0.103   1.115  -0.627  0.00  0.00    +0.009 A 
ATOM     11  C   UNL     1      -0.748   1.008   0.591  0.00  0.00    +0.001 A 
ATOM     12  C   UNL     1      -0.255   1.673   1.698  0.00  0.00    +0.004 A 
ATOM     13  C   UNL     1       0.885   2.446   1.590  0.00  0.00    +0.046 A 
ATOM     14  C   UNL     1       1.537   2.551   0.370  0.00  0.00    +0.122 A 
BRANCH  14  15
ATOM     15  O   UNL     1       2.662   3.307   0.263  0.00  0.00    -0.506 OA
ATOM     16  H   UNL     1       2.491   4.246   0.109  0.00  0.00    +0.292 HD
ENDBRANCH  14  15
ENDBRANCH   8   9
BRANCH   8  18
ATOM     17  N   UNL     1      -0.288   2.376  -3.435  0.00  0.00    -0.309 N 
ATOM     18  C   UNL     1       0.793   1.615  -3.174  0.00  0.00    +0.239 C 
ATOM     19  O   UNL     1       1.004   0.616  -3.829  0.00  0.00    -0.273 OA
ATOM     20  H   UNL     1      -0.496   3.134  -2.867  0.00  0.00    +0.149 HD
BRANCH  17  22
ATOM     21  C   UNL     1      -1.721   0.649  -4.408  0.00  0.00    +0.031 C 
ATOM     22  C   UNL     1      -1.149   2.058  -4.577  0.00  0.00    +0.026 C 
ATOM     23  C   UNL     1      -0.330   2.124  -5.868  0.00  0.00    +0.031 C 
ATOM     24  C   UNL     1      -2.296   3.068  -4.648  0.00  0.00    +0.031 C 
ENDBRANCH  17  22
ENDBRANCH   8  18
ENDBRANCH   1   8
BRANCH   2  25
ATOM     25  C   UNL     1       3.966  -1.092  -1.742  0.00  0.00    +0.192 C 
BRANCH  25  26
ATOM     26  C   UNL     1       3.520  -2.502  -1.453  0.00  0.00    -0.003 A 
ATOM     27  C   UNL     1       2.341  -2.979  -1.995  0.00  0.00    +0.007 A 
ATOM     28  C   UNL     1       1.933  -4.273  -1.729  0.00  0.00    +0.000 A 
ATOM     29  C   UNL     1       2.703  -5.089  -0.922  0.00  0.00    +0.000 A 
ATOM     30  C   UNL     1       3.882  -4.612  -0.381  0.00  0.00    +0.000 A 
ATOM     31  C   UNL     1       4.293  -3.320  -0.650  0.00  0.00    +0.007 A 
ENDBRANCH  25  26
BRANCH  25  32
ATOM     32  C   UNL     1       4.598  -1.035  -3.109  0.00  0.00    -0.003 A 
ATOM     33  C   UNL     1       3.805  -0.872  -4.230  0.00  0.00    +0.007 A 
ATOM     34  C   UNL     1       4.385  -0.820  -5.484  0.00  0.00    +0.000 A 
ATOM     35  C   UNL     1       5.756  -0.931  -5.617  0.00  0.00    +0.000 A 
ATOM     36  C   UNL     1       6.548  -1.093  -4.496  0.00  0.00    +0.000 A 
ATOM     37  C   UNL     1       5.970  -1.141  -3.242  0.00  0.00    +0.007 A 
ENDBRANCH  25  32
BRANCH  25  38
ATOM     38  O   UNL     1       4.920  -0.683  -0.760  0.00  0.00    -0.371 OA
ATOM     39  H   UNL     1       4.608  -0.771   0.151  0.00  0.00    +0.212 HD
ENDBRANCH  25  38
ENDBRANCH   2  25
TORSDOF 10
