REMARK  Name = ZINC01307350
REMARK  7 active torsions:
REMARK  status: ('A' for Active; 'I' for Inactive)
REMARK    1  A    between atoms: C_1  and  C_2
REMARK    2  A    between atoms: C_3  and  C_12
REMARK    3  A    between atoms: N_10  and  C_11
REMARK    4  A    between atoms: N_13  and  N_14
REMARK    5  A    between atoms: C_15  and  C_17
REMARK    6  A    between atoms: C_17  and  N_18
REMARK    7  A    between atoms: N_18  and  C_19
REMARK                            x       y       z     vdW  Elec       q    Type
REMARK                         _______ _______ _______ _____ _____    ______ ____
ROOT
ATOM      1  N   UNL     1       2.689   7.306   0.013  0.00  0.00    -0.206 N 
ATOM      2  C   UNL     1       4.021   7.097  -0.001  0.00  0.00    +0.249 C 
ATOM      3  O   UNL     1       4.457   5.965  -0.011  0.00  0.00    -0.272 OA
ATOM      4  H   UNL     1       2.340   8.211   0.020  0.00  0.00    +0.177 HD
ENDROOT
BRANCH   1   6
ATOM      5  C   UNL     1       0.526   6.416   0.030  0.00  0.00    +0.140 C 
ATOM      6  N   UNL     1       1.809   6.215   0.016  0.00  0.00    -0.188 NA
BRANCH   5   9
ATOM      7  C   UNL     1      -2.577   6.587   0.062  0.00  0.00    +0.064 C 
ATOM      8  C   UNL     1      -1.757   5.323   0.047  0.00  0.00    +0.025 A 
ATOM      9  C   UNL     1      -0.398   5.271   0.033  0.00  0.00    +0.023 A 
ATOM     10  C   UNL     1      -0.032   3.843   0.022  0.00  0.00    +0.009 A 
ATOM     11  C   UNL     1       1.181   3.156   0.007  0.00  0.00    +0.010 A 
ATOM     12  C   UNL     1       1.184   1.779   0.000  0.00  0.00    +0.001 A 
ATOM     13  C   UNL     1      -0.013   1.076   0.008  0.00  0.00    +0.002 A 
ATOM     14  C   UNL     1      -1.218   1.742   0.017  0.00  0.00    +0.026 A 
ATOM     15  C   UNL     1      -1.243   3.133   0.031  0.00  0.00    +0.050 A 
ATOM     16  N   UNL     1      -2.265   4.058   0.045  0.00  0.00    -0.346 N 
ATOM     17  C   UNL     1      -3.693   3.729   0.058  0.00  0.00    +0.149 C 
ENDBRANCH   5   9
ENDBRANCH   1   6
BRANCH   2  18
ATOM     18  C   UNL     1       4.967   8.270  -0.005  0.00  0.00    +0.199 C 
BRANCH  18  19
ATOM     19  N   UNL     1       6.348   7.783  -0.021  0.00  0.00    -0.335 N 
ATOM     20  H   UNL     1       6.526   6.830  -0.027  0.00  0.00    +0.147 HD
BRANCH  19  21
ATOM     21  C   UNL     1       7.409   8.691  -0.027  0.00  0.00    +0.028 A 
ATOM     22  C   UNL     1       7.144  10.066  -0.024  0.00  0.00    +0.023 A 
ATOM     23  C   UNL     1       8.156  10.973  -0.023  0.00  0.00    +0.010 A 
ATOM     24  C   UNL     1       9.491  10.532  -0.038  0.00  0.00    -0.018 A 
ATOM     25  C   UNL     1      10.558  11.447  -0.045  0.00  0.00    +0.008 A 
ATOM     26  C   UNL     1      11.840  10.988  -0.061  0.00  0.00    +0.001 A 
ATOM     27  C   UNL     1      12.113   9.621  -0.069  0.00  0.00    +0.001 A 
ATOM     28  C   UNL     1      11.105   8.706  -0.063  0.00  0.00    +0.008 A 
ATOM     29  C   UNL     1       9.769   9.142  -0.048  0.00  0.00    -0.016 A 
ATOM     30  C   UNL     1       8.705   8.226  -0.042  0.00  0.00    +0.031 A 
ENDBRANCH  19  21
ENDBRANCH  18  19
ENDBRANCH   2  18
TORSDOF 5
