REMARK  Name = ZINC13032859
REMARK  9 active torsions:
REMARK  status: ('A' for Active; 'I' for Inactive)
REMARK    1  A    between atoms: C_1  and  C_2
REMARK    2  A    between atoms: C_5  and  C_34
REMARK    3  A    between atoms: C_9  and  C_14
REMARK    4  A    between atoms: C_14  and  N_63
REMARK    5  A    between atoms: C_15  and  C_16
REMARK    6  A    between atoms: C_15  and  N_63
REMARK    7  A    between atoms: N_20  and  C_21
REMARK    8  A    between atoms: C_21  and  C_22
REMARK    9  A    between atoms: C_29  and  N_63
REMARK                            x       y       z     vdW  Elec       q    Type
REMARK                         _______ _______ _______ _____ _____    ______ ____
ROOT
ATOM      1  N   UNL     1       2.868   4.047   1.353  0.00  0.00    +0.389 N 
ATOM      2  H   UNL     1       1.920   4.330   1.625  0.00  0.00    -0.080 HD
ENDROOT
BRANCH   1   3
ATOM      3  C   UNL     1       3.220   2.799   2.063  0.00  0.00    -0.068 C 
ATOM      4  C   UNL     1       2.822   2.928   3.548  0.00  0.00    -0.015 C 
ATOM      5  C   UNL     1       3.941   2.175   4.308  0.00  0.00    -0.002 C 
ATOM      6  C   UNL     1       5.211   2.547   3.503  0.00  0.00    -0.002 C 
ATOM      7  C   UNL     1       4.739   2.557   2.035  0.00  0.00    -0.015 C 
ENDBRANCH   1   3
BRANCH   1   8
ATOM      8  C   UNL     1       2.902   3.823  -0.108  0.00  0.00    -0.037 C 
BRANCH   8  17
ATOM      9  C   UNL     1      -1.926   4.765  -1.817  0.00  0.00    +0.044 C 
ATOM     10  C   UNL     1      -1.769   3.269  -1.720  0.00  0.00    -0.041 A 
ATOM     11  C   UNL     1      -2.801   2.447  -2.074  0.00  0.00    +0.004 A 
ATOM     12  C   UNL     1      -2.667   1.068  -1.987  0.00  0.00    +0.005 A 
ATOM     13  C   UNL     1      -1.488   0.502  -1.554  0.00  0.00    -0.026 A 
ATOM     14  C   UNL     1      -0.420   1.319  -1.199  0.00  0.00    +0.052 A 
ATOM     15  C   UNL     1      -0.561   2.717  -1.282  0.00  0.00    +0.002 A 
ATOM     16  C   UNL     1       0.571   3.568  -0.912  0.00  0.00    +0.017 A 
ATOM     17  C   UNL     1       1.717   2.976  -0.496  0.00  0.00    +0.001 A 
ATOM     18  C   UNL     1       1.806   1.569  -0.424  0.00  0.00    +0.251 A 
ATOM     19  O   UNL     1       2.846   1.058  -0.047  0.00  0.00    -0.268 OA
ATOM     20  N   UNL     1       0.772   0.779  -0.762  0.00  0.00    -0.322 N 
ATOM     21  H   UNL     1       0.867  -0.184  -0.702  0.00  0.00    +0.169 HD
ATOM     22  C   UNL     1      -1.356  -0.997  -1.465  0.00  0.00    +0.046 C 
ENDBRANCH   8  17
ENDBRANCH   1   8
BRANCH   1  23
ATOM     23  C   UNL     1       3.814   5.121   1.721  0.00  0.00    +0.001 C 
BRANCH  23  24
ATOM     24  C   UNL     1       3.611   5.471   3.173  0.00  0.00    +0.135 A 
ATOM     25  N   UNL     1       4.327   5.051   4.187  0.00  0.00    -0.115 NA
ATOM     26  N   UNL     1       3.841   5.571   5.260  0.00  0.00    -0.023 NA
ATOM     27  N   UNL     1       2.833   6.312   4.958  0.00  0.00    -0.044 NA
ATOM     28  N   UNL     1       2.662   6.281   3.679  0.00  0.00    -0.227 N 
BRANCH  28  29
ATOM     29  C   UNL     1       1.629   6.990   2.921  0.00  0.00    +0.182 C 
BRANCH  29  30
ATOM     30  C   UNL     1       0.403   6.121   2.808  0.00  0.00    -0.026 A 
ATOM     31  C   UNL     1       0.264   5.259   1.736  0.00  0.00    +0.008 A 
ATOM     32  C   UNL     1      -0.858   4.457   1.634  0.00  0.00    +0.038 A 
ATOM     33  C   UNL     1      -1.847   4.525   2.600  0.00  0.00    +0.123 A 
ATOM     34  C   UNL     1      -1.709   5.393   3.671  0.00  0.00    +0.038 A 
ATOM     35  C   UNL     1      -0.584   6.189   3.774  0.00  0.00    +0.008 A 
ATOM     36  F   UNL     1      -2.945   3.746   2.499  0.00  0.00    -0.205 F 
ENDBRANCH  29  30
ENDBRANCH  28  29
ENDBRANCH  23  24
ENDBRANCH   1  23
TORSDOF 7
