REMARK  Name = ZINC39503258
REMARK  8 active torsions:
REMARK  status: ('A' for Active; 'I' for Inactive)
REMARK    1  A    between atoms: C_1  and  C_2
REMARK    2  A    between atoms: C_2  and  O_3
REMARK    3  A    between atoms: O_3  and  C_4
REMARK    4  A    between atoms: C_11  and  S_22
REMARK    5  A    between atoms: N_14  and  C_15
REMARK    6  A    between atoms: C_15  and  C_16
REMARK    7  A    between atoms: S_22  and  O_25
REMARK    8  A    between atoms: O_25  and  C_26
REMARK                            x       y       z     vdW  Elec       q    Type
REMARK                         _______ _______ _______ _____ _____    ______ ____
ROOT
ATOM      1  C   UNL     1       1.432  -0.917   1.673  0.00  0.00    +0.117 C 
ATOM      2  C   UNL     1       0.122  -1.409   2.325  0.00  0.00    +0.030 C 
ATOM      3  C   UNL     1       0.484  -2.798   2.911  0.00  0.00    -0.009 C 
ATOM      4  C   UNL     1       1.925  -2.589   3.412  0.00  0.00    -0.061 C 
ATOM      5  C   UNL     1       2.581  -1.666   2.376  0.00  0.00    +0.020 C 
ATOM      6  C   UNL     1       1.919  -1.933   4.800  0.00  0.00    +0.016 C 
ATOM      7  C   UNL     1       2.150  -3.139   5.751  0.00  0.00    +0.154 C 
ATOM      8  C   UNL     1       3.104  -4.025   4.911  0.00  0.00    -0.048 C 
ATOM      9  N   UNL     1       2.636  -3.866   3.514  0.00  0.00    +0.388 N 
ATOM     10  H   UNL     1       2.013  -4.623   3.276  0.00  0.00    -0.080 HD
ENDROOT
BRANCH   7  11
ATOM     11  S   UNL     1       2.946  -2.607   7.292  0.00  0.00    +0.122 S 
ATOM     12  O   UNL     1       4.242  -2.091   7.021  0.00  0.00    -0.137 OA
ATOM     13  O   UNL     1       2.027  -1.874   8.090  0.00  0.00    -0.137 OA
BRANCH  11  14
ATOM     14  O   UNL     1       3.195  -3.892   8.068  0.00  0.00    -0.346 OA
BRANCH  14  15
ATOM     15  C   UNL     1       2.078  -4.423   8.632  0.00  0.00    +0.156 A 
ATOM     16  C   UNL     1       1.696  -4.040   9.910  0.00  0.00    +0.048 A 
ATOM     17  C   UNL     1       0.560  -4.580  10.481  0.00  0.00    +0.004 A 
ATOM     18  C   UNL     1      -0.196  -5.501   9.780  0.00  0.00    +0.000 A 
ATOM     19  C   UNL     1       0.183  -5.885   8.507  0.00  0.00    +0.004 A 
ATOM     20  C   UNL     1       1.314  -5.343   7.929  0.00  0.00    +0.048 A 
ENDBRANCH  14  15
ENDBRANCH  11  14
ENDBRANCH   7  11
BRANCH   1  21
ATOM     21  O   UNL     1       1.575   0.491   1.865  0.00  0.00    -0.377 OA
BRANCH  21  23
ATOM     22  C   UNL     1       1.246   2.764   1.113  0.00  0.00    +0.034 C 
ATOM     23  C   UNL     1       1.038   1.280   0.802  0.00  0.00    +0.157 C 
ENDBRANCH  21  23
ENDBRANCH   1  21
BRANCH   9  24
ATOM     24  C   UNL     1       3.788  -3.867   2.603  0.00  0.00    -0.042 C 
BRANCH  24  25
ATOM     25  C   UNL     1       4.510  -5.186   2.707  0.00  0.00    -0.064 A 
ATOM     26  C   UNL     1       5.527  -5.347   3.629  0.00  0.00    +0.002 A 
ATOM     27  C   UNL     1       6.189  -6.557   3.724  0.00  0.00    +0.000 A 
ATOM     28  C   UNL     1       5.833  -7.606   2.897  0.00  0.00    +0.000 A 
ATOM     29  C   UNL     1       4.816  -7.446   1.975  0.00  0.00    +0.000 A 
ATOM     30  C   UNL     1       4.151  -6.237   1.883  0.00  0.00    +0.002 A 
ENDBRANCH  24  25
ENDBRANCH   9  24
TORSDOF 7
