REMARK  Name = ZINC20867325
REMARK  6 active torsions:
REMARK  status: ('A' for Active; 'I' for Inactive)
REMARK    1  A    between atoms: C_1  and  C_2
REMARK    2  A    between atoms: C_7  and  C_8
REMARK    3  A    between atoms: C_8  and  N_9
REMARK    4  A    between atoms: N_9  and  C_10
REMARK    5  A    between atoms: C_12  and  C_17
REMARK    6  A    between atoms: C_14  and  C_16
REMARK                            x       y       z     vdW  Elec       q    Type
REMARK                         _______ _______ _______ _____ _____    ______ ____
ROOT
ATOM      1  N   UNL     1      -0.027   5.286   0.069  0.00  0.00    -0.277 N 
ATOM      2  C   UNL     1       1.129   6.031   0.132  0.00  0.00    +0.136 C 
ATOM      3  N   UNL     1       1.236   7.356   0.204  0.00  0.00    -0.362 N 
ATOM      4  C   UNL     1       2.549   7.902   0.141  0.00  0.00    +0.117 C 
ATOM      5  C   UNL     1       2.933   9.324   0.499  0.00  0.00    +0.191 C 
ATOM      6  S   UNL     1       4.780   9.178   0.481  0.00  0.00    -0.028 S 
ATOM      7  O   UNL     1       5.287   9.539   1.758  0.00  0.00    -0.174 OA
ATOM      8  O   UNL     1       5.285   9.822  -0.681  0.00  0.00    -0.174 OA
ATOM      9  C   UNL     1       4.928   7.340   0.268  0.00  0.00    +0.182 C 
ATOM     10  C   UNL     1       3.567   6.932   0.844  0.00  0.00    +0.099 C 
ATOM     11  S   UNL     1       2.823   5.424   0.128  0.00  0.00    -0.085 S 
ATOM     12  H   UNL     1       0.333   7.975   0.308  0.00  0.00    +0.162 HD
ENDROOT
BRANCH   1  13
ATOM     13  C   UNL     1       0.037   3.889   0.115  0.00  0.00    +0.036 A 
ATOM     14  C   UNL     1       0.597   3.254   1.216  0.00  0.00    +0.027 A 
ATOM     15  C   UNL     1       0.658   1.875   1.258  0.00  0.00    -0.048 A 
ATOM     16  C   UNL     1       0.164   1.127   0.205  0.00  0.00    +0.006 A 
ATOM     17  C   UNL     1      -0.389   1.756  -0.894  0.00  0.00    -0.048 A 
ATOM     18  C   UNL     1      -0.459   3.135  -0.941  0.00  0.00    +0.027 A 
ATOM     19  C   UNL     1      -0.921   0.937  -2.042  0.00  0.00    +0.044 C 
ATOM     20  C   UNL     1       1.266   1.185   2.452  0.00  0.00    +0.044 C 
ENDBRANCH   1  13
BRANCH   1  21
ATOM     21  C   UNL     1      -1.325   5.956  -0.046  0.00  0.00    +0.148 C 
BRANCH  21  28
ATOM     22  C   UNL     1      -2.644   3.995   1.616  0.00  0.00    +0.044 C 
ATOM     23  C   UNL     1      -2.447   5.401   2.121  0.00  0.00    -0.046 A 
ATOM     24  C   UNL     1      -2.897   5.753   3.380  0.00  0.00    +0.003 A 
ATOM     25  C   UNL     1      -2.716   7.042   3.844  0.00  0.00    +0.000 A 
ATOM     26  C   UNL     1      -2.084   7.981   3.049  0.00  0.00    +0.000 A 
ATOM     27  C   UNL     1      -1.630   7.628   1.792  0.00  0.00    +0.005 A 
ATOM     28  C   UNL     1      -1.816   6.339   1.326  0.00  0.00    -0.027 A 
ENDBRANCH  21  28
ENDBRANCH   1  21
TORSDOF 3
