REMARK  Name = ZINC20566715
REMARK  11 active torsions:
REMARK  status: ('A' for Active; 'I' for Inactive)
REMARK    1  A    between atoms: C_1  and  C_2
REMARK    2  A    between atoms: C_2  and  C_3
REMARK    3  A    between atoms: C_2  and  O_4
REMARK    4  A    between atoms: O_4  and  C_5
REMARK    5  A    between atoms: C_8  and  C_13
REMARK    6  A    between atoms: C_10  and  O_11
REMARK    7  A    between atoms: O_11  and  C_12
REMARK    8  A    between atoms: C_14  and  C_23
REMARK    9  A    between atoms: C_15  and  N_22
REMARK   10  A    between atoms: C_17  and  N_21
REMARK   11  A    between atoms: C_18  and  C_19
REMARK                            x       y       z     vdW  Elec       q    Type
REMARK                         _______ _______ _______ _____ _____    ______ ____
ROOT
ATOM      1  C   UNL     1       1.094   3.530  -0.874  0.00  0.00    +0.105 C 
ATOM      2  C   UNL     1       0.320   4.161   0.231  0.00  0.00    +0.069 C 
ATOM      3  C   UNL     1      -0.978   4.499   0.184  0.00  0.00    +0.079 C 
ATOM      4  S   UNL     1      -1.982   4.250  -1.233  0.00  0.00    -0.058 S 
ATOM      5  C   UNL     1      -0.761   4.095  -2.483  0.00  0.00    +0.079 C 
ATOM      6  C   UNL     1       0.522   3.790  -2.224  0.00  0.00    +0.069 C 
ENDROOT
BRANCH   1  10
ATOM      7  C   UNL     1       1.200  -0.696  -0.226  0.00  0.00    +0.162 A 
ATOM      8  C   UNL     1      -0.012  -0.052  -0.423  0.00  0.00    +0.050 A 
ATOM      9  C   UNL     1      -0.042   1.314  -0.632  0.00  0.00    +0.008 A 
ATOM     10  C   UNL     1       1.134   2.041  -0.645  0.00  0.00    -0.030 A 
ATOM     11  C   UNL     1       2.345   1.405  -0.449  0.00  0.00    +0.054 A 
ATOM     12  C   UNL     1       2.383   0.035  -0.239  0.00  0.00    +0.162 A 
BRANCH  12  13
ATOM     13  O   UNL     1       3.574  -0.592  -0.047  0.00  0.00    -0.491 OA
ATOM     14  C   UNL     1       4.748   0.223  -0.073  0.00  0.00    +0.277 C 
ENDBRANCH  12  13
BRANCH   7  15
ATOM     15  O   UNL     1       1.232  -2.040  -0.021  0.00  0.00    -0.486 OA
BRANCH  15  17
ATOM     16  C   UNL     1      -0.555  -3.052  -1.296  0.00  0.00    +0.051 C 
ATOM     17  C   UNL     1      -0.026  -2.708   0.098  0.00  0.00    +0.167 C 
ATOM     18  C   UNL     1       0.154  -3.995   0.906  0.00  0.00    +0.051 C 
ENDBRANCH  15  17
ENDBRANCH   7  15
ENDBRANCH   1  10
BRANCH   5  19
ATOM     19  N   UNL     1      -1.134   4.295  -3.791  0.00  0.00    -0.352 N 
ATOM     20  H   UNL     1      -0.390   4.205  -4.596  0.00  0.00    +0.143 HD
ATOM     21  H   UNL     1      -2.178   4.546  -4.033  0.00  0.00    +0.143 HD
ENDBRANCH   5  19
BRANCH   3  22
ATOM     22  N   UNL     1      -1.549   5.066   1.299  0.00  0.00    -0.352 N 
ATOM     23  H   UNL     1      -2.611   5.353   1.287  0.00  0.00    +0.143 HD
ATOM     24  H   UNL     1      -0.944   5.234   2.202  0.00  0.00    +0.143 HD
ENDBRANCH   3  22
BRANCH   6  25
ATOM     25  C   UNL     1       1.415   3.707  -3.341  0.00  0.00    +0.098 C 
ATOM     26  N   UNL     1       2.123   3.641  -4.227  0.00  0.00    -0.191 NA
ENDBRANCH   6  25
BRANCH   2  27
ATOM     27  C   UNL     1       1.019   4.432   1.451  0.00  0.00    +0.098 C 
ATOM     28  N   UNL     1       1.574   4.647   2.418  0.00  0.00    -0.191 NA
ENDBRANCH   2  27
TORSDOF 8
