REMARK  Name = ZINC12443411
REMARK  6 active torsions:
REMARK  status: ('A' for Active; 'I' for Inactive)
REMARK    1  A    between atoms: C_4  and  C_7
REMARK    2  A    between atoms: C_7  and  C_8
REMARK    3  A    between atoms: C_8  and  C_10
REMARK    4  A    between atoms: C_8  and  N_13
REMARK    5  A    between atoms: C_14  and  C_16
REMARK    6  A    between atoms: C_16  and  C_17
REMARK                            x       y       z     vdW  Elec       q    Type
REMARK                         _______ _______ _______ _____ _____    ______ ____
ROOT
ATOM      1  N   UNL     1      -0.923   3.346  -1.400  0.00  0.00    -0.304 N 
ATOM      2  C   UNL     1      -0.846   2.024  -1.147  0.00  0.00    +0.215 C 
ATOM      3  O   UNL     1      -1.442   1.236  -1.850  0.00  0.00    -0.276 OA
ATOM      4  H   UNL     1      -0.446   3.976  -0.837  0.00  0.00    +0.149 HD
ENDROOT
BRANCH   1   5
ATOM      5  C   UNL     1      -1.727   3.830  -2.524  0.00  0.00    +0.163 C 
BRANCH   5   6
ATOM      6  C   UNL     1      -0.905   3.784  -3.786  0.00  0.00    +0.231 C 
ATOM      7  O   UNL     1       0.240   3.385  -3.750  0.00  0.00    -0.274 OA
ATOM      8  N   UNL     1      -1.442   4.185  -4.956  0.00  0.00    -0.328 N 
ATOM      9  H   UNL     1      -2.357   4.504  -4.985  0.00  0.00    +0.145 HD
ATOM     10  H   UNL     1      -0.913   4.155  -5.768  0.00  0.00    +0.145 HD
ENDBRANCH   5   6
BRANCH   5  11
ATOM     11  C   UNL     1      -2.166   5.271  -2.254  0.00  0.00    +0.067 C 
BRANCH  11  15
ATOM     12  C   UNL     1      -4.780   5.356   1.123  0.00  0.00    +0.000 A 
ATOM     13  C   UNL     1      -3.416   5.492   1.301  0.00  0.00    +0.000 A 
ATOM     14  C   UNL     1      -2.570   5.465   0.208  0.00  0.00    +0.004 A 
ATOM     15  C   UNL     1      -3.088   5.301  -1.063  0.00  0.00    -0.045 A 
ATOM     16  C   UNL     1      -4.452   5.169  -1.242  0.00  0.00    +0.004 A 
ATOM     17  C   UNL     1      -5.298   5.191  -0.149  0.00  0.00    +0.000 A 
ENDBRANCH  11  15
ENDBRANCH   5  11
ENDBRANCH   1   5
BRANCH   2  18
ATOM     18  C   UNL     1      -0.019   1.526   0.010  0.00  0.00    +0.108 C 
BRANCH  18  19
ATOM     19  C   UNL     1       0.001  -0.004   0.001  0.00  0.00    +0.058 C 
ATOM     20  C   UNL     1       0.810  -0.400  -1.170  0.00  0.00    -0.036 A 
ATOM     21  C   UNL     1       2.142   0.057  -1.079  0.00  0.00    +0.004 A 
ATOM     22  C   UNL     1       3.086  -0.280  -2.015  0.00  0.00    +0.000 A 
ATOM     23  C   UNL     1       2.717  -1.097  -3.069  0.00  0.00    +0.000 A 
ATOM     24  C   UNL     1       1.411  -1.500  -3.170  0.00  0.00    +0.004 A 
ATOM     25  C   UNL     1       0.433  -1.119  -2.224  0.00  0.00    -0.043 A 
ATOM     26  C   UNL     1      -0.925  -1.625  -2.664  0.00  0.00    +0.040 C 
ATOM     27  C   UNL     1      -1.751  -2.240  -1.577  0.00  0.00    +0.040 C 
ATOM     28  C   UNL     1      -2.110  -1.302  -0.445  0.00  0.00    -0.043 A 
ATOM     29  C   UNL     1      -1.388  -0.438   0.258  0.00  0.00    -0.036 A 
ATOM     30  C   UNL     1      -1.947   0.188   1.393  0.00  0.00    +0.004 A 
ATOM     31  C   UNL     1      -3.249  -0.031   1.767  0.00  0.00    +0.000 A 
ATOM     32  C   UNL     1      -4.026  -0.881   1.000  0.00  0.00    +0.000 A 
ATOM     33  C   UNL     1      -3.465  -1.500  -0.086  0.00  0.00    +0.004 A 
ENDBRANCH  18  19
ENDBRANCH   2  18
TORSDOF 6
