REMARK  Name = ZINC63362627
REMARK  6 active torsions:
REMARK  status: ('A' for Active; 'I' for Inactive)
REMARK    1  A    between atoms: C_1  and  C_2
REMARK    2  A    between atoms: C_9  and  N_17
REMARK    3  A    between atoms: N_17  and  C_18
REMARK    4  A    between atoms: C_18  and  C_19
REMARK    5  A    between atoms: C_25  and  C_38
REMARK    6  A    between atoms: C_30  and  C_37
REMARK                            x       y       z     vdW  Elec       q    Type
REMARK                         _______ _______ _______ _____ _____    ______ ____
ROOT
ATOM      1  N   UNL     1       1.511  -7.277  -0.430  0.00  0.00    -0.310 NA
ATOM      2  H   UNL     1       1.490  -6.680  -1.242  0.00  0.00    +0.122 HD
ENDROOT
BRANCH   1  10
ATOM      3  C   UNL     1      -2.566  -2.050  -1.930  0.00  0.00    +0.044 C 
ATOM      4  C   UNL     1      -1.962  -3.418  -2.114  0.00  0.00    -0.050 A 
ATOM      5  C   UNL     1      -1.328  -3.727  -3.325  0.00  0.00    +0.005 A 
ATOM      6  C   UNL     1      -0.767  -4.931  -3.566  0.00  0.00    +0.026 A 
ATOM      7  C   UNL     1      -0.798  -5.952  -2.579  0.00  0.00    +0.043 A 
ATOM      8  N   UNL     1      -0.312  -7.173  -2.569  0.00  0.00    -0.376 N 
ATOM      9  C   UNL     1      -0.708  -7.819  -1.320  0.00  0.00    +0.123 C 
ATOM     10  C   UNL     1       0.495  -8.334  -0.527  0.00  0.00    +0.080 C 
ATOM     11  C   UNL     1       0.021  -8.729   0.875  0.00  0.00    +0.021 C 
ATOM     12  C   UNL     1      -0.468  -7.510   1.655  0.00  0.00    +0.006 C 
ATOM     13  C   UNL     1      -1.706  -6.909   0.968  0.00  0.00    +0.033 C 
ATOM     14  C   UNL     1      -1.369  -6.728  -0.494  0.00  0.00    -0.037 C 
ATOM     15  C   UNL     1      -1.457  -5.649  -1.284  0.00  0.00    -0.001 A 
ATOM     16  C   UNL     1      -2.042  -4.314  -1.104  0.00  0.00    +0.013 A 
ATOM     17  H   UNL     1       0.220  -7.577  -3.272  0.00  0.00    +0.160 HD
ENDBRANCH   1  10
BRANCH   1  18
ATOM     18  C   UNL     1       2.849  -7.850  -0.231  0.00  0.00    +0.096 C 
BRANCH  18  19
ATOM     19  C   UNL     1       3.878  -6.722  -0.135  0.00  0.00    +0.122 C 
ATOM     20  C   UNL     1       5.301  -7.295   0.006  0.00  0.00    +0.067 C 
ATOM     21  C   UNL     1       6.046  -7.314  -1.277  0.00  0.00    -0.019 C 
ATOM     22  C   UNL     1       6.837  -6.366  -1.685  0.00  0.00    -0.064 C 
ATOM     23  C   UNL     1       7.629  -6.568  -2.956  0.00  0.00    +0.012 C 
ATOM     24  C   UNL     1       9.077  -6.161  -2.776  0.00  0.00    +0.007 C 
ATOM     25  C   UNL     1       9.277  -4.895  -1.971  0.00  0.00    +0.001 C 
ATOM     26  C   UNL     1       8.533  -4.925  -0.639  0.00  0.00    +0.011 C 
ATOM     27  C   UNL     1       7.042  -5.099  -0.916  0.00  0.00    -0.007 C 
ATOM     28  C   UNL     1       6.199  -4.972   0.322  0.00  0.00    +0.056 C 
ATOM     29  C   UNL     1       5.918  -6.316   1.033  0.00  0.00    +0.185 C 
ATOM     30  O   UNL     1       4.788  -6.095   1.922  0.00  0.00    -0.460 OA
ATOM     31  C   UNL     1       3.688  -5.931   1.150  0.00  0.00    +0.312 C 
ATOM     32  O   UNL     1       2.717  -5.269   1.432  0.00  0.00    -0.250 OA
ATOM     33  C   UNL     1       6.629  -3.950  -1.838  0.00  0.00    +0.016 C 
ATOM     34  C   UNL     1       7.008  -5.726  -4.072  0.00  0.00    +0.012 C 
ENDBRANCH  18  19
ENDBRANCH   1  18
TORSDOF 3
