REMARK  Name = ZINC43427753
REMARK  4 active torsions:
REMARK  status: ('A' for Active; 'I' for Inactive)
REMARK    1  A    between atoms: C_1  and  C_2
REMARK    2  A    between atoms: C_4  and  C_19
REMARK    3  A    between atoms: C_7  and  N_8
REMARK    4  A    between atoms: C_19  and  N_21
REMARK                            x       y       z     vdW  Elec       q    Type
REMARK                         _______ _______ _______ _____ _____    ______ ____
ROOT
ATOM      1  C   UNL     1      -0.018   1.503   0.010  0.00  0.00    +0.045 C 
ATOM      2  C   UNL     1       0.002  -0.004   0.002  0.00  0.00    -0.029 A 
ATOM      3  C   UNL     1       0.006  -0.685  -1.194  0.00  0.00    +0.015 A 
ATOM      4  C   UNL     1       0.025  -2.083  -1.201  0.00  0.00    +0.003 A 
ATOM      5  C   UNL     1       0.040  -2.785   0.009  0.00  0.00    +0.012 A 
ATOM      6  C   UNL     1       0.036  -2.098   1.201  0.00  0.00    +0.024 A 
ATOM      7  C   UNL     1       0.023  -0.706   1.204  0.00  0.00    +0.033 A 
ENDROOT
BRANCH   7   8
ATOM      8  N   UNL     1       0.025  -0.014   2.411  0.00  0.00    -0.322 N 
ATOM      9  C   UNL     1      -1.243   0.332   3.069  0.00  0.00    +0.133 C 
ATOM     10  C   UNL     1      -1.142  -0.118   4.533  0.00  0.00    +0.179 C 
ATOM     11  O   UNL     1       0.018   0.479   5.112  0.00  0.00    -0.373 OA
ATOM     12  C   UNL     1       1.265   0.070   4.547  0.00  0.00    +0.139 C 
ATOM     13  C   UNL     1       1.287   0.368   3.037  0.00  0.00    +0.102 C 
ATOM     14  C   UNL     1       1.510   1.886   2.944  0.00  0.00    +0.025 C 
ATOM     15  C   UNL     1       2.189   2.305   4.261  0.00  0.00    +0.004 C 
ATOM     16  C   UNL     1       2.357   1.030   5.093  0.00  0.00    +0.033 C 
ENDBRANCH   7   8
BRANCH   4  17
ATOM     17  C   UNL     1       0.028  -2.815  -2.479  0.00  0.00    +0.077 C 
ATOM     18  S   UNL     1       0.863  -2.175  -3.830  0.00  0.00    -0.035 S 
BRANCH  17  19
ATOM     19  N   UNL     1      -0.626  -3.989  -2.586  0.00  0.00    -0.352 N 
ATOM     20  H   UNL     1      -1.099  -4.351  -1.821  0.00  0.00    +0.143 HD
ATOM     21  H   UNL     1      -0.624  -4.471  -3.428  0.00  0.00    +0.143 HD
ENDBRANCH  17  19
ENDBRANCH   4  17
TORSDOF 3
