REMARK  Name = ZINC34762346
REMARK  10 active torsions:
REMARK  status: ('A' for Active; 'I' for Inactive)
REMARK    1  A    between atoms: C_1  and  O_2
REMARK    2  A    between atoms: O_2  and  C_3
REMARK    3  A    between atoms: C_8  and  N_9
REMARK    4  A    between atoms: C_12  and  C_14
REMARK    5  A    between atoms: C_14  and  N_15
REMARK    6  A    between atoms: N_15  and  C_16
REMARK    7  A    between atoms: C_16  and  C_17
REMARK    8  A    between atoms: C_20  and  C_22
REMARK    9  A    between atoms: N_30  and  C_33
REMARK   10  A    between atoms: C_33  and  C_34
REMARK                            x       y       z     vdW  Elec       q    Type
REMARK                         _______ _______ _______ _____ _____    ______ ____
ROOT
ATOM      1  N   UNL     1      -0.167  -3.108   0.445  0.00  0.00    -0.233 N 
ATOM      2  C   UNL     1       0.095  -4.416   0.596  0.00  0.00    +0.045 A 
ATOM      3  C   UNL     1       1.431  -4.599   0.413  0.00  0.00    -0.018 A 
ATOM      4  C   UNL     1       1.999  -3.360   0.136  0.00  0.00    +0.082 A 
ATOM      5  N   UNL     1       1.043  -2.461   0.149  0.00  0.00    -0.169 NA
ATOM      6  C   UNL     1       2.103  -5.945   0.513  0.00  0.00    -0.039 C 
ATOM      7  N   UNL     1       1.197  -6.865   1.221  0.00  0.00    +0.385 N 
ATOM      8  C   UNL     1      -0.128  -6.863   0.588  0.00  0.00    -0.072 C 
ATOM      9  C   UNL     1      -0.853  -5.548   0.908  0.00  0.00    +0.037 C 
ATOM     10  H   UNL     1       1.108  -6.572   2.183  0.00  0.00    -0.081 HD
ENDROOT
BRANCH   1  16
ATOM     11  C   UNL     1      -1.851  -1.594  -0.413  0.00  0.00    +0.145 A 
ATOM     12  C   UNL     1      -3.098  -0.999  -0.301  0.00  0.00    +0.048 A 
ATOM     13  C   UNL     1      -3.913  -1.299   0.774  0.00  0.00    +0.004 A 
ATOM     14  C   UNL     1      -3.489  -2.193   1.740  0.00  0.00    +0.002 A 
ATOM     15  C   UNL     1      -2.247  -2.791   1.635  0.00  0.00    +0.031 A 
ATOM     16  C   UNL     1      -1.426  -2.499   0.556  0.00  0.00    +0.107 A 
BRANCH  11  18
ATOM     17  C   UNL     1      -1.551  -0.363  -2.425  0.00  0.00    +0.277 C 
ATOM     18  O   UNL     1      -1.048  -1.300  -1.470  0.00  0.00    -0.493 OA
ENDBRANCH  11  18
ENDBRANCH   1  16
BRANCH   4  19
ATOM     19  C   UNL     1       3.458  -3.097  -0.136  0.00  0.00    +0.165 C 
BRANCH  19  20
ATOM     20  N   UNL     1       3.715  -3.214  -1.574  0.00  0.00    -0.291 N 
ATOM     21  C   UNL     1       4.063  -4.404  -2.102  0.00  0.00    +0.247 C 
ATOM     22  O   UNL     1       4.085  -5.397  -1.401  0.00  0.00    -0.270 OA
BRANCH  21  23
ATOM     23  C   UNL     1       4.418  -4.503  -3.533  0.00  0.00    +0.037 A 
ATOM     24  C   UNL     1       5.335  -3.609  -4.090  0.00  0.00    +0.014 A 
ATOM     25  C   UNL     1       5.663  -3.706  -5.426  0.00  0.00    +0.021 A 
ATOM     26  C   UNL     1       5.084  -4.687  -6.215  0.00  0.00    +0.041 A 
ATOM     27  C   UNL     1       4.174  -5.576  -5.668  0.00  0.00    +0.021 A 
ATOM     28  C   UNL     1       3.842  -5.492  -4.332  0.00  0.00    +0.014 A 
ATOM     29 CL   UNL     1       5.501  -4.802  -7.896  0.00  0.00    -0.084 Cl
ENDBRANCH  21  23
BRANCH  20  30
ATOM     30  C   UNL     1       3.593  -2.037  -2.438  0.00  0.00    +0.112 C 
BRANCH  30  31
ATOM     31  C   UNL     1       4.885  -1.220  -2.372  0.00  0.00    +0.006 C 
ATOM     32  C   UNL     1       4.793   0.204  -1.822  0.00  0.00    +0.005 C 
ATOM     33  C   UNL     1       5.015  -0.025  -3.318  0.00  0.00    +0.005 C 
ENDBRANCH  30  31
ENDBRANCH  20  30
ENDBRANCH  19  20
ENDBRANCH   4  19
BRANCH   7  34
ATOM     34  C   UNL     1       1.754  -8.224   1.179  0.00  0.00    -0.051 C 
BRANCH  34  35
ATOM     35  C   UNL     1       0.895  -9.145   2.006  0.00  0.00    -0.053 C 
ATOM     36  C   UNL     1       0.397 -10.232   1.472  0.00  0.00    +0.002 C 
ENDBRANCH  34  35
ENDBRANCH   7  34
TORSDOF 9
