REMARK  Name = ZINC12833103
REMARK  10 active torsions:
REMARK  status: ('A' for Active; 'I' for Inactive)
REMARK    1  A    between atoms: C_1  and  C_2
REMARK    2  A    between atoms: C_5  and  C_34
REMARK    3  A    between atoms: C_9  and  C_14
REMARK    4  A    between atoms: C_14  and  N_66
REMARK    5  A    between atoms: C_15  and  C_16
REMARK    6  A    between atoms: C_15  and  N_66
REMARK    7  A    between atoms: C_16  and  C_17
REMARK    8  A    between atoms: C_23  and  C_24
REMARK    9  A    between atoms: C_23  and  N_66
REMARK   10  A    between atoms: N_28  and  C_29
REMARK                            x       y       z     vdW  Elec       q    Type
REMARK                         _______ _______ _______ _____ _____    ______ ____
ROOT
ATOM      1  N   UNL     1       2.593  -1.092  -1.306  0.00  0.00    +0.387 N 
ATOM      2  H   UNL     1       1.833  -0.835  -1.947  0.00  0.00    -0.081 HD
ENDROOT
BRANCH   1   3
ATOM      3  C   UNL     1       2.611  -2.561  -1.148  0.00  0.00    -0.037 C 
BRANCH   3  12
ATOM      4  C   UNL     1      -0.987  -4.342  -4.465  0.00  0.00    +0.044 C 
ATOM      5  C   UNL     1      -1.601  -4.356  -3.089  0.00  0.00    -0.041 A 
ATOM      6  C   UNL     1      -2.885  -4.789  -2.915  0.00  0.00    +0.004 A 
ATOM      7  C   UNL     1      -3.460  -4.806  -1.652  0.00  0.00    +0.005 A 
ATOM      8  C   UNL     1      -2.747  -4.386  -0.549  0.00  0.00    -0.026 A 
ATOM      9  C   UNL     1      -1.438  -3.941  -0.702  0.00  0.00    +0.052 A 
ATOM     10  C   UNL     1      -0.859  -3.926  -1.984  0.00  0.00    +0.002 A 
ATOM     11  C   UNL     1       0.520  -3.455  -2.135  0.00  0.00    +0.017 A 
ATOM     12  C   UNL     1       1.190  -3.050  -1.028  0.00  0.00    +0.001 A 
ATOM     13  C   UNL     1       0.565  -3.091   0.237  0.00  0.00    +0.251 A 
ATOM     14  O   UNL     1       1.187  -2.727   1.219  0.00  0.00    -0.268 OA
ATOM     15  N   UNL     1      -0.702  -3.517   0.384  0.00  0.00    -0.322 N 
ATOM     16  H   UNL     1      -1.103  -3.528   1.267  0.00  0.00    +0.169 HD
ATOM     17  C   UNL     1      -3.384  -4.410   0.817  0.00  0.00    +0.046 C 
ENDBRANCH   3  12
ENDBRANCH   1   3
BRANCH   1  18
ATOM     18  C   UNL     1       3.877  -0.630  -1.874  0.00  0.00    -0.073 C 
BRANCH  18  19
ATOM     19  C   UNL     1       3.919  -0.998  -3.359  0.00  0.00    +0.016 C 
BRANCH  19  20
ATOM     20  C   UNL     1       5.226  -0.542  -3.953  0.00  0.00    -0.049 A 
ATOM     21  C   UNL     1       5.305   0.680  -4.594  0.00  0.00    +0.003 A 
ATOM     22  C   UNL     1       6.506   1.101  -5.135  0.00  0.00    +0.000 A 
ATOM     23  C   UNL     1       7.625   0.295  -5.043  0.00  0.00    +0.000 A 
ATOM     24  C   UNL     1       7.545  -0.930  -4.408  0.00  0.00    +0.000 A 
ATOM     25  C   UNL     1       6.346  -1.348  -3.862  0.00  0.00    +0.003 A 
ENDBRANCH  19  20
ENDBRANCH  18  19
ENDBRANCH   1  18
BRANCH   1  26
ATOM     26  C   UNL     1       2.358  -0.445   0.002  0.00  0.00    +0.001 C 
BRANCH  26  27
ATOM     27  C   UNL     1       2.125   1.027  -0.219  0.00  0.00    +0.135 A 
ATOM     28  N   UNL     1       3.035   1.971  -0.222  0.00  0.00    -0.115 NA
ATOM     29  N   UNL     1       2.442   3.094  -0.439  0.00  0.00    -0.023 NA
ATOM     30  N   UNL     1       1.179   2.891  -0.579  0.00  0.00    -0.044 NA
ATOM     31  N   UNL     1       0.944   1.628  -0.453  0.00  0.00    -0.228 N 
BRANCH  31  32
ATOM     32  C   UNL     1      -0.363   0.973  -0.543  0.00  0.00    +0.111 C 
ATOM     33  C   UNL     1      -1.326   1.569   0.505  0.00  0.00    +0.027 C 
ATOM     34  C   UNL     1      -2.117   2.647  -0.278  0.00  0.00    +0.002 C 
ATOM     35  C   UNL     1      -2.317   1.987  -1.664  0.00  0.00    +0.002 C 
ATOM     36  C   UNL     1      -0.993   1.239  -1.921  0.00  0.00    +0.027 C 
ENDBRANCH  31  32
ENDBRANCH  26  27
ENDBRANCH   1  26
TORSDOF 8
