REMARK  Name = ZINC44010334
REMARK  4 active torsions:
REMARK  status: ('A' for Active; 'I' for Inactive)
REMARK    1  A    between atoms: C_9  and  O_25
REMARK    2  A    between atoms: C_10  and  C_11
REMARK    3  A    between atoms: N_12  and  C_13
REMARK    4  A    between atoms: C_17  and  N_19
REMARK                            x       y       z     vdW  Elec       q    Type
REMARK                         _______ _______ _______ _____ _____    ______ ____
ROOT
ATOM      1  C   UNL     1       4.985   0.061  -0.066  0.00  0.00    +0.123 C 
ATOM      2  N   UNL     1       6.122  -0.582  -0.083  0.00  0.00    -0.255 NA
ENDROOT
BRANCH   1  12
ATOM      3  C   UNL     1      -0.021   1.292  -0.016  0.00  0.00    +0.001 A 
ATOM      4  C   UNL     1       1.158   2.034  -0.012  0.00  0.00    +0.001 A 
ATOM      5  C   UNL     1       2.374   1.417  -0.029  0.00  0.00    +0.009 A 
ATOM      6  C   UNL     1       2.440   0.020  -0.050  0.00  0.00    -0.006 A 
ATOM      7  C   UNL     1       1.244  -0.738  -0.054  0.00  0.00    -0.017 A 
ATOM      8  C   UNL     1       0.008  -0.069  -0.036  0.00  0.00    +0.008 A 
ATOM      9  C   UNL     1       1.313  -2.143  -0.074  0.00  0.00    +0.012 A 
ATOM     10  C   UNL     1       2.512  -2.781  -0.090  0.00  0.00    +0.046 A 
ATOM     11  C   UNL     1       3.718  -2.081  -0.087  0.00  0.00    +0.126 A 
ATOM     12  C   UNL     1       3.723  -0.683  -0.069  0.00  0.00    +0.042 A 
BRANCH  11  13
ATOM     13  O   UNL     1       4.892  -2.759  -0.103  0.00  0.00    -0.506 OA
ATOM     14  H   UNL     1       5.227  -2.944  -0.991  0.00  0.00    +0.292 HD
ENDBRANCH  11  13
ENDBRANCH   1  12
BRANCH   2  15
ATOM     15  C   UNL     1       7.300   0.113  -0.080  0.00  0.00    +0.066 A 
ATOM     16  C   UNL     1       7.462   1.222  -0.916  0.00  0.00    +0.028 A 
ATOM     17  C   UNL     1       8.652   1.921  -0.911  0.00  0.00    +0.004 A 
ATOM     18  C   UNL     1       9.686   1.529  -0.081  0.00  0.00    +0.024 A 
ATOM     19  C   UNL     1       9.535   0.428   0.754  0.00  0.00    +0.040 A 
ATOM     20  C   UNL     1       8.342  -0.278   0.761  0.00  0.00    +0.051 A 
BRANCH  19  21
ATOM     21  N   UNL     1      10.585   0.037   1.592  0.00  0.00    -0.254 N 
ATOM     22  C   UNL     1      11.931   0.629   1.605  0.00  0.00    +0.134 C 
ATOM     23  C   UNL     1      12.673  -0.165   2.698  0.00  0.00    +0.125 C 
ATOM     24  N   UNL     1      11.666  -1.119   3.185  0.00  0.00    -0.297 N 
ATOM     25  C   UNL     1      10.522  -0.933   2.514  0.00  0.00    +0.307 C 
ATOM     26  O   UNL     1       9.519  -1.588   2.720  0.00  0.00    -0.252 OA
ATOM     27  H   UNL     1      11.807  -1.777   3.884  0.00  0.00    +0.150 HD
ENDBRANCH  19  21
ENDBRANCH   2  15
TORSDOF 4
