REMARK  Name = ZINC44862445
REMARK  8 active torsions:
REMARK  status: ('A' for Active; 'I' for Inactive)
REMARK    1  A    between atoms: C_1  and  C_2
REMARK    2  A    between atoms: C_2  and  C_3
REMARK    3  A    between atoms: C_3  and  C_4
REMARK    4  A    between atoms: C_4  and  C_6
REMARK    5  A    between atoms: C_4  and  C_10
REMARK    6  A    between atoms: N_7  and  O_8
REMARK    7  A    between atoms: N_12  and  C_13
REMARK    8  A    between atoms: C_16  and  C_20
REMARK                            x       y       z     vdW  Elec       q    Type
REMARK                         _______ _______ _______ _____ _____    ______ ____
ROOT
ATOM      1  C   UNL     1      -2.819  -2.586   0.142  0.00  0.00    +0.228 C 
ATOM      2  O   UNL     1      -3.748  -1.810   0.229  0.00  0.00    -0.275 OA
ATOM      3  N   UNL     1      -3.047  -3.914   0.155  0.00  0.00    -0.284 N 
ATOM      4  H   UNL     1      -2.315  -4.533   0.006  0.00  0.00    +0.155 HD
ENDROOT
BRANCH   3   5
ATOM      5  C   UNL     1      -4.339  -4.400   0.385  0.00  0.00    +0.047 A 
ATOM      6  C   UNL     1      -5.258  -3.631   1.086  0.00  0.00    +0.024 A 
ATOM      7  C   UNL     1      -6.532  -4.113   1.311  0.00  0.00    +0.005 A 
ATOM      8  C   UNL     1      -6.894  -5.361   0.839  0.00  0.00    -0.049 A 
ATOM      9  C   UNL     1      -5.982  -6.131   0.141  0.00  0.00    +0.020 A 
ATOM     10  C   UNL     1      -4.707  -5.652  -0.093  0.00  0.00    +0.039 A 
ATOM     11 BR   UNL     1      -3.463  -6.702  -1.055  0.00  0.00    -0.048 Br
ATOM     12  C   UNL     1      -8.286  -5.884   1.086  0.00  0.00    +0.044 C 
ENDBRANCH   3   5
BRANCH   1  13
ATOM     13  C   UNL     1      -1.411  -2.064   0.020  0.00  0.00    +0.141 C 
BRANCH  13  14
ATOM     14  C   UNL     1      -0.806  -2.550  -1.272  0.00  0.00    +0.144 C 
ATOM     15  N   UNL     1      -1.570  -2.861  -2.267  0.00  0.00    -0.076 NA
ATOM     16  N   UNL     1       0.562  -2.663  -1.393  0.00  0.00    -0.343 N 
ATOM     17  H   UNL     1       1.135  -2.429  -0.646  0.00  0.00    +0.144 HD
ATOM     18  H   UNL     1       0.951  -2.975  -2.224  0.00  0.00    +0.144 HD
BRANCH  15  19
ATOM     19  O   UNL     1      -1.001  -3.317  -3.480  0.00  0.00    -0.408 OA
ATOM     20  H   UNL     1      -1.651  -3.525  -4.165  0.00  0.00    +0.328 HD
ENDBRANCH  15  19
ENDBRANCH  13  14
BRANCH  13  21
ATOM     21  C   UNL     1      -1.431  -0.534   0.030  0.00  0.00    +0.020 C 
BRANCH  21  23
ATOM     22  C   UNL     1      -0.015   1.525   0.041  0.00  0.00    +0.004 C 
ATOM     23  C   UNL     1       0.005  -0.005   0.031  0.00  0.00    -0.002 C 
ENDBRANCH  21  23
ENDBRANCH  13  21
ENDBRANCH   1  13
TORSDOF 6
