REMARK  Name = ZINC09124313
REMARK  12 active torsions:
REMARK  status: ('A' for Active; 'I' for Inactive)
REMARK    1  A    between atoms: C_1  and  C_2
REMARK    2  A    between atoms: C_2  and  O_3
REMARK    3  A    between atoms: O_3  and  C_4
REMARK    4  A    between atoms: C_7  and  C_13
REMARK    5  A    between atoms: C_9  and  O_10
REMARK    6  A    between atoms: O_10  and  C_11
REMARK    7  A    between atoms: C_11  and  C_12
REMARK    8  A    between atoms: C_16  and  C_31
REMARK    9  A    between atoms: N_23  and  C_24
REMARK   10  A    between atoms: C_24  and  C_25
REMARK   11  A    between atoms: C_34  and  C_38
REMARK   12  A    between atoms: C_36  and  O_37
REMARK                            x       y       z     vdW  Elec       q    Type
REMARK                         _______ _______ _______ _____ _____    ______ ____
ROOT
ATOM      1  C   UNL     1       1.107  -6.044  -1.844  0.00  0.00    +0.142 C 
ATOM      2  C   UNL     1       2.222  -6.581  -0.988  0.00  0.00    +0.035 A 
ATOM      3  C   UNL     1       3.548  -6.575  -0.694  0.00  0.00    +0.075 A 
ATOM      4  N   UNL     1       3.725  -7.456   0.335  0.00  0.00    -0.276 N 
ATOM      5  H   UNL     1       4.576  -7.658   0.754  0.00  0.00    +0.189 HD
ATOM      6  N   UNL     1       2.597  -7.977   0.664  0.00  0.00    -0.168 NA
ATOM      7  C   UNL     1       1.629  -7.499  -0.092  0.00  0.00    +0.153 A 
ATOM      8  C   UNL     1       0.183  -7.539  -0.375  0.00  0.00    +0.268 C 
ATOM      9  O   UNL     1      -0.622  -8.230   0.218  0.00  0.00    -0.268 OA
ATOM     10  N   UNL     1      -0.121  -6.703  -1.384  0.00  0.00    -0.281 N 
ENDROOT
BRANCH   3  11
ATOM     11  C   UNL     1       4.597  -5.772  -1.359  0.00  0.00    +0.043 A 
ATOM     12  C   UNL     1       5.604  -6.401  -2.090  0.00  0.00    +0.034 A 
ATOM     13  C   UNL     1       6.580  -5.646  -2.709  0.00  0.00    +0.045 A 
ATOM     14  C   UNL     1       6.562  -4.265  -2.607  0.00  0.00    -0.029 A 
ATOM     15  C   UNL     1       5.568  -3.631  -1.885  0.00  0.00    +0.050 A 
ATOM     16  C   UNL     1       4.579  -4.376  -1.264  0.00  0.00    +0.126 A 
ATOM     17  C   UNL     1       7.632  -3.449  -3.285  0.00  0.00    +0.045 C 
ATOM     18 CL   UNL     1       7.834  -6.430  -3.618  0.00  0.00    -0.083 Cl
BRANCH  16  19
ATOM     19  O   UNL     1       3.599  -3.753  -0.559  0.00  0.00    -0.506 OA
ATOM     20  H   UNL     1       3.811  -3.617   0.374  0.00  0.00    +0.292 HD
ENDBRANCH  16  19
ENDBRANCH   3  11
BRANCH   1  24
ATOM     21  C   UNL     1       0.777  -1.811  -1.336  0.00  0.00    +0.162 A 
ATOM     22  C   UNL     1       0.243  -2.669  -0.388  0.00  0.00    +0.050 A 
ATOM     23  C   UNL     1       0.352  -4.037  -0.555  0.00  0.00    +0.009 A 
ATOM     24  C   UNL     1       0.992  -4.552  -1.667  0.00  0.00    -0.019 A 
ATOM     25  C   UNL     1       1.526  -3.702  -2.616  0.00  0.00    +0.055 A 
ATOM     26  C   UNL     1       1.416  -2.330  -2.458  0.00  0.00    +0.162 A 
BRANCH  21  27
ATOM     27  O   UNL     1       0.671  -0.465  -1.174  0.00  0.00    -0.489 OA
BRANCH  27  29
ATOM     28  C   UNL     1      -0.019   1.526   0.010  0.00  0.00    +0.048 C 
ATOM     29  C   UNL     1       0.002  -0.004   0.002  0.00  0.00    +0.226 C 
ENDBRANCH  27  29
ENDBRANCH  21  27
BRANCH  26  30
ATOM     30  O   UNL     1       1.936  -1.492  -3.394  0.00  0.00    -0.489 OA
BRANCH  30  31
ATOM     31  C   UNL     1       2.578  -2.095  -4.520  0.00  0.00    +0.226 C 
ATOM     32  C   UNL     1       3.096  -1.002  -5.457  0.00  0.00    +0.048 C 
ENDBRANCH  30  31
ENDBRANCH  26  30
ENDBRANCH   1  24
BRANCH  10  33
ATOM     33  C   UNL     1      -1.461  -6.484  -1.935  0.00  0.00    +0.145 C 
BRANCH  33  34
ATOM     34  C   UNL     1      -1.708  -7.457  -3.058  0.00  0.00    -0.012 A 
ATOM     35  C   UNL     1      -1.369  -7.126  -4.362  0.00  0.00    +0.008 A 
ATOM     36  C   UNL     1      -1.614  -8.053  -5.363  0.00  0.00    +0.020 A 
ATOM     37  C   UNL     1      -2.185  -9.267  -5.032  0.00  0.00    +0.111 A 
ATOM     38  N   UNL     1      -2.496  -9.547  -3.781  0.00  0.00    -0.263 NA
ATOM     39  C   UNL     1      -2.271  -8.693  -2.802  0.00  0.00    +0.115 A 
ENDBRANCH  33  34
ENDBRANCH  10  33
TORSDOF 9
