REMARK  Name = ZINC40701473
REMARK  7 active torsions:
REMARK  status: ('A' for Active; 'I' for Inactive)
REMARK    1  A    between atoms: C_1  and  C_2
REMARK    2  A    between atoms: C_2  and  N_3
REMARK    3  A    between atoms: N_3  and  C_4
REMARK    4  A    between atoms: C_15  and  N_29
REMARK    5  A    between atoms: C_16  and  N_20
REMARK    6  A    between atoms: N_20  and  C_21
REMARK    7  A    between atoms: C_26  and  C_27
REMARK                            x       y       z     vdW  Elec       q    Type
REMARK                         _______ _______ _______ _____ _____    ______ ____
ROOT
ATOM      1  N   UNL     1       0.623  -0.416   1.078  0.00  0.00    -0.283 N 
ATOM      2  C   UNL     1       2.001  -0.593   1.022  0.00  0.00    +0.151 A 
ATOM      3  C   UNL     1       2.703  -0.330  -0.156  0.00  0.00    +0.104 A 
ATOM      4  C   UNL     1       4.086  -0.524  -0.157  0.00  0.00    +0.126 A 
ATOM      5  N   UNL     1       4.678  -0.949   0.957  0.00  0.00    -0.333 N 
ATOM      6  C   UNL     1       3.978  -1.186   2.048  0.00  0.00    +0.200 A 
ATOM      7  N   UNL     1       2.673  -1.010   2.093  0.00  0.00    -0.220 NA
ATOM      8  H   UNL     1       5.638  -1.087   0.965  0.00  0.00    +0.168 HD
ENDROOT
BRANCH   1   9
ATOM      9  C   UNL     1      -0.228  -1.502   0.878  0.00  0.00    +0.043 A 
ATOM     10  C   UNL     1      -0.665  -1.819  -0.390  0.00  0.00    +0.024 A 
ATOM     11  C   UNL     1      -1.515  -2.901  -0.600  0.00  0.00    +0.002 A 
ATOM     12  C   UNL     1      -1.937  -3.675   0.438  0.00  0.00    +0.008 A 
ATOM     13  C   UNL     1      -1.513  -3.386   1.746  0.00  0.00    -0.016 A 
ATOM     14  C   UNL     1      -0.644  -2.290   1.972  0.00  0.00    +0.003 A 
ATOM     15  C   UNL     1      -0.218  -2.006   3.279  0.00  0.00    +0.010 A 
ATOM     16  C   UNL     1      -0.641  -2.788   4.311  0.00  0.00    +0.001 A 
ATOM     17  C   UNL     1      -1.491  -3.870   4.089  0.00  0.00    +0.001 A 
ATOM     18  C   UNL     1      -1.933  -4.168   2.837  0.00  0.00    +0.008 A 
ENDBRANCH   1   9
BRANCH   3  19
ATOM     19  N   UNL     1       2.037   0.116  -1.308  0.00  0.00    -0.353 N 
ATOM     20  H   UNL     1       1.090   0.323  -1.271  0.00  0.00    +0.143 HD
ATOM     21  H   UNL     1       2.523   0.218  -2.141  0.00  0.00    +0.143 HD
ENDBRANCH   3  19
BRANCH   1  23
ATOM     22  C   UNL     1      -0.200   1.060   2.845  0.00  0.00    +0.025 C 
ATOM     23  C   UNL     1       0.066   0.912   1.346  0.00  0.00    +0.109 C 
ENDBRANCH   1  23
BRANCH   4  24
ATOM     24  N   UNL     1       4.832  -0.278  -1.304  0.00  0.00    -0.299 N 
ATOM     25  H   UNL     1       4.388  -0.015  -2.125  0.00  0.00    +0.154 HD
BRANCH  24  26
ATOM     26  C   UNL     1       6.223  -0.410  -1.274  0.00  0.00    +0.037 A 
ATOM     27  C   UNL     1       7.028   0.721  -1.206  0.00  0.00    +0.023 A 
ATOM     28  C   UNL     1       8.402   0.588  -1.176  0.00  0.00    +0.003 A 
ATOM     29  C   UNL     1       8.978  -0.669  -1.213  0.00  0.00    +0.020 A 
ATOM     30  C   UNL     1       8.180  -1.797  -1.281  0.00  0.00    +0.046 A 
ATOM     31  C   UNL     1       6.804  -1.671  -1.306  0.00  0.00    -0.011 A 
ATOM     32  C   UNL     1       5.934  -2.900  -1.373  0.00  0.00    +0.047 C 
ATOM     33 CL   UNL     1       8.907  -3.373  -1.329  0.00  0.00    -0.083 Cl
ENDBRANCH  24  26
ENDBRANCH   4  24
TORSDOF 5
