REMARK  Name = ZINC02359785
REMARK  8 active torsions:
REMARK  status: ('A' for Active; 'I' for Inactive)
REMARK    1  A    between atoms: C_1  and  C_2
REMARK    2  A    between atoms: C_2  and  C_33
REMARK    3  A    between atoms: C_7  and  C_32
REMARK    4  A    between atoms: C_10  and  N_11
REMARK    5  A    between atoms: C_10  and  N_65
REMARK    6  A    between atoms: N_19  and  N_20
REMARK    7  A    between atoms: C_21  and  C_23
REMARK    8  A    between atoms: C_23  and  C_24
REMARK                            x       y       z     vdW  Elec       q    Type
REMARK                         _______ _______ _______ _____ _____    ______ ____
ROOT
ATOM      1  N   UNL     1       2.475   3.663  -0.002  0.00  0.00    -0.282 N 
ATOM      2  C   UNL     1       1.167   3.191   0.008  0.00  0.00    +0.044 A 
ATOM      3  C   UNL     1      -0.054   3.855   0.023  0.00  0.00    +0.024 A 
ATOM      4  C   UNL     1      -1.233   3.137   0.031  0.00  0.00    +0.002 A 
ATOM      5  C   UNL     1      -1.216   1.753   0.017  0.00  0.00    +0.001 A 
ATOM      6  C   UNL     1      -0.013   1.076   0.008  0.00  0.00    +0.012 A 
ATOM      7  C   UNL     1       1.180   1.790   0.000  0.00  0.00    +0.028 A 
ATOM      8  C   UNL     1       2.605   1.385  -0.015  0.00  0.00    +0.153 C 
ATOM      9  N   UNL     1       3.089   0.167  -0.026  0.00  0.00    -0.175 NA
ATOM     10  C   UNL     1       3.362   2.653  -0.016  0.00  0.00    +0.270 C 
ATOM     11  O   UNL     1       4.574   2.764  -0.027  0.00  0.00    -0.268 OA
ENDROOT
BRANCH   9  12
ATOM     12  N   UNL     1       4.475  -0.037  -0.041  0.00  0.00    -0.206 N 
ATOM     13  C   UNL     1       4.972  -1.290  -0.051  0.00  0.00    +0.237 C 
ATOM     14  O   UNL     1       4.219  -2.240  -0.049  0.00  0.00    -0.274 OA
ATOM     15  H   UNL     1       5.077   0.724  -0.043  0.00  0.00    +0.177 HD
BRANCH  13  16
ATOM     16  C   UNL     1       6.463  -1.509  -0.067  0.00  0.00    +0.132 C 
BRANCH  16  17
ATOM     17  C   UNL     1       6.753  -2.987  -0.077  0.00  0.00    -0.039 A 
ATOM     18  C   UNL     1       6.904  -3.670   1.116  0.00  0.00    +0.004 A 
ATOM     19  C   UNL     1       7.165  -5.027   1.107  0.00  0.00    +0.000 A 
ATOM     20  C   UNL     1       7.287  -5.700  -0.095  0.00  0.00    +0.000 A 
ATOM     21  C   UNL     1       7.142  -5.016  -1.288  0.00  0.00    +0.000 A 
ATOM     22  C   UNL     1       6.875  -3.660  -1.278  0.00  0.00    +0.004 A 
ENDBRANCH  16  17
ENDBRANCH  13  16
ENDBRANCH   9  12
BRANCH   1  23
ATOM     23  C   UNL     1       2.841   5.082   0.003  0.00  0.00    +0.039 C 
BRANCH  23  34
ATOM     24  C   UNL     1       1.620   8.329   0.533  0.00  0.00    +0.011 C 
ATOM     25  C   UNL     1       2.512   8.601  -0.695  0.00  0.00    -0.036 C 
ATOM     26  C   UNL     1       3.769   7.766  -0.587  0.00  0.00    -0.009 C 
ATOM     27  C   UNL     1       3.926   6.635  -1.590  0.00  0.00    -0.065 C 
ATOM     28  C   UNL     1       3.520   7.193  -2.983  0.00  0.00    -0.011 C 
ATOM     29  C   UNL     1       1.978   7.240  -2.800  0.00  0.00    -0.048 C 
ATOM     30  C   UNL     1       1.672   8.470  -1.948  0.00  0.00    +0.011 C 
ATOM     31  C   UNL     1       1.671   5.979  -1.957  0.00  0.00    -0.070 C 
ATOM     32  C   UNL     1       1.229   7.241  -4.140  0.00  0.00    +0.009 C 
ATOM     33  C   UNL     1       2.941  10.087  -0.587  0.00  0.00    +0.011 C 
ATOM     34  N   UNL     1       2.958   5.528  -1.428  0.00  0.00    +0.393 N 
ATOM     35  H   UNL     1       3.281   4.727  -1.983  0.00  0.00    -0.079 HD
ENDBRANCH  23  34
ENDBRANCH   1  23
TORSDOF 5
