REMARK  Name = ZINC54614558
REMARK  13 active torsions:
REMARK  status: ('A' for Active; 'I' for Inactive)
REMARK    1  A    between atoms: C_1  and  C_2
REMARK    2  A    between atoms: C_2  and  O_3
REMARK    3  A    between atoms: O_3  and  C_4
REMARK    4  A    between atoms: C_6  and  C_19
REMARK    5  A    between atoms: C_9  and  O_10
REMARK    6  A    between atoms: O_10  and  C_11
REMARK    7  A    between atoms: C_11  and  C_12
REMARK    8  A    between atoms: C_17  and  C_18
REMARK    9  A    between atoms: C_21  and  C_30
REMARK   10  A    between atoms: C_22  and  C_29
REMARK   11  A    between atoms: N_32  and  C_33
REMARK   12  A    between atoms: C_37  and  C_40
REMARK   13  A    between atoms: C_38  and  C_39
REMARK                            x       y       z     vdW  Elec       q    Type
REMARK                         _______ _______ _______ _____ _____    ______ ____
ROOT
ATOM      1  C   UNL     1      -0.087  -4.508   0.210  0.00  0.00    +0.179 C 
ATOM      2  C   UNL     1       0.737  -5.184   1.274  0.00  0.00    +0.060 C 
ATOM      3  C   UNL     1       0.835  -6.516   1.389  0.00  0.00    +0.018 C 
ATOM      4  N   UNL     1       0.175  -7.376   0.544  0.00  0.00    -0.286 N 
ATOM      5  C   UNL     1      -0.804  -6.836  -0.277  0.00  0.00    +0.240 A 
ATOM      6  N   UNL     1      -0.943  -5.494  -0.440  0.00  0.00    -0.201 N 
ATOM      7  N   UNL     1      -2.016  -5.332  -1.313  0.00  0.00    -0.042 NA
ATOM      8  N   UNL     1      -2.432  -6.521  -1.610  0.00  0.00    -0.021 NA
ATOM      9  N   UNL     1      -1.720  -7.410  -1.003  0.00  0.00    -0.092 NA
ATOM     10  C   UNL     1       1.699  -7.090   2.482  0.00  0.00    +0.061 C 
ATOM     11  H   UNL     1       0.387  -8.322   0.522  0.00  0.00    +0.155 HD
ENDROOT
BRANCH   1  14
ATOM     12  C   UNL     1       1.700  -1.933  -1.899  0.00  0.00    +0.162 A 
ATOM     13  C   UNL     1       0.860  -2.509  -0.959  0.00  0.00    +0.055 A 
ATOM     14  C   UNL     1       0.826  -3.883  -0.813  0.00  0.00    -0.015 A 
ATOM     15  C   UNL     1       1.629  -4.686  -1.602  0.00  0.00    +0.010 A 
ATOM     16  C   UNL     1       2.469  -4.117  -2.541  0.00  0.00    +0.050 A 
ATOM     17  C   UNL     1       2.504  -2.741  -2.698  0.00  0.00    +0.162 A 
BRANCH  12  18
ATOM     18  O   UNL     1       1.734  -0.581  -2.045  0.00  0.00    -0.489 OA
BRANCH  18  20
ATOM     19  C   UNL     1       1.214   1.680  -1.368  0.00  0.00    +0.048 C 
ATOM     20  C   UNL     1       0.964   0.191  -1.121  0.00  0.00    +0.226 C 
ENDBRANCH  18  20
ENDBRANCH  12  18
BRANCH  17  21
ATOM     21  O   UNL     1       3.325  -2.181  -3.625  0.00  0.00    -0.484 OA
BRANCH  21  22
ATOM     22  C   UNL     1       4.122  -3.072  -4.409  0.00  0.00    +0.265 C 
BRANCH  22  23
ATOM     23  C   UNL     1       4.961  -2.277  -5.375  0.00  0.00    -0.007 A 
ATOM     24  C   UNL     1       4.879  -0.897  -5.389  0.00  0.00    +0.007 A 
ATOM     25  C   UNL     1       5.649  -0.167  -6.276  0.00  0.00    +0.000 A 
ATOM     26  C   UNL     1       6.503  -0.818  -7.147  0.00  0.00    +0.000 A 
ATOM     27  C   UNL     1       6.586  -2.197  -7.133  0.00  0.00    +0.004 A 
ATOM     28  C   UNL     1       5.818  -2.927  -6.243  0.00  0.00    -0.044 A 
ATOM     29  C   UNL     1       5.913  -4.431  -6.223  0.00  0.00    +0.044 C 
ENDBRANCH  22  23
ENDBRANCH  21  22
ENDBRANCH  17  21
ENDBRANCH   1  14
BRANCH   2  30
ATOM     30  C   UNL     1       1.442  -4.374   2.196  0.00  0.00    +0.248 C 
ATOM     31  O   UNL     1       0.863  -3.902   3.158  0.00  0.00    -0.270 OA
ATOM     32  N   UNL     1       2.753  -4.125   2.009  0.00  0.00    -0.281 N 
ATOM     33  H   UNL     1       3.197  -4.442   1.207  0.00  0.00    +0.155 HD
BRANCH  32  34
ATOM     34  C   UNL     1       3.473  -3.410   2.971  0.00  0.00    +0.037 A 
ATOM     35  C   UNL     1       2.985  -3.301   4.267  0.00  0.00    +0.023 A 
ATOM     36  C   UNL     1       3.698  -2.595   5.215  0.00  0.00    +0.002 A 
ATOM     37  C   UNL     1       4.898  -1.996   4.875  0.00  0.00    +0.004 A 
ATOM     38  C   UNL     1       5.387  -2.103   3.586  0.00  0.00    -0.046 A 
ATOM     39  C   UNL     1       4.681  -2.813   2.635  0.00  0.00    -0.026 A 
ATOM     40  C   UNL     1       5.217  -2.934   1.232  0.00  0.00    +0.046 C 
ATOM     41  C   UNL     1       6.694  -1.449   3.221  0.00  0.00    +0.044 C 
ENDBRANCH  32  34
ENDBRANCH   2  30
TORSDOF 8
