REMARK  Name = ZINC24206594
REMARK  6 active torsions:
REMARK  status: ('A' for Active; 'I' for Inactive)
REMARK    1  A    between atoms: C_1  and  S_2
REMARK    2  A    between atoms: S_2  and  C_5
REMARK    3  A    between atoms: C_8  and  N_14
REMARK    4  A    between atoms: C_9  and  N_11
REMARK    5  A    between atoms: N_14  and  C_15
REMARK    6  A    between atoms: C_21  and  C_23
REMARK                            x       y       z     vdW  Elec       q    Type
REMARK                         _______ _______ _______ _____ _____    ______ ____
ROOT
ATOM      1  N   UNL     1       5.887   5.050   2.482  0.00  0.00    -0.339 N 
ATOM      2  H   UNL     1       6.273   4.521   3.366  0.00  0.00    +0.146 HD
ENDROOT
BRANCH   1   3
ATOM      3  C   UNL     1       5.473   4.293   1.299  0.00  0.00    +0.073 C 
ATOM      4  C   UNL     1       6.211   2.953   1.267  0.00  0.00    +0.041 C 
ATOM      5  C   UNL     1       5.801   2.178   0.010  0.00  0.00    +0.110 C 
ATOM      6  N   UNL     1       4.337   2.061  -0.017  0.00  0.00    -0.297 N 
ATOM      7  C   UNL     1       3.528   3.283   0.093  0.00  0.00    +0.110 C 
ATOM      8  C   UNL     1       3.964   4.045   1.355  0.00  0.00    +0.041 C 
ATOM      9  C   UNL     1       3.746   0.857  -0.146  0.00  0.00    +0.250 C 
ATOM     10  O   UNL     1       2.534   0.775  -0.185  0.00  0.00    -0.270 OA
BRANCH   9  11
ATOM     11  C   UNL     1       4.570  -0.361  -0.240  0.00  0.00    +0.074 A 
ATOM     12  C   UNL     1       4.188  -1.725   0.154  0.00  0.00    +0.054 A 
ATOM     13  C   UNL     1       5.252  -2.498  -0.112  0.00  0.00    +0.195 A 
ATOM     14  O   UNL     1       6.231  -1.737  -0.625  0.00  0.00    -0.470 OA
ATOM     15  C   UNL     1       5.847  -0.459  -0.710  0.00  0.00    +0.207 A 
ENDBRANCH   9  11
ENDBRANCH   1   3
BRANCH   1  19
ATOM     16  C   UNL     1       5.604   9.204   2.501  0.00  0.00    +0.090 A 
ATOM     17  C   UNL     1       5.094   8.482   1.437  0.00  0.00    +0.029 A 
ATOM     18  C   UNL     1       5.191   7.105   1.425  0.00  0.00    +0.027 A 
ATOM     19  C   UNL     1       5.792   6.443   2.489  0.00  0.00    +0.058 A 
ATOM     20  C   UNL     1       6.303   7.171   3.556  0.00  0.00    +0.149 A 
ATOM     21  C   UNL     1       6.207   8.549   3.559  0.00  0.00    +0.061 A 
BRANCH  16  23
ATOM     22  C   UNL     1       6.999  11.537   1.696  0.00  0.00    +0.200 C 
ATOM     23  S   UNL     1       5.483  10.962   2.509  0.00  0.00    -0.006 S 
ATOM     24  O   UNL     1       4.353  11.252   1.698  0.00  0.00    -0.170 OA
ATOM     25  O   UNL     1       5.499  11.320   3.884  0.00  0.00    -0.170 OA
ENDBRANCH  16  23
BRANCH  20  26
ATOM     26  N   UNL     1       6.949   6.471   4.688  0.00  0.00    +0.058 N 
ATOM     27  O   UNL     1       7.495   7.112   5.569  0.00  0.00    -0.126 OA
ATOM     28  O   UNL     1       6.935   5.254   4.739  0.00  0.00    -0.126 OA
ENDBRANCH  20  26
ENDBRANCH   1  19
TORSDOF 5
