REMARK  Name = ZINC01124484
REMARK  6 active torsions:
REMARK  status: ('A' for Active; 'I' for Inactive)
REMARK    1  A    between atoms: C_1  and  C_2
REMARK    2  A    between atoms: C_2  and  C_3
REMARK    3  A    between atoms: C_14  and  C_30
REMARK    4  A    between atoms: N_16  and  C_24
REMARK    5  A    between atoms: C_19  and  N_23
REMARK    6  A    between atoms: C_20  and  C_21
REMARK                            x       y       z     vdW  Elec       q    Type
REMARK                         _______ _______ _______ _____ _____    ______ ____
ROOT
ATOM      1  C   UNL     1       4.409   4.550  -1.990  0.00  0.00    -0.026 A 
ATOM      2  C   UNL     1       3.921   4.529  -3.288  0.00  0.00    +0.005 A 
ATOM      3  C   UNL     1       2.650   4.078  -3.583  0.00  0.00    +0.001 A 
ATOM      4  C   UNL     1       1.794   3.622  -2.586  0.00  0.00    +0.007 A 
ATOM      5  C   UNL     1       2.272   3.640  -1.294  0.00  0.00    -0.001 A 
ATOM      6  C   UNL     1       3.560   4.094  -0.981  0.00  0.00    +0.041 A 
ATOM      7  N   UNL     1       3.784   4.003   0.381  0.00  0.00    -0.284 N 
ATOM      8  C   UNL     1       2.715   3.507   1.038  0.00  0.00    +0.238 C 
ATOM      9  O   UNL     1       2.626   3.317   2.233  0.00  0.00    -0.274 OA
ATOM     10  C   UNL     1       1.648   3.233   0.002  0.00  0.00    +0.145 C 
ATOM     11  C   UNL     1       1.284   1.775  -0.001  0.00  0.00    +0.062 A 
ATOM     12  C   UNL     1       2.105   0.656  -0.014  0.00  0.00    +0.069 A 
ATOM     13  N   UNL     1       1.345  -0.413  -0.013  0.00  0.00    -0.168 NA
ATOM     14  N   UNL     1       0.002  -0.004   0.002  0.00  0.00    -0.200 N 
ATOM     15  C   UNL     1      -0.016   1.346   0.009  0.00  0.00    +0.230 A 
ATOM     16  O   UNL     1      -1.068   2.201   0.019  0.00  0.00    -0.423 OA
ATOM     17  C   UNL     1      -0.823   3.501   0.289  0.00  0.00    +0.201 C 
ATOM     18  C   UNL     1       0.417   4.045   0.295  0.00  0.00    +0.110 C 
ATOM     19  C   UNL     1       3.612   0.667  -0.029  0.00  0.00    +0.068 C 
ATOM     20  H   UNL     1       4.612   4.266   0.813  0.00  0.00    +0.155 HD
ENDROOT
BRANCH  14  21
ATOM     21  C   UNL     1      -1.119  -0.846   0.008  0.00  0.00    +0.069 A 
ATOM     22  C   UNL     1      -2.258  -0.483   0.714  0.00  0.00    +0.028 A 
ATOM     23  C   UNL     1      -3.362  -1.312   0.714  0.00  0.00    +0.002 A 
ATOM     24  C   UNL     1      -3.331  -2.507   0.019  0.00  0.00    +0.000 A 
ATOM     25  C   UNL     1      -2.196  -2.874  -0.681  0.00  0.00    +0.002 A 
ATOM     26  C   UNL     1      -1.090  -2.047  -0.688  0.00  0.00    +0.028 A 
ENDBRANCH  14  21
BRANCH  17  27
ATOM     27  N   UNL     1      -1.890   4.317   0.568  0.00  0.00    -0.328 N 
ATOM     28  H   UNL     1      -1.745   5.256   0.762  0.00  0.00    +0.145 HD
ATOM     29  H   UNL     1      -2.790   3.955   0.570  0.00  0.00    +0.145 HD
ENDBRANCH  17  27
BRANCH   1  31
ATOM     30  C   UNL     1       6.763   3.859  -1.627  0.00  0.00    +0.009 C 
ATOM     31  C   UNL     1       5.798   5.046  -1.683  0.00  0.00    +0.033 C 
ENDBRANCH   1  31
BRANCH  18  32
ATOM     32  C   UNL     1       0.560   5.439   0.591  0.00  0.00    +0.102 C 
ATOM     33  N   UNL     1       0.674   6.545   0.825  0.00  0.00    -0.191 NA
ENDBRANCH  18  32
TORSDOF 4
