REMARK  Name = ZINC59367614
REMARK  8 active torsions:
REMARK  status: ('A' for Active; 'I' for Inactive)
REMARK    1  A    between atoms: C_1  and  C_2
REMARK    2  A    between atoms: C_5  and  S_11
REMARK    3  A    between atoms: C_6  and  N_8
REMARK    4  A    between atoms: S_11  and  N_14
REMARK    5  A    between atoms: N_14  and  C_15
REMARK    6  A    between atoms: C_15  and  C_16
REMARK    7  A    between atoms: C_16  and  N_17
REMARK    8  A    between atoms: C_18  and  C_19
REMARK                            x       y       z     vdW  Elec       q    Type
REMARK                         _______ _______ _______ _____ _____    ______ ____
ROOT
ATOM      1  N   UNL     1       1.325  -5.246   0.082  0.00  0.00    -0.188 NA
ATOM      2  H   UNL     1       2.032  -5.655  -0.442  0.00  0.00    +0.148 HD
ENDROOT
BRANCH   1   3
ATOM      3  S   UNL     1       0.064  -4.488  -0.677  0.00  0.00    +0.061 S 
ATOM      4  O   UNL     1      -1.128  -5.029  -0.124  0.00  0.00    -0.153 OA
ATOM      5  O   UNL     1       0.344  -4.529  -2.070  0.00  0.00    -0.153 OA
BRANCH   3  10
ATOM      6  C   UNL     1       0.236   1.320   0.949  0.00  0.00    +0.044 C 
ATOM      7  C   UNL     1       0.193  -0.131   0.542  0.00  0.00    -0.048 A 
ATOM      8  C   UNL     1      -0.906  -0.905   0.862  0.00  0.00    +0.005 A 
ATOM      9  C   UNL     1      -0.946  -2.236   0.489  0.00  0.00    +0.031 A 
ATOM     10  C   UNL     1       0.114  -2.792  -0.203  0.00  0.00    +0.135 A 
ATOM     11  C   UNL     1       1.213  -2.017  -0.523  0.00  0.00    +0.153 A 
ATOM     12  C   UNL     1       1.250  -0.685  -0.154  0.00  0.00    +0.038 A 
BRANCH  11  13
ATOM     13  N   UNL     1       2.347  -2.612  -1.264  0.00  0.00    +0.058 N 
ATOM     14  O   UNL     1       3.248  -1.908  -1.657  0.00  0.00    -0.126 OA
ATOM     15  O   UNL     1       2.373  -3.802  -1.476  0.00  0.00    -0.126 OA
ENDBRANCH  11  13
ENDBRANCH   3  10
ENDBRANCH   1   3
BRANCH   1  16
ATOM     16  C   UNL     1       1.374  -5.299   1.546  0.00  0.00    +0.126 C 
BRANCH  16  17
ATOM     17  C   UNL     1       2.412  -6.334   1.984  0.00  0.00    +0.129 C 
BRANCH  17  18
ATOM     18  N   UNL     1       2.461  -6.388   3.447  0.00  0.00    -0.388 N 
ATOM     19  C   UNL     1       2.101  -7.465   4.068  0.00  0.00    +0.087 C 
ATOM     20  H   UNL     1       2.763  -5.616   3.951  0.00  0.00    +0.159 HD
BRANCH  19  21
ATOM     21  C   UNL     1       2.032  -7.479   5.540  0.00  0.00    +0.008 A 
ATOM     22  C   UNL     1       2.231  -6.299   6.263  0.00  0.00    +0.060 A 
ATOM     23  C   UNL     1       2.166  -6.317   7.642  0.00  0.00    +0.167 A 
ATOM     24  C   UNL     1       1.900  -7.512   8.313  0.00  0.00    +0.167 A 
ATOM     25  C   UNL     1       1.702  -8.683   7.596  0.00  0.00    +0.065 A 
ATOM     26  C   UNL     1       1.760  -8.671   6.217  0.00  0.00    +0.030 A 
ATOM     27 BR   UNL     1       1.481 -10.269   5.245  0.00  0.00    -0.050 Br
ATOM     28  O   UNL     1       1.888  -7.263   9.654  0.00  0.00    -0.453 OA
ATOM     29  C   UNL     1       2.552  -5.996   9.817  0.00  0.00    +0.466 C 
ATOM     30  O   UNL     1       2.320  -5.324   8.566  0.00  0.00    -0.453 OA
ENDBRANCH  19  21
ENDBRANCH  17  18
ENDBRANCH  16  17
ENDBRANCH   1  16
TORSDOF 7
