REMARK  Name = ZINC12904218
REMARK  6 active torsions:
REMARK  status: ('A' for Active; 'I' for Inactive)
REMARK    1  A    between atoms: C_1  and  C_2
REMARK    2  A    between atoms: C_2  and  C_3
REMARK    3  A    between atoms: C_2  and  C_4
REMARK    4  A    between atoms: C_2  and  C_5
REMARK    5  A    between atoms: C_5  and  C_7
REMARK    6  A    between atoms: C_7  and  N_8
REMARK                            x       y       z     vdW  Elec       q    Type
REMARK                         _______ _______ _______ _____ _____    ______ ____
ROOT
ATOM      1  N   UNL     1       1.578  -2.179  -2.747  0.00  0.00    -0.234 N 
ATOM      2  C   UNL     1       0.954  -2.290  -3.933  0.00  0.00    +0.226 C 
ATOM      3  O   UNL     1      -0.223  -2.087  -4.142  0.00  0.00    -0.275 OA
ATOM      4  C   UNL     1       1.992  -2.714  -4.970  0.00  0.00    +0.087 C 
ATOM      5  C   UNL     1       1.832  -4.203  -5.209  0.00  0.00    +0.013 C 
ATOM      6  C   UNL     1       3.118  -4.859  -5.691  0.00  0.00    +0.001 C 
ATOM      7  C   UNL     1       4.203  -4.636  -4.632  0.00  0.00    +0.001 C 
ATOM      8  C   UNL     1       4.505  -3.143  -4.568  0.00  0.00    +0.013 C 
ATOM      9  C   UNL     1       3.288  -2.293  -4.290  0.00  0.00    +0.087 C 
ATOM     10  C   UNL     1       2.918  -2.275  -2.824  0.00  0.00    +0.226 C 
ATOM     11  O   UNL     1       3.688  -2.337  -1.889  0.00  0.00    -0.275 OA
ENDROOT
BRANCH   1  12
ATOM     12  C   UNL     1       0.863  -1.968  -1.486  0.00  0.00    +0.191 C 
BRANCH  12  13
ATOM     13  C   UNL     1       0.707  -0.490  -1.238  0.00  0.00    +0.156 C 
ATOM     14  O   UNL     1       1.148   0.305  -2.033  0.00  0.00    -0.295 OA
BRANCH  13  16
ATOM     15  C   UNL     1      -0.019   1.526   0.010  0.00  0.00    +0.018 C 
ATOM     16  C   UNL     1       0.002  -0.004   0.002  0.00  0.00    +0.022 C 
ATOM     17  C   UNL     1       0.742  -0.511   1.242  0.00  0.00    +0.018 C 
ATOM     18  C   UNL     1      -1.433  -0.534   0.013  0.00  0.00    +0.018 C 
ENDBRANCH  13  16
ENDBRANCH  12  13
ENDBRANCH   1  12
TORSDOF 3
