REMARK  Name = ZINC64111285
REMARK  8 active torsions:
REMARK  status: ('A' for Active; 'I' for Inactive)
REMARK    1  A    between atoms: C_1  and  C_2
REMARK    2  A    between atoms: C_3  and  C_17
REMARK    3  A    between atoms: C_5  and  C_7
REMARK    4  A    between atoms: C_10  and  C_13
REMARK    5  A    between atoms: C_17  and  N_18
REMARK    6  A    between atoms: N_18  and  C_19
REMARK    7  A    between atoms: N_18  and  C_20
REMARK    8  A    between atoms: C_20  and  C_21
REMARK                            x       y       z     vdW  Elec       q    Type
REMARK                         _______ _______ _______ _____ _____    ______ ____
ROOT
ATOM      1  C   UNL     1      -0.018   1.503   0.010  0.00  0.00    +0.088 C 
ATOM      2  C   UNL     1       0.002  -0.004   0.002  0.00  0.00    +0.127 A 
ATOM      3  C   UNL     1      -1.071  -0.816   0.003  0.00  0.00    +0.097 A 
ATOM      4  N   UNL     1      -0.627  -2.083  -0.006  0.00  0.00    -0.212 NA
ATOM      5  C   UNL     1       0.685  -2.068  -0.012  0.00  0.00    +0.228 A 
ATOM      6  O   UNL     1       1.098  -0.788  -0.013  0.00  0.00    -0.440 OA
ENDROOT
BRANCH   5   7
ATOM      7  C   UNL     1       1.562  -3.258  -0.023  0.00  0.00    +0.037 A 
ATOM      8  C   UNL     1       1.006  -4.538  -0.033  0.00  0.00    +0.014 A 
ATOM      9  C   UNL     1       1.830  -5.644  -0.043  0.00  0.00    +0.013 A 
ATOM     10  C   UNL     1       3.204  -5.487  -0.043  0.00  0.00    +0.055 A 
ATOM     11  C   UNL     1       3.762  -4.221  -0.033  0.00  0.00    +0.013 A 
ATOM     12  C   UNL     1       2.949  -3.106  -0.028  0.00  0.00    +0.014 A 
BRANCH  10  13
ATOM     13  C   UNL     1       4.098  -6.700  -0.054  0.00  0.00    +0.417 C 
ATOM     14  F   UNL     1       4.373  -7.065  -1.377  0.00  0.00    -0.166 F 
ATOM     15  F   UNL     1       5.295  -6.404   0.606  0.00  0.00    -0.166 F 
ATOM     16  F   UNL     1       3.456  -7.759   0.597  0.00  0.00    -0.166 F 
ENDBRANCH  10  13
ENDBRANCH   5   7
BRANCH   3  17
ATOM     17  C   UNL     1      -2.513  -0.381   0.012  0.00  0.00    +0.143 C 
BRANCH  17  18
ATOM     18  N   UNL     1      -2.989  -0.232  -1.370  0.00  0.00    -0.297 NA
ATOM     19  C   UNL     1      -2.296   0.871  -2.049  0.00  0.00    +0.105 C 
BRANCH  18  20
ATOM     20  C   UNL     1      -4.445  -0.042  -1.408  0.00  0.00    +0.113 C 
BRANCH  20  21
ATOM     21  C   UNL     1      -4.934  -0.140  -2.854  0.00  0.00    +0.117 C 
ATOM     22  C   UNL     1      -6.446  -0.128  -2.895  0.00  0.00    +0.008 C 
ATOM     23  C   UNL     1      -6.815  -1.302  -3.455  0.00  0.00    -0.001 A 
ATOM     24  C   UNL     1      -8.125  -1.886  -3.768  0.00  0.00    +0.048 A 
ATOM     25  C   UNL     1      -8.177  -3.111  -4.342  0.00  0.00    +0.124 A 
ATOM     26  C   UNL     1      -7.012  -3.834  -4.645  0.00  0.00    +0.040 A 
ATOM     27  C   UNL     1      -5.774  -3.363  -4.386  0.00  0.00    +0.029 A 
ATOM     28  C   UNL     1      -5.602  -2.086  -3.784  0.00  0.00    +0.043 A 
ATOM     29  N   UNL     1      -4.524  -1.420  -3.441  0.00  0.00    -0.377 N 
ATOM     30  F   UNL     1      -9.381  -3.652  -4.631  0.00  0.00    -0.205 F 
ATOM     31  H   UNL     1      -3.610  -1.723  -3.557  0.00  0.00    +0.160 HD
ENDBRANCH  20  21
ENDBRANCH  18  20
ENDBRANCH  17  18
ENDBRANCH   3  17
TORSDOF 6
