REMARK  Name = ZINC04472337
REMARK  8 active torsions:
REMARK  status: ('A' for Active; 'I' for Inactive)
REMARK    1  A    between atoms: C_1  and  C_2
REMARK    2  A    between atoms: C_2  and  C_4
REMARK    3  A    between atoms: C_2  and  N_8
REMARK    4  A    between atoms: C_4  and  O_6
REMARK    5  A    between atoms: O_6  and  C_7
REMARK    6  A    between atoms: C_12  and  C_13
REMARK    7  A    between atoms: C_16  and  C_18
REMARK    8  A    between atoms: C_23  and  C_24
REMARK                            x       y       z     vdW  Elec       q    Type
REMARK                         _______ _______ _______ _____ _____    ______ ____
ROOT
ATOM      1  N   UNL     1       2.172   1.106  -0.785  0.00  0.00    -0.215 N 
ATOM      2  C   UNL     1       1.352   2.127  -0.603  0.00  0.00    +0.261 C 
ATOM      3  O   UNL     1       1.724   3.278  -0.743  0.00  0.00    -0.269 OA
ATOM      4  C   UNL     1      -0.034   1.804  -0.223  0.00  0.00    +0.083 C 
ATOM      5  C   UNL     1      -1.085   2.639   0.022  0.00  0.00    +0.066 C 
ATOM      6  S   UNL     1       0.038   0.019  -0.179  0.00  0.00    -0.026 S 
ATOM      7  C   UNL     1       1.756  -0.168  -0.629  0.00  0.00    +0.287 C 
ATOM      8  O   UNL     1       2.395  -1.194  -0.763  0.00  0.00    -0.262 OA
ENDROOT
BRANCH   5   9
ATOM      9  C   UNL     1      -0.871   4.030   0.134  0.00  0.00    +0.130 A 
ATOM     10  C   UNL     1      -1.856   4.995   0.254  0.00  0.00    +0.050 A 
ATOM     11  C   UNL     1      -1.205   6.227   0.341  0.00  0.00    +0.050 A 
ATOM     12  C   UNL     1       0.147   5.975   0.261  0.00  0.00    +0.137 A 
ATOM     13  O   UNL     1       0.328   4.647   0.138  0.00  0.00    -0.455 OA
BRANCH  12  14
ATOM     14  C   UNL     1       1.215   6.989   0.305  0.00  0.00    +0.035 A 
ATOM     15  C   UNL     1       1.153   8.112  -0.522  0.00  0.00    +0.013 A 
ATOM     16  C   UNL     1       2.156   9.057  -0.477  0.00  0.00    +0.001 A 
ATOM     17  C   UNL     1       3.229   8.903   0.386  0.00  0.00    +0.001 A 
ATOM     18  C   UNL     1       3.311   7.801   1.213  0.00  0.00    +0.019 A 
ATOM     19  C   UNL     1       2.305   6.834   1.187  0.00  0.00    +0.062 A 
BRANCH  19  20
ATOM     20  C   UNL     1       2.381   5.692   2.047  0.00  0.00    +0.100 C 
ATOM     21  N   UNL     1       2.442   4.785   2.728  0.00  0.00    -0.191 NA
ENDBRANCH  19  20
ENDBRANCH  12  14
ENDBRANCH   5   9
BRANCH   1  23
ATOM     22  C   UNL     1       4.498   0.786  -0.099  0.00  0.00    +0.040 C 
ATOM     23  C   UNL     1       3.563   1.363  -1.165  0.00  0.00    +0.190 C 
BRANCH  23  24
ATOM     24  C   UNL     1       3.851   0.710  -2.492  0.00  0.00    +0.328 C 
ATOM     25  O   UNL     1       2.983   0.093  -3.062  0.00  0.00    -0.249 OA
BRANCH  24  26
ATOM     26  O   UNL     1       5.072   0.814  -3.041  0.00  0.00    -0.467 OA
ATOM     27  C   UNL     1       5.277   0.159  -4.321  0.00  0.00    +0.280 C 
ENDBRANCH  24  26
ENDBRANCH  23  24
ENDBRANCH   1  23
TORSDOF 6
