REMARK  Name = ZINC63515429
REMARK  11 active torsions:
REMARK  status: ('A' for Active; 'I' for Inactive)
REMARK    1  A    between atoms: C_1  and  C_2
REMARK    2  A    between atoms: C_4  and  C_14
REMARK    3  A    between atoms: C_7  and  O_12
REMARK    4  A    between atoms: O_12  and  C_13
REMARK    5  A    between atoms: C_14  and  C_15
REMARK    6  A    between atoms: C_15  and  N_16
REMARK    7  A    between atoms: C_17  and  C_19
REMARK    8  A    between atoms: C_25  and  C_27
REMARK    9  A    between atoms: C_27  and  O_29
REMARK   10  A    between atoms: O_29  and  C_30
REMARK   11  A    between atoms: C_30  and  C_31
REMARK                            x       y       z     vdW  Elec       q    Type
REMARK                         _______ _______ _______ _____ _____    ______ ____
ROOT
ATOM      1  N   UNL     1       0.997  -0.729  -4.977  0.00  0.00    -0.315 N 
ATOM      2  C   UNL     1       1.750  -1.249  -5.967  0.00  0.00    +0.217 C 
ATOM      3  O   UNL     1       2.731  -1.910  -5.699  0.00  0.00    -0.275 OA
ATOM      4  H   UNL     1       0.212  -0.201  -5.192  0.00  0.00    +0.149 HD
ENDROOT
BRANCH   2   5
ATOM      5  C   UNL     1       1.373  -1.009  -7.406  0.00  0.00    +0.089 C 
ATOM      6  C   UNL     1       1.376   0.494  -7.690  0.00  0.00    +0.013 C 
ATOM      7  C   UNL     1       0.994   0.738  -9.152  0.00  0.00    +0.001 C 
ATOM      8  C   UNL     1       2.005   0.044 -10.066  0.00  0.00    +0.001 C 
ATOM      9  C   UNL     1       2.002  -1.460  -9.782  0.00  0.00    +0.015 C 
ATOM     10  C   UNL     1       2.385  -1.703  -8.321  0.00  0.00    +0.110 C 
BRANCH  10  11
ATOM     11  C   UNL     1       2.381  -3.184  -8.041  0.00  0.00    +0.311 C 
ATOM     12  O   UNL     1       1.646  -3.638  -7.197  0.00  0.00    -0.251 OA
BRANCH  11  13
ATOM     13  O   UNL     1       3.196  -3.999  -8.730  0.00  0.00    -0.455 OA
BRANCH  13  14
ATOM     14  C   UNL     1       3.140  -5.391  -8.412  0.00  0.00    +0.345 C 
BRANCH  14  15
ATOM     15  C   UNL     1       4.131  -6.155  -9.293  0.00  0.00    +0.424 C 
ATOM     16  F   UNL     1       5.425  -5.675  -9.063  0.00  0.00    -0.167 F 
ATOM     17  F   UNL     1       4.077  -7.518  -8.982  0.00  0.00    -0.167 F 
ATOM     18  F   UNL     1       3.798  -5.970 -10.639  0.00  0.00    -0.167 F 
ENDBRANCH  14  15
ENDBRANCH  13  14
ENDBRANCH  11  13
ENDBRANCH  10  11
ENDBRANCH   2   5
BRANCH   1  19
ATOM     19  C   UNL     1       1.363  -0.963  -3.578  0.00  0.00    +0.108 C 
BRANCH  19  20
ATOM     20  C   UNL     1       0.352  -0.269  -2.664  0.00  0.00    +0.052 C 
BRANCH  20  23
ATOM     21  C   UNL     1      -0.019   1.526   0.010  0.00  0.00    +0.035 C 
ATOM     22  C   UNL     1       0.002  -0.004   0.002  0.00  0.00    +0.103 C 
ATOM     23  C   UNL     1       0.729  -0.509  -1.224  0.00  0.00    -0.037 C 
ATOM     24  C   UNL     1       1.785  -1.220  -0.768  0.00  0.00    +0.003 A 
ATOM     25  C   UNL     1       2.858  -1.954  -1.447  0.00  0.00    +0.055 A 
ATOM     26  C   UNL     1       3.803  -2.586  -0.711  0.00  0.00    +0.121 A 
ATOM     27  C   UNL     1       3.796  -2.567   0.695  0.00  0.00    +0.047 A 
ATOM     28  C   UNL     1       2.851  -1.919   1.409  0.00  0.00    +0.029 A 
ATOM     29  C   UNL     1       1.779  -1.200   0.713  0.00  0.00    +0.043 A 
ATOM     30  N   UNL     1       0.758  -0.506   1.155  0.00  0.00    -0.378 N 
ATOM     31  H   UNL     1       0.540  -0.349   2.087  0.00  0.00    +0.160 HD
BRANCH  26  32
ATOM     32  O   UNL     1       4.792  -3.263  -1.353  0.00  0.00    -0.495 OA
ATOM     33  C   UNL     1       5.767  -3.915  -0.537  0.00  0.00    +0.277 C 
ENDBRANCH  26  32
ENDBRANCH  20  23
ENDBRANCH  19  20
ENDBRANCH   1  19
TORSDOF 9
