REMARK  Name = ZINC13064410
REMARK  9 active torsions:
REMARK  status: ('A' for Active; 'I' for Inactive)
REMARK    1  A    between atoms: C_1  and  C_2
REMARK    2  A    between atoms: C_2  and  C_3
REMARK    3  A    between atoms: C_3  and  C_5
REMARK    4  A    between atoms: C_3  and  N_72
REMARK    5  A    between atoms: N_9  and  C_10
REMARK    6  A    between atoms: C_16  and  C_17
REMARK    7  A    between atoms: C_16  and  N_72
REMARK    8  A    between atoms: C_24  and  C_25
REMARK    9  A    between atoms: C_24  and  N_72
REMARK                            x       y       z     vdW  Elec       q    Type
REMARK                         _______ _______ _______ _____ _____    ______ ____
ROOT
ATOM      1  N   UNL     1      -0.105  -0.729   2.231  0.00  0.00    +0.392 N 
ATOM      2  H   UNL     1      -0.994  -0.531   2.706  0.00  0.00    -0.080 HD
ENDROOT
BRANCH   1   3
ATOM      3  C   UNL     1       0.964   0.079   2.856  0.00  0.00    +0.003 C 
BRANCH   3   4
ATOM      4  C   UNL     1       2.316  -0.349   2.346  0.00  0.00    +0.138 A 
ATOM      5  N   UNL     1       2.723  -1.578   2.145  0.00  0.00    -0.115 NA
ATOM      6  N   UNL     1       3.933  -1.529   1.705  0.00  0.00    -0.023 NA
ATOM      7  N   UNL     1       4.311  -0.301   1.628  0.00  0.00    -0.044 NA
ATOM      8  N   UNL     1       3.341   0.457   2.015  0.00  0.00    -0.228 N 
BRANCH   8   9
ATOM      9  C   UNL     1       3.354   1.921   2.081  0.00  0.00    +0.111 C 
ATOM     10  C   UNL     1       3.806   2.488   0.733  0.00  0.00    +0.027 C 
ATOM     11  C   UNL     1       3.819   4.016   0.802  0.00  0.00    +0.002 C 
ATOM     12  C   UNL     1       4.788   4.469   1.896  0.00  0.00    +0.000 C 
ATOM     13  C   UNL     1       4.337   3.902   3.244  0.00  0.00    +0.002 C 
ATOM     14  C   UNL     1       4.323   2.373   3.175  0.00  0.00    +0.027 C 
ENDBRANCH   8   9
ENDBRANCH   3   4
BRANCH   3  16
ATOM     15  C   UNL     1      -0.416   0.441   4.908  0.00  0.00    +0.002 C 
ATOM     16  C   UNL     1       0.905  -0.115   4.372  0.00  0.00    -0.011 C 
ENDBRANCH   3  16
ENDBRANCH   1   3
BRANCH   1  17
ATOM     17  C   UNL     1      -0.235  -0.375   0.802  0.00  0.00    -0.042 C 
BRANCH  17  18
ATOM     18  C   UNL     1      -0.910   0.968   0.695  0.00  0.00    -0.064 A 
ATOM     19  C   UNL     1      -2.290   1.047   0.662  0.00  0.00    +0.004 A 
ATOM     20  C   UNL     1      -2.910   2.279   0.570  0.00  0.00    +0.038 A 
ATOM     21  C   UNL     1      -2.148   3.433   0.499  0.00  0.00    +0.123 A 
ATOM     22  C   UNL     1      -0.766   3.352   0.526  0.00  0.00    +0.038 A 
ATOM     23  C   UNL     1      -0.149   2.120   0.625  0.00  0.00    +0.004 A 
ATOM     24  F   UNL     1      -2.753   4.637   0.403  0.00  0.00    -0.205 F 
ENDBRANCH  17  18
ENDBRANCH   1  17
BRANCH   1  25
ATOM     25  C   UNL     1       0.203  -2.168   2.369  0.00  0.00    -0.036 C 
BRANCH  25  26
ATOM     26  C   UNL     1      -1.068  -2.954   2.177  0.00  0.00    +0.001 A 
ATOM     27  C   UNL     1      -1.367  -3.467   0.957  0.00  0.00    +0.017 A 
ATOM     28  C   UNL     1      -2.605  -4.231   0.804  0.00  0.00    +0.002 A 
ATOM     29  C   UNL     1      -2.964  -4.786  -0.430  0.00  0.00    +0.059 A 
ATOM     30  C   UNL     1      -4.140  -5.497  -0.546  0.00  0.00    +0.163 A 
ATOM     31  C   UNL     1      -4.973  -5.664   0.564  0.00  0.00    +0.164 A 
ATOM     32  C   UNL     1      -4.627  -5.117   1.788  0.00  0.00    +0.075 A 
ATOM     33  C   UNL     1      -3.447  -4.398   1.921  0.00  0.00    +0.053 A 
ATOM     34  N   UNL     1      -3.087  -3.845   3.133  0.00  0.00    -0.322 N 
ATOM     35  H   UNL     1      -3.667  -3.960   3.902  0.00  0.00    +0.169 HD
ATOM     36  C   UNL     1      -1.944  -3.150   3.264  0.00  0.00    +0.251 A 
ATOM     37  O   UNL     1      -1.657  -2.676   4.350  0.00  0.00    -0.268 OA
ATOM     38  O   UNL     1      -6.133  -6.367   0.460  0.00  0.00    -0.485 OA
ATOM     39  C   UNL     1      -6.638  -6.584  -0.862  0.00  0.00    +0.270 C 
ATOM     40  C   UNL     1      -5.477  -7.052  -1.750  0.00  0.00    +0.270 C 
ATOM     41  O   UNL     1      -4.476  -6.029  -1.754  0.00  0.00    -0.485 OA
ENDBRANCH  25  26
ENDBRANCH   1  25
TORSDOF 8
