REMARK  Name = ZINC42740623
REMARK  4 active torsions:
REMARK  status: ('A' for Active; 'I' for Inactive)
REMARK    1  A    between atoms: C_1  and  C_2
REMARK    2  A    between atoms: N_11  and  C_12
REMARK    3  A    between atoms: C_15  and  N_20
REMARK    4  A    between atoms: C_17  and  C_18
REMARK                            x       y       z     vdW  Elec       q    Type
REMARK                         _______ _______ _______ _____ _____    ______ ____
ROOT
ATOM      1  C   UNL     1       0.040  -1.089   2.237  0.00  0.00    +0.048 A 
ATOM      2  C   UNL     1      -0.181  -2.460   2.244  0.00  0.00    +0.026 A 
ATOM      3  C   UNL     1      -0.863  -3.047   3.291  0.00  0.00    +0.024 A 
ATOM      4  C   UNL     1      -1.334  -2.272   4.346  0.00  0.00    +0.026 A 
ATOM      5  C   UNL     1      -1.122  -0.904   4.353  0.00  0.00    +0.043 A 
ATOM      6  C   UNL     1      -0.428  -0.302   3.300  0.00  0.00    +0.074 A 
ENDROOT
BRANCH   1  16
ATOM      7  C   UNL     1      -0.019   1.526   0.010  0.00  0.00    +0.033 C 
ATOM      8  C   UNL     1       0.002  -0.004   0.002  0.00  0.00    +0.101 C 
ATOM      9  C   UNL     1       0.733  -0.505  -1.242  0.00  0.00    -0.017 A 
ATOM     10  C   UNL     1       0.186  -0.449  -2.523  0.00  0.00    +0.013 A 
ATOM     11  C   UNL     1       0.893  -0.908  -3.581  0.00  0.00    +0.046 A 
ATOM     12  S   UNL     1       2.405  -1.456  -2.803  0.00  0.00    -0.101 S 
ATOM     13  C   UNL     1       1.981  -1.036  -1.133  0.00  0.00    -0.004 A 
ATOM     14  C   UNL     1       2.794  -1.224   0.106  0.00  0.00    +0.061 C 
ATOM     15  C   UNL     1       2.192  -0.360   1.225  0.00  0.00    +0.111 C 
ATOM     16  N   UNL     1       0.728  -0.498   1.180  0.00  0.00    -0.322 N 
ENDBRANCH   1  16
BRANCH   4  17
ATOM     17  N   UNL     1      -2.025  -2.877   5.402  0.00  0.00    -0.358 N 
ATOM     18  H   UNL     1      -2.175  -3.835   5.398  0.00  0.00    +0.142 HD
ATOM     19  H   UNL     1      -2.354  -2.338   6.138  0.00  0.00    +0.142 HD
ENDBRANCH   4  17
BRANCH   6  20
ATOM     20  C   UNL     1      -0.199   1.111   3.304  0.00  0.00    +0.101 C 
ATOM     21  N   UNL     1      -0.018   2.233   3.306  0.00  0.00    -0.191 NA
ENDBRANCH   6  20
TORSDOF 3
