REMARK  Name = ZINC59894113
REMARK  4 active torsions:
REMARK  status: ('A' for Active; 'I' for Inactive)
REMARK    1  A    between atoms: C_1  and  C_2
REMARK    2  A    between atoms: C_9  and  C_11
REMARK    3  A    between atoms: N_13  and  C_20
REMARK    4  A    between atoms: C_16  and  C_19
REMARK                            x       y       z     vdW  Elec       q    Type
REMARK                         _______ _______ _______ _____ _____    ______ ____
ROOT
ATOM      1  C   UNL     1       2.613  -0.254   2.702  0.00  0.00    +0.201 C 
ATOM      2  N   UNL     1       2.791  -1.528   2.918  0.00  0.00    -0.152 NA
ATOM      3  N   UNL     1       3.395  -1.978   4.097  0.00  0.00    -0.157 N 
ATOM      4  C   UNL     1       4.077  -1.129   4.891  0.00  0.00    +0.259 C 
ATOM      5  O   UNL     1       4.583  -1.526   5.919  0.00  0.00    -0.271 OA
ATOM      6  C   UNL     1       4.206   0.321   4.489  0.00  0.00    +0.157 C 
ATOM      7  N   UNL     1       3.047   0.671   3.657  0.00  0.00    -0.313 N 
ATOM      8  C   UNL     1       5.493   0.523   3.686  0.00  0.00    +0.038 C 
ATOM      9  H   UNL     1       2.594   1.521   3.770  0.00  0.00    +0.148 HD
ENDROOT
BRANCH   1  17
ATOM     10  C   UNL     1       0.887   1.255  -0.787  0.00  0.00    +0.030 C 
ATOM     11  C   UNL     1       0.887  -0.272  -0.692  0.00  0.00    +0.099 C 
ATOM     12  C   UNL     1      -0.544  -0.799  -0.841  0.00  0.00    +0.182 C 
ATOM     13  O   UNL     1      -0.560  -2.202  -0.566  0.00  0.00    -0.376 OA
ATOM     14  C   UNL     1      -0.173  -2.542   0.767  0.00  0.00    +0.179 C 
ATOM     15  C   UNL     1       1.277  -2.104   0.999  0.00  0.00    +0.136 C 
ATOM     16  N   UNL     1       1.400  -0.686   0.624  0.00  0.00    -0.288 N 
ATOM     17  C   UNL     1       1.965   0.207   1.461  0.00  0.00    +0.281 C 
ATOM     18  O   UNL     1       1.941   1.393   1.192  0.00  0.00    -0.267 OA
ENDBRANCH   1  17
BRANCH   3  19
ATOM     19  C   UNL     1       3.289  -3.327   4.456  0.00  0.00    +0.060 A 
ATOM     20  C   UNL     1       2.053  -3.960   4.429  0.00  0.00    +0.025 A 
ATOM     21  C   UNL     1       1.953  -5.291   4.784  0.00  0.00    +0.002 A 
ATOM     22  C   UNL     1       3.082  -5.993   5.165  0.00  0.00    +0.000 A 
ATOM     23  C   UNL     1       4.314  -5.366   5.192  0.00  0.00    +0.002 A 
ATOM     24  C   UNL     1       4.422  -4.037   4.833  0.00  0.00    +0.025 A 
ENDBRANCH   3  19
TORSDOF 2
