REMARK  Name = ZINC01799943
REMARK  5 active torsions:
REMARK  status: ('A' for Active; 'I' for Inactive)
REMARK    1  A    between atoms: C_14  and  C_15
REMARK    2  A    between atoms: N_16  and  N_17
REMARK    3  A    between atoms: C_18  and  C_20
REMARK    4  A    between atoms: C_20  and  S_21
REMARK    5  A    between atoms: S_21  and  C_22
REMARK                            x       y       z     vdW  Elec       q    Type
REMARK                         _______ _______ _______ _____ _____    ______ ____
ROOT
ATOM      1  C   UNL     1      -1.994  -7.284  -0.017  0.00  0.00    +0.139 C 
ATOM      2  N   UNL     1      -2.336  -6.029  -0.022  0.00  0.00    -0.188 NA
ENDROOT
BRANCH   1  16
ATOM      3  C   UNL     1      -2.000 -12.379  -0.359  0.00  0.00    +0.001 A 
ATOM      4  C   UNL     1      -1.015 -11.393  -0.363  0.00  0.00    +0.001 A 
ATOM      5  C   UNL     1      -1.325 -10.073  -0.253  0.00  0.00    +0.009 A 
ATOM      6  C   UNL     1      -2.671  -9.684  -0.135  0.00  0.00    -0.009 A 
ATOM      7  C   UNL     1      -3.707 -10.718  -0.125  0.00  0.00    -0.017 A 
ATOM      8  C   UNL     1      -3.318 -12.069  -0.244  0.00  0.00    +0.008 A 
ATOM      9  C   UNL     1      -5.052 -10.366  -0.005  0.00  0.00    +0.017 A 
ATOM     10  C   UNL     1      -5.414  -9.023   0.112  0.00  0.00    -0.017 A 
ATOM     11  C   UNL     1      -6.768  -8.644   0.235  0.00  0.00    +0.008 A 
ATOM     12  C   UNL     1      -7.087  -7.329   0.348  0.00  0.00    +0.001 A 
ATOM     13  C   UNL     1      -6.109  -6.336   0.344  0.00  0.00    +0.001 A 
ATOM     14  C   UNL     1      -4.787  -6.636   0.229  0.00  0.00    +0.009 A 
ATOM     15  C   UNL     1      -4.388  -7.978   0.109  0.00  0.00    -0.009 A 
ATOM     16  C   UNL     1      -3.027  -8.325  -0.013  0.00  0.00    +0.010 A 
ENDBRANCH   1  16
BRANCH   2  17
ATOM     17  N   UNL     1      -1.349  -5.034  -0.026  0.00  0.00    -0.206 N 
ATOM     18  C   UNL     1      -1.703  -3.733  -0.031  0.00  0.00    +0.243 C 
ATOM     19  O   UNL     1      -2.876  -3.424  -0.031  0.00  0.00    -0.273 OA
ATOM     20  H   UNL     1      -0.411  -5.281  -0.026  0.00  0.00    +0.177 HD
BRANCH  18  21
ATOM     21  C   UNL     1      -0.642  -2.664  -0.036  0.00  0.00    +0.176 C 
BRANCH  21  22
ATOM     22  S   UNL     1      -1.428  -1.034  -0.041  0.00  0.00    -0.058 S 
BRANCH  22  23
ATOM     23  C   UNL     1       0.002  -0.004  -0.046  0.00  0.00    +0.258 A 
ATOM     24  N   UNL     1       1.238  -0.436  -0.045  0.00  0.00    -0.203 NA
ATOM     25  C   UNL     1       2.075   0.637  -0.049  0.00  0.00    +0.110 A 
ATOM     26  C   UNL     1       3.464   0.775  -0.050  0.00  0.00    +0.031 A 
ATOM     27  C   UNL     1       4.025   2.033  -0.055  0.00  0.00    +0.002 A 
ATOM     28  C   UNL     1       3.219   3.161  -0.060  0.00  0.00    +0.004 A 
ATOM     29  C   UNL     1       1.844   3.038  -0.058  0.00  0.00    +0.048 A 
ATOM     30  C   UNL     1       1.263   1.781  -0.053  0.00  0.00    +0.156 A 
ATOM     31  O   UNL     1      -0.017   1.341  -0.051  0.00  0.00    -0.431 OA
ENDBRANCH  22  23
ENDBRANCH  21  22
ENDBRANCH  18  21
ENDBRANCH   2  17
TORSDOF 5
