REMARK  Name = ZINC16849764
REMARK  5 active torsions:
REMARK  status: ('A' for Active; 'I' for Inactive)
REMARK    1  A    between atoms: N_6  and  C_9
REMARK    2  A    between atoms: C_9  and  C_10
REMARK    3  A    between atoms: N_12  and  C_13
REMARK    4  A    between atoms: C_13  and  C_14
REMARK    5  A    between atoms: N_20  and  C_22
REMARK                            x       y       z     vdW  Elec       q    Type
REMARK                         _______ _______ _______ _____ _____    ______ ____
ROOT
ATOM      1  C   UNL     1       3.355   2.346  -0.019  0.00  0.00    +0.150 A 
ATOM      2  C   UNL     1       2.352   1.358  -0.013  0.00  0.00    +0.103 A 
ATOM      3  C   UNL     1       1.115   2.021   0.002  0.00  0.00    +0.165 A 
ATOM      4  N   UNL     1      -0.016   1.297   0.009  0.00  0.00    -0.218 NA
ATOM      5  C   UNL     1       0.002  -0.004   0.002  0.00  0.00    +0.204 A 
ATOM      6  N   UNL     1       1.149  -0.729  -0.012  0.00  0.00    -0.290 N 
ATOM      7  C   UNL     1       2.350  -0.105  -0.021  0.00  0.00    +0.265 A 
ATOM      8  O   UNL     1       3.391  -0.738  -0.035  0.00  0.00    -0.267 OA
ATOM      9  N   UNL     1       1.387   3.352   0.007  0.00  0.00    -0.242 N 
ATOM     10  N   UNL     1       2.778   3.516  -0.006  0.00  0.00    -0.177 NA
ENDROOT
BRANCH   9  11
ATOM     11  C   UNL     1       0.396   4.430   0.022  0.00  0.00    +0.132 C 
ATOM     12  C   UNL     1       0.589   5.283   1.287  0.00  0.00    +0.051 C 
ATOM     13  C   UNL     1      -0.249   6.583   1.127  0.00  0.00    +0.168 C 
ATOM     14  S   UNL     1       0.072   6.976  -0.645  0.00  0.00    -0.029 S 
ATOM     15  O   UNL     1       1.187   7.852  -0.730  0.00  0.00    -0.174 OA
ATOM     16  O   UNL     1      -1.153   7.339  -1.268  0.00  0.00    -0.174 OA
ATOM     17  C   UNL     1       0.574   5.309  -1.239  0.00  0.00    +0.192 C 
ENDBRANCH   9  11
BRANCH   6  18
ATOM     18  C   UNL     1       1.087  -2.192  -0.019  0.00  0.00    +0.221 C 
BRANCH  18  19
ATOM     19  C   UNL     1       1.053  -2.687  -1.442  0.00  0.00    +0.233 C 
ATOM     20  O   UNL     1       1.078  -1.895  -2.360  0.00  0.00    -0.274 OA
ATOM     21  N   UNL     1       0.995  -4.010  -1.695  0.00  0.00    -0.311 N 
ATOM     22  H   UNL     1       0.975  -4.643  -0.960  0.00  0.00    +0.149 HD
BRANCH  21  23
ATOM     23  C   UNL     1       0.961  -4.491  -3.078  0.00  0.00    +0.135 C 
BRANCH  23  24
ATOM     24  C   UNL     1       0.897  -6.019  -3.085  0.00  0.00    +0.135 C 
ATOM     25  C   UNL     1       0.987  -6.554  -4.532  0.00  0.00    +0.035 C 
ATOM     26  C   UNL     1       0.027  -7.765  -4.544  0.00  0.00    +0.031 C 
ATOM     27  C   UNL     1      -0.529  -7.818  -3.104  0.00  0.00    +0.160 C 
ATOM     28  O   UNL     1      -0.388  -6.471  -2.604  0.00  0.00    -0.375 OA
ENDBRANCH  23  24
ENDBRANCH  21  23
ENDBRANCH  18  19
ENDBRANCH   6  18
TORSDOF 5
