REMARK  Name = ZINC63937558
REMARK  9 active torsions:
REMARK  status: ('A' for Active; 'I' for Inactive)
REMARK    1  A    between atoms: C_1  and  C_2
REMARK    2  A    between atoms: C_2  and  C_4
REMARK    3  A    between atoms: C_2  and  N_14
REMARK    4  A    between atoms: C_9  and  O_10
REMARK    5  A    between atoms: O_10  and  C_11
REMARK    6  A    between atoms: C_11  and  C_12
REMARK    7  A    between atoms: C_11  and  C_13
REMARK    8  A    between atoms: C_15  and  C_17
REMARK    9  A    between atoms: C_17  and  C_18
REMARK                            x       y       z     vdW  Elec       q    Type
REMARK                         _______ _______ _______ _____ _____    ______ ____
ROOT
ATOM      1  N   UNL     1       0.527  -0.464  -1.310  0.00  0.00    -0.308 N 
ATOM      2  C   UNL     1       1.822  -0.833  -1.359  0.00  0.00    +0.218 C 
ATOM      3  O   UNL     1       2.499  -0.806  -0.353  0.00  0.00    -0.275 OA
ATOM      4  H   UNL     1      -0.014  -0.485  -2.115  0.00  0.00    +0.149 HD
ENDROOT
BRANCH   1   6
ATOM      5  C   UNL     1       0.170   1.472   0.142  0.00  0.00    +0.033 C 
ATOM      6  C   UNL     1      -0.063  -0.029  -0.042  0.00  0.00    +0.104 C 
BRANCH   6   7
ATOM      7  C   UNL     1      -1.544  -0.309  -0.055  0.00  0.00    +0.014 A 
ATOM      8  C   UNL     1      -2.230  -0.349  -1.254  0.00  0.00    +0.009 A 
ATOM      9  C   UNL     1      -3.588  -0.605  -1.266  0.00  0.00    +0.001 A 
ATOM     10  C   UNL     1      -4.264  -0.823  -0.080  0.00  0.00    +0.004 A 
ATOM     11  C   UNL     1      -3.583  -0.785   1.121  0.00  0.00    +0.046 A 
ATOM     12  C   UNL     1      -2.219  -0.533   1.136  0.00  0.00    +0.126 A 
BRANCH  12  13
ATOM     13  O   UNL     1      -1.546  -0.501   2.316  0.00  0.00    -0.489 OA
BRANCH  13  14
ATOM     14  C   UNL     1      -2.280  -0.851   3.492  0.00  0.00    +0.167 C 
ATOM     15  C   UNL     1      -1.314  -1.363   4.562  0.00  0.00    +0.051 C 
ATOM     16  C   UNL     1      -3.017   0.383   4.018  0.00  0.00    +0.051 C 
ENDBRANCH  13  14
ENDBRANCH  12  13
ENDBRANCH   6   7
ENDBRANCH   1   6
BRANCH   2  17
ATOM     17  C   UNL     1       2.429  -1.280  -2.664  0.00  0.00    +0.129 C 
BRANCH  17  18
ATOM     18  C   UNL     1       3.878  -1.636  -2.448  0.00  0.00    -0.033 C 
ATOM     19  C   UNL     1       4.387  -2.866  -2.211  0.00  0.00    -0.001 A 
ATOM     20  C   UNL     1       3.767  -4.191  -2.088  0.00  0.00    +0.010 A 
ATOM     21  C   UNL     1       4.555  -5.263  -1.842  0.00  0.00    +0.001 A 
ATOM     22  C   UNL     1       5.944  -5.141  -1.702  0.00  0.00    +0.002 A 
ATOM     23  C   UNL     1       6.585  -3.957  -1.803  0.00  0.00    +0.026 A 
ATOM     24  C   UNL     1       5.856  -2.764  -2.061  0.00  0.00    +0.043 A 
ATOM     25  N   UNL     1       6.240  -1.518  -2.199  0.00  0.00    -0.380 N 
ATOM     26  C   UNL     1       5.058  -0.690  -2.459  0.00  0.00    +0.145 C 
ATOM     27  H   UNL     1       7.154  -1.198  -2.142  0.00  0.00    +0.160 HD
ENDBRANCH  17  18
ENDBRANCH   2  17
TORSDOF 6
