REMARK  Name = ZINC04600304
REMARK  9 active torsions:
REMARK  status: ('A' for Active; 'I' for Inactive)
REMARK    1  A    between atoms: C_1  and  C_2
REMARK    2  A    between atoms: C_5  and  C_11
REMARK    3  A    between atoms: C_7  and  N_8
REMARK    4  A    between atoms: C_11  and  C_12
REMARK    5  A    between atoms: C_11  and  C_20
REMARK    6  A    between atoms: C_13  and  C_19
REMARK    7  A    between atoms: C_17  and  O_18
REMARK    8  A    between atoms: C_21  and  C_27
REMARK    9  A    between atoms: C_25  and  O_26
REMARK                            x       y       z     vdW  Elec       q    Type
REMARK                         _______ _______ _______ _____ _____    ______ ____
ROOT
ATOM      1  C   UNL     1       0.636  -4.021  -0.271  0.00  0.00    +0.093 C 
ENDROOT
BRANCH   1   6
ATOM      2  C   UNL     1       0.197   1.239   2.082  0.00  0.00    +0.046 C 
ATOM      3  C   UNL     1       0.312  -0.133   1.469  0.00  0.00    -0.020 A 
ATOM      4  C   UNL     1       0.221  -0.287   0.098  0.00  0.00    +0.006 A 
ATOM      5  C   UNL     1       0.326  -1.545  -0.465  0.00  0.00    +0.005 A 
ATOM      6  C   UNL     1       0.523  -2.649   0.343  0.00  0.00    -0.033 A 
ATOM      7  C   UNL     1       0.615  -2.495   1.713  0.00  0.00    +0.037 A 
ATOM      8  C   UNL     1       0.514  -1.236   2.276  0.00  0.00    +0.129 A 
BRANCH   8   9
ATOM      9  N   UNL     1       0.618  -1.071   3.743  0.00  0.00    +0.057 N 
ATOM     10  O   UNL     1       1.184  -0.107   4.204  0.00  0.00    -0.126 OA
ATOM     11  O   UNL     1       0.136  -1.899   4.481  0.00  0.00    -0.126 OA
ENDBRANCH   8   9
ENDBRANCH   1   6
BRANCH   1  12
ATOM     12  C   UNL     1      -0.700  -4.432  -0.834  0.00  0.00    +0.048 A 
ATOM     13  C   UNL     1      -1.510  -5.468  -0.359  0.00  0.00    +0.068 A 
ATOM     14  N   UNL     1      -2.586  -5.520  -1.101  0.00  0.00    -0.176 NA
ATOM     15  N   UNL     1      -2.499  -4.517  -2.075  0.00  0.00    -0.247 N 
ATOM     16  H   UNL     1      -3.160  -4.327  -2.759  0.00  0.00    +0.192 HD
ATOM     17  C   UNL     1      -1.335  -3.857  -1.889  0.00  0.00    +0.213 A 
ATOM     18  C   UNL     1      -1.196  -6.371   0.806  0.00  0.00    +0.068 C 
BRANCH  17  19
ATOM     19  O   UNL     1      -0.880  -2.811  -2.626  0.00  0.00    -0.492 OA
ATOM     20  H   UNL     1      -0.413  -3.071  -3.431  0.00  0.00    +0.294 HD
ENDBRANCH  17  19
ENDBRANCH   1  12
BRANCH   1  21
ATOM     21  C   UNL     1       1.660  -3.994  -1.376  0.00  0.00    +0.048 A 
ATOM     22  C   UNL     1       1.734  -4.857  -2.414  0.00  0.00    +0.041 A 
ATOM     23  N   UNL     1       2.785  -4.495  -3.179  0.00  0.00    -0.278 N 
ATOM     24  N   UNL     1       3.380  -3.370  -2.594  0.00  0.00    -0.136 NA
ATOM     25  H   UNL     1       3.078  -4.936  -3.992  0.00  0.00    +0.189 HD
ATOM     26  C   UNL     1       2.702  -3.064  -1.514  0.00  0.00    +0.236 A 
ATOM     27  C   UNL     1       0.809  -6.019  -2.671  0.00  0.00    +0.065 C 
BRANCH  26  28
ATOM     28  O   UNL     1       2.965  -2.029  -0.672  0.00  0.00    -0.491 OA
ATOM     29  H   UNL     1       3.629  -2.228   0.001  0.00  0.00    +0.294 HD
ENDBRANCH  26  28
ENDBRANCH   1  21
TORSDOF 6
