REMARK  Name = ZINC32867113
REMARK  11 active torsions:
REMARK  status: ('A' for Active; 'I' for Inactive)
REMARK    1  A    between atoms: C_1  and  C_2
REMARK    2  A    between atoms: C_2  and  C_3
REMARK    3  A    between atoms: C_2  and  C_4
REMARK    4  A    between atoms: C_4  and  O_5
REMARK    5  A    between atoms: O_5  and  C_6
REMARK    6  A    between atoms: C_10  and  C_12
REMARK    7  A    between atoms: C_12  and  O_14
REMARK    8  A    between atoms: O_14  and  C_15
REMARK    9  A    between atoms: C_15  and  C_16
REMARK   10  A    between atoms: C_18  and  O_19
REMARK   11  A    between atoms: C_28  and  C_30
REMARK                            x       y       z     vdW  Elec       q    Type
REMARK                         _______ _______ _______ _____ _____    ______ ____
ROOT
ATOM      1  C   UNL     1       2.400   8.050   0.037  0.00  0.00    +0.007 A 
ATOM      2  C   UNL     1       3.488   7.255   0.210  0.00  0.00    +0.095 A 
ATOM      3  C   UNL     1       4.762   7.836   0.379  0.00  0.00    +0.285 A 
ATOM      4  O   UNL     1       4.936   9.167   0.375  0.00  0.00    -0.425 OA
ATOM      5  C   UNL     1       3.897  10.013   0.208  0.00  0.00    +0.141 A 
ATOM      6  C   UNL     1       2.598   9.501   0.028  0.00  0.00    +0.024 A 
ATOM      7  C   UNL     1       1.517  10.374  -0.140  0.00  0.00    +0.014 A 
ATOM      8  C   UNL     1       1.728  11.722  -0.139  0.00  0.00    +0.024 A 
ATOM      9  C   UNL     1       3.013  12.236   0.035  0.00  0.00    +0.037 A 
ATOM     10  C   UNL     1       4.094  11.385   0.207  0.00  0.00    +0.070 A 
ATOM     11  N   UNL     1       3.212  13.617   0.034  0.00  0.00    -0.286 N 
ATOM     12  C   UNL     1       4.351  14.133  -0.468  0.00  0.00    +0.214 C 
ATOM     13  O   UNL     1       5.161  13.407  -1.006  0.00  0.00    -0.276 OA
ATOM     14  C   UNL     1       4.619  15.612  -0.362  0.00  0.00    +0.109 C 
ATOM     15  H   UNL     1       2.439  14.284   0.443  0.00  0.00    +0.155 HD
ENDROOT
BRANCH   3  16
ATOM     16  O   UNL     1       5.729   7.111   0.533  0.00  0.00    -0.480 OA
ATOM     17  H   UNL     1       6.729   7.550   0.666  0.00  0.00    +0.295 HD
ENDBRANCH   3  16
BRANCH   1  18
ATOM     18  C   UNL     1       1.028   7.455  -0.147  0.00  0.00    +0.269 C 
BRANCH  18  19
ATOM     19  O   UNL     1       1.119   6.006  -0.103  0.00  0.00    -0.456 OA
BRANCH  19  20
ATOM     20  C   UNL     1      -0.029   5.317  -0.252  0.00  0.00    +0.340 C 
ATOM     21  O   UNL     1      -1.077   5.909  -0.415  0.00  0.00    -0.245 OA
BRANCH  20  26
ATOM     22  C   UNL     1      -1.177   1.739  -0.346  0.00  0.00    +0.121 A 
ATOM     23  C   UNL     1       0.024   1.068  -0.154  0.00  0.00    +0.046 A 
ATOM     24  C   UNL     1       1.201   1.777  -0.000  0.00  0.00    +0.004 A 
ATOM     25  C   UNL     1       1.190   3.156  -0.031  0.00  0.00    +0.015 A 
ATOM     26  C   UNL     1      -0.013   3.840  -0.218  0.00  0.00    +0.062 A 
ATOM     27  C   UNL     1      -1.200   3.123  -0.373  0.00  0.00    +0.060 A 
BRANCH  22  28
ATOM     28  O   UNL     1      -2.330   1.037  -0.503  0.00  0.00    -0.492 OA
BRANCH  28  29
ATOM     29  C   UNL     1      -2.232  -0.389  -0.459  0.00  0.00    +0.232 C 
BRANCH  29  31
ATOM     30  C   UNL     1      -4.132  -0.673  -2.057  0.00  0.00    +0.010 C 
ATOM     31  C   UNL     1      -3.621  -1.001  -0.652  0.00  0.00    +0.020 C 
ATOM     32  C   UNL     1      -3.538  -2.519  -0.482  0.00  0.00    +0.010 C 
ENDBRANCH  29  31
ENDBRANCH  28  29
ENDBRANCH  22  28
ENDBRANCH  20  26
ENDBRANCH  19  20
ENDBRANCH  18  19
ENDBRANCH   1  18
TORSDOF 8
