REMARK  Name = ZINC14537335
REMARK  8 active torsions:
REMARK  status: ('A' for Active; 'I' for Inactive)
REMARK    1  A    between atoms: C_1  and  C_2
REMARK    2  A    between atoms: C_7  and  C_8
REMARK    3  A    between atoms: C_8  and  C_9
REMARK    4  A    between atoms: N_13  and  C_16
REMARK    5  A    between atoms: C_16  and  C_17
REMARK    6  A    between atoms: C_26  and  C_27
REMARK    7  A    between atoms: C_26  and  N_63
REMARK    8  A    between atoms: C_30  and  O_34
REMARK                            x       y       z     vdW  Elec       q    Type
REMARK                         _______ _______ _______ _____ _____    ______ ____
ROOT
ATOM      1  C   UNL     1      -1.694   5.949  -3.029  0.00  0.00    +0.022 A 
ATOM      2  C   UNL     1      -0.719   6.048  -3.974  0.00  0.00    +0.012 A 
ATOM      3  C   UNL     1       0.595   5.649  -3.667  0.00  0.00    -0.044 A 
ATOM      4  C   UNL     1       0.880   5.177  -2.434  0.00  0.00    +0.022 A 
ATOM      5  N   UNL     1      -0.103   5.069  -1.495  0.00  0.00    -0.306 N 
ATOM      6  C   UNL     1      -1.366   5.444  -1.759  0.00  0.00    +0.255 A 
ATOM      7  O   UNL     1      -2.227   5.346  -0.899  0.00  0.00    -0.267 OA
ATOM      8  C   UNL     1       2.273   4.747  -2.050  0.00  0.00    +0.035 C 
ATOM      9  C   UNL     1       3.122   4.531  -3.303  0.00  0.00    -0.072 C 
ATOM     10  C   UNL     1       1.641   5.768  -4.743  0.00  0.00    -0.041 C 
ATOM     11  N   UNL     1       2.987   5.735  -4.149  0.00  0.00    +0.385 N 
ATOM     12  H   UNL     1       3.119   6.571  -3.568  0.00  0.00    -0.081 HD
ENDROOT
BRANCH   1  13
ATOM     13  C   UNL     1      -3.106   6.376  -3.340  0.00  0.00    +0.076 C 
BRANCH  13  20
ATOM     14  C   UNL     1      -3.084   5.552  -6.109  0.00  0.00    +0.044 C 
ATOM     15  C   UNL     1      -3.898   4.783  -5.101  0.00  0.00    -0.047 A 
ATOM     16  C   UNL     1      -4.633   3.683  -5.501  0.00  0.00    +0.003 A 
ATOM     17  C   UNL     1      -5.379   2.977  -4.576  0.00  0.00    +0.000 A 
ATOM     18  C   UNL     1      -5.390   3.371  -3.251  0.00  0.00    +0.000 A 
ATOM     19  C   UNL     1      -4.650   4.468  -2.850  0.00  0.00    +0.004 A 
ATOM     20  C   UNL     1      -3.908   5.177  -3.776  0.00  0.00    -0.040 A 
ENDBRANCH  13  20
ENDBRANCH   1  13
BRANCH   5  21
ATOM     21  C   UNL     1       0.226   4.540  -0.169  0.00  0.00    +0.180 C 
BRANCH  21  22
ATOM     22  C   UNL     1       0.698   5.663   0.717  0.00  0.00    +0.061 A 
ATOM     23  C   UNL     1      -0.202   6.300   1.551  0.00  0.00    +0.025 A 
ATOM     24  C   UNL     1       0.243   7.332   2.362  0.00  0.00    +0.003 A 
ATOM     25  C   UNL     1       1.583   7.687   2.304  0.00  0.00    +0.020 A 
ATOM     26  C   UNL     1       2.422   7.009   1.441  0.00  0.00    +0.111 A 
ATOM     27  N   UNL     1       1.965   6.027   0.688  0.00  0.00    -0.258 NA
ENDBRANCH  21  22
ENDBRANCH   5  21
BRANCH  11  28
ATOM     28  C   UNL     1       4.013   5.723  -5.216  0.00  0.00    -0.042 C 
BRANCH  28  29
ATOM     29  C   UNL     1       3.919   4.451  -6.017  0.00  0.00    -0.062 A 
ATOM     30  C   UNL     1       3.104   4.397  -7.134  0.00  0.00    +0.005 A 
ATOM     31  C   UNL     1       3.015   3.232  -7.870  0.00  0.00    +0.047 A 
ATOM     32  C   UNL     1       3.744   2.115  -7.490  0.00  0.00    +0.135 A 
ATOM     33  C   UNL     1       4.562   2.171  -6.369  0.00  0.00    +0.082 A 
ATOM     34  C   UNL     1       4.651   3.341  -5.638  0.00  0.00    +0.025 A 
ATOM     35 CL   UNL     1       5.476   0.775  -5.889  0.00  0.00    -0.080 Cl
BRANCH  32  36
ATOM     36  O   UNL     1       3.659   0.967  -8.213  0.00  0.00    -0.505 OA
ATOM     37  H   UNL     1       4.308   0.903  -8.927  0.00  0.00    +0.292 HD
ENDBRANCH  32  36
ENDBRANCH  28  29
ENDBRANCH  11  28
TORSDOF 7
