REMARK  Name = ZINC32260596
REMARK  6 active torsions:
REMARK  status: ('A' for Active; 'I' for Inactive)
REMARK    1  A    between atoms: C_4  and  C_7
REMARK    2  A    between atoms: C_7  and  N_8
REMARK    3  A    between atoms: N_11  and  C_12
REMARK    4  A    between atoms: C_12  and  C_17
REMARK    5  A    between atoms: N_19  and  N_20
REMARK    6  A    between atoms: C_21  and  C_23
REMARK                            x       y       z     vdW  Elec       q    Type
REMARK                         _______ _______ _______ _____ _____    ______ ____
ROOT
ATOM      1  C   UNL     1       6.960  -2.398  -3.250  0.00  0.00    +0.113 C 
ATOM      2  C   UNL     1       7.993  -1.509  -2.534  0.00  0.00    +0.035 C 
ATOM      3  C   UNL     1       8.968  -1.006  -3.619  0.00  0.00    +0.003 C 
ATOM      4  C   UNL     1       8.154  -1.097  -4.933  0.00  0.00    +0.003 C 
ATOM      5  C   UNL     1       7.344  -2.404  -4.744  0.00  0.00    +0.035 C 
ENDROOT
BRANCH   1   9
ATOM      6  N   UNL     1       3.921  -1.053  -1.681  0.00  0.00    -0.295 N 
ATOM      7  C   UNL     1       5.115  -1.657  -1.841  0.00  0.00    +0.301 C 
ATOM      8  O   UNL     1       5.741  -2.035  -0.870  0.00  0.00    -0.253 OA
ATOM      9  N   UNL     1       5.616  -1.842  -3.079  0.00  0.00    -0.285 N 
ATOM     10  H   UNL     1       3.356  -0.711  -2.560  0.00  0.00    +0.151 HD
ATOM     11  H   UNL     1       5.015  -1.576  -3.961  0.00  0.00    +0.151 HD
BRANCH   6  12
ATOM     12  C   UNL     1       3.377  -0.852  -0.336  0.00  0.00    +0.141 C 
BRANCH  12  16
ATOM     13  C   UNL     1      -0.408   1.110  -0.610  0.00  0.00    +0.000 A 
ATOM     14  C   UNL     1       0.751   1.856  -0.503  0.00  0.00    +0.000 A 
ATOM     15  C   UNL     1       1.976   1.221  -0.415  0.00  0.00    +0.005 A 
ATOM     16  C   UNL     1       2.042  -0.160  -0.432  0.00  0.00    -0.030 A 
ATOM     17  C   UNL     1       0.883  -0.905  -0.539  0.00  0.00    +0.005 A 
ATOM     18  C   UNL     1      -0.342  -0.271  -0.628  0.00  0.00    +0.000 A 
ENDBRANCH  12  16
ENDBRANCH   6  12
ENDBRANCH   1   9
BRANCH   1  19
ATOM     19  C   UNL     1       7.013  -3.799  -2.698  0.00  0.00    +0.253 C 
ATOM     20  O   UNL     1       8.025  -4.204  -2.166  0.00  0.00    -0.272 OA
ATOM     21  N   UNL     1       5.936  -4.603  -2.795  0.00  0.00    -0.233 N 
ATOM     22  H   UNL     1       4.992  -4.211  -3.203  0.00  0.00    +0.173 HD
BRANCH  21  23
ATOM     23  N   UNL     1       6.017  -5.938  -2.378  0.00  0.00    -0.232 N 
ATOM     24  C   UNL     1       4.940  -6.742  -2.475  0.00  0.00    +0.258 C 
ATOM     25  O   UNL     1       3.900  -6.309  -2.925  0.00  0.00    -0.271 OA
ATOM     26  H   UNL     1       6.961  -6.330  -1.970  0.00  0.00    +0.173 HD
BRANCH  24  27
ATOM     27  C   UNL     1       5.028  -8.177  -2.026  0.00  0.00    +0.205 C 
ATOM     28  C   UNL     1       5.270  -8.237  -0.505  0.00  0.00    +0.043 C 
ATOM     29  C   UNL     1       4.069  -9.048   0.039  0.00  0.00    +0.031 C 
ATOM     30  C   UNL     1       3.591  -9.807  -1.225  0.00  0.00    +0.161 C 
ATOM     31  O   UNL     1       3.783  -8.848  -2.287  0.00  0.00    -0.367 OA
ENDBRANCH  24  27
ENDBRANCH  21  23
ENDBRANCH   1  19
TORSDOF 6
