REMARK  Name = ZINC06476244
REMARK  7 active torsions:
REMARK  status: ('A' for Active; 'I' for Inactive)
REMARK    1  A    between atoms: C_9  and  N_11
REMARK    2  A    between atoms: C_12  and  C_14
REMARK    3  A    between atoms: C_17  and  C_19
REMARK    4  A    between atoms: C_19  and  C_21
REMARK    5  A    between atoms: C_19  and  N_48
REMARK    6  A    between atoms: C_21  and  C_22
REMARK    7  A    between atoms: C_25  and  O_28
REMARK                            x       y       z     vdW  Elec       q    Type
REMARK                         _______ _______ _______ _____ _____    ______ ____
ROOT
ATOM      1  C   UNL     1       2.052   0.716  -0.014  0.00  0.00    +0.163 A 
ATOM      2  C   UNL     1       1.283  -0.407  -0.012  0.00  0.00    +0.230 A 
ATOM      3  O   UNL     1       0.002  -0.004   0.002  0.00  0.00    -0.449 OA
ATOM      4  C   UNL     1      -0.016   1.336   0.009  0.00  0.00    +0.182 A 
ATOM      5  N   UNL     1       1.205   1.781   0.000  0.00  0.00    -0.210 NA
ENDROOT
BRANCH   1   7
ATOM      6  N   UNL     1       4.157   1.960  -0.027  0.00  0.00    -0.303 N 
ATOM      7  C   UNL     1       3.525   0.769  -0.028  0.00  0.00    +0.266 C 
ATOM      8  O   UNL     1       4.170  -0.262  -0.041  0.00  0.00    -0.268 OA
ATOM      9  H   UNL     1       3.642   2.782  -0.017  0.00  0.00    +0.150 HD
BRANCH   6  18
ATOM     10  C   UNL     1       7.372   2.390  -3.913  0.00  0.00    +0.000 A 
ATOM     11  C   UNL     1       6.364   1.453  -3.784  0.00  0.00    +0.000 A 
ATOM     12  C   UNL     1       5.746   1.269  -2.563  0.00  0.00    +0.006 A 
ATOM     13  C   UNL     1       6.132   2.021  -1.466  0.00  0.00    -0.024 A 
ATOM     14  C   UNL     1       7.139   2.959  -1.595  0.00  0.00    -0.042 A 
ATOM     15  C   UNL     1       7.758   3.141  -2.820  0.00  0.00    +0.004 A 
ATOM     16  C   UNL     1       7.374   3.644  -0.266  0.00  0.00    +0.037 C 
ATOM     17  C   UNL     1       6.115   3.339   0.574  0.00  0.00    +0.032 C 
ATOM     18  C   UNL     1       5.620   2.012  -0.041  0.00  0.00    +0.104 C 
ENDBRANCH   6  18
ENDBRANCH   1   7
BRANCH   4  19
ATOM     19  C   UNL     1      -1.256   2.192   0.020  0.00  0.00    +0.017 C 
BRANCH  19  22
ATOM     20  H   UNL     1      -2.481   0.719  -0.736  0.00  0.00    -0.089 HD
ATOM     21  H   UNL     1      -3.035   2.263  -1.015  0.00  0.00    -0.089 HD
ATOM     22  N   UNL     1      -2.207   1.670  -0.978  0.00  0.00    +0.386 N 
ATOM     23  H   UNL     1      -1.757   1.664  -1.901  0.00  0.00    -0.089 HD
ENDBRANCH  19  22
BRANCH  19  24
ATOM     24  C   UNL     1      -1.881   2.167   1.417  0.00  0.00    +0.028 C 
BRANCH  24  25
ATOM     25  C   UNL     1      -3.050   3.118   1.461  0.00  0.00    -0.048 A 
ATOM     26  C   UNL     1      -2.853   4.436   1.831  0.00  0.00    +0.007 A 
ATOM     27  C   UNL     1      -3.922   5.311   1.867  0.00  0.00    +0.045 A 
ATOM     28  C   UNL     1      -5.194   4.863   1.544  0.00  0.00    +0.117 A 
ATOM     29  C   UNL     1      -5.390   3.539   1.179  0.00  0.00    +0.045 A 
ATOM     30  C   UNL     1      -4.317   2.669   1.139  0.00  0.00    +0.007 A 
BRANCH  28  31
ATOM     31  O   UNL     1      -6.248   5.720   1.585  0.00  0.00    -0.507 OA
ATOM     32  H   UNL     1      -6.693   5.756   2.443  0.00  0.00    +0.292 HD
ENDBRANCH  28  31
ENDBRANCH  24  25
ENDBRANCH  19  24
ENDBRANCH   4  19
TORSDOF 7
