REMARK  Name = ZINC12892370
REMARK  6 active torsions:
REMARK  status: ('A' for Active; 'I' for Inactive)
REMARK    1  A    between atoms: C_7  and  C_11
REMARK    2  A    between atoms: C_11  and  C_12
REMARK    3  A    between atoms: C_12  and  N_13
REMARK    4  A    between atoms: C_21  and  C_27
REMARK    5  A    between atoms: N_29  and  C_30
REMARK    6  A    between atoms: C_30  and  C_31
REMARK                            x       y       z     vdW  Elec       q    Type
REMARK                         _______ _______ _______ _____ _____    ______ ____
ROOT
ATOM      1  N   UNL     1      -0.284   1.094  -2.571  0.00  0.00    -0.298 N 
ATOM      2  C   UNL     1      -0.540  -0.173  -3.298  0.00  0.00    +0.147 C 
ATOM      3  C   UNL     1       0.156   0.015  -4.610  0.00  0.00    +0.116 C 
ATOM      4  C   UNL     1       0.689  -1.089  -5.451  0.00  0.00    +0.008 C 
ATOM      5  C   UNL     1       0.985  -0.489  -6.611  0.00  0.00    +0.004 C 
ATOM      6  C   UNL     1       0.587   0.985  -6.478  0.00  0.00    +0.155 C 
ATOM      7  O   UNL     1      -0.553   0.867  -5.550  0.00  0.00    -0.359 OA
ATOM      8  C   UNL     1       1.635   1.655  -5.532  0.00  0.00    +0.122 C 
ATOM      9  C   UNL     1       1.375   0.923  -4.204  0.00  0.00    +0.127 C 
ATOM     10  C   UNL     1       0.752   1.770  -3.130  0.00  0.00    +0.223 C 
ATOM     11  O   UNL     1       1.118   2.881  -2.811  0.00  0.00    -0.275 OA
ENDROOT
BRANCH   8  12
ATOM     12  C   UNL     1       1.371   3.132  -5.394  0.00  0.00    +0.220 C 
ATOM     13  O   UNL     1       0.240   3.558  -5.500  0.00  0.00    -0.275 OA
ATOM     14  N   UNL     1       2.390   3.980  -5.154  0.00  0.00    -0.308 N 
ATOM     15  H   UNL     1       3.295   3.639  -5.069  0.00  0.00    +0.149 HD
BRANCH  14  16
ATOM     16  C   UNL     1       2.133   5.416  -5.020  0.00  0.00    +0.178 C 
BRANCH  16  17
ATOM     17  C   UNL     1       3.430   6.136  -4.756  0.00  0.00    +0.122 A 
ATOM     18  C   UNL     1       4.258   6.634  -5.692  0.00  0.00    +0.046 A 
ATOM     19  C   UNL     1       5.344   7.224  -5.006  0.00  0.00    +0.041 A 
ATOM     20  C   UNL     1       5.119   7.044  -3.692  0.00  0.00    +0.195 A 
ATOM     21  O   UNL     1       3.959   6.385  -3.547  0.00  0.00    -0.466 OA
ENDBRANCH  16  17
ENDBRANCH  14  16
ENDBRANCH   8  12
BRANCH   1  22
ATOM     22  C   UNL     1      -1.050   1.556  -1.411  0.00  0.00    +0.112 C 
BRANCH  22  23
ATOM     23  C   UNL     1      -0.402   1.029  -0.130  0.00  0.00    +0.056 C 
BRANCH  23  30
ATOM     24  C   UNL     1      -4.220  -0.601   2.049  0.00  0.00    +0.001 A 
ATOM     25  C   UNL     1      -4.601   0.182   3.131  0.00  0.00    +0.002 A 
ATOM     26  C   UNL     1      -3.879   1.303   3.476  0.00  0.00    +0.026 A 
ATOM     27  C   UNL     1      -2.763   1.664   2.727  0.00  0.00    +0.047 A 
ATOM     28  C   UNL     1      -2.383   0.869   1.630  0.00  0.00    +0.003 A 
ATOM     29  C   UNL     1      -3.125  -0.267   1.303  0.00  0.00    +0.010 A 
ATOM     30  C   UNL     1      -1.190   1.504   1.064  0.00  0.00    -0.021 A 
ATOM     31  C   UNL     1      -0.936   2.593   1.806  0.00  0.00    +0.087 A 
ATOM     32  N   UNL     1      -1.865   2.705   2.804  0.00  0.00    -0.360 N 
ATOM     33  H   UNL     1      -1.888   3.412   3.468  0.00  0.00    +0.165 HD
ENDBRANCH  23  30
ENDBRANCH  22  23
ENDBRANCH   1  22
TORSDOF 6
