REMARK  Name = ZINC03452188
REMARK  5 active torsions:
REMARK  status: ('A' for Active; 'I' for Inactive)
REMARK    1  A    between atoms: N_9  and  C_29
REMARK    2  A    between atoms: C_10  and  S_12
REMARK    3  A    between atoms: S_12  and  C_13
REMARK    4  A    between atoms: C_13  and  C_14
REMARK    5  A    between atoms: N_16  and  C_17
REMARK                            x       y       z     vdW  Elec       q    Type
REMARK                         _______ _______ _______ _____ _____    ______ ____
ROOT
ATOM      1  C   UNL     1      -0.115  -8.479   1.911  0.00  0.00    +0.001 A 
ATOM      2  C   UNL     1       0.775  -7.828   1.066  0.00  0.00    +0.002 A 
ATOM      3  C   UNL     1       0.378  -6.755   0.320  0.00  0.00    +0.028 A 
ATOM      4  C   UNL     1      -0.943  -6.303   0.405  0.00  0.00    +0.079 A 
ATOM      5  C   UNL     1      -1.845  -6.969   1.266  0.00  0.00    +0.065 A 
ATOM      6  C   UNL     1      -1.412  -8.061   2.017  0.00  0.00    +0.015 A 
ATOM      7  C   UNL     1      -3.227  -6.477   1.338  0.00  0.00    +0.267 A 
ATOM      8  O   UNL     1      -4.050  -7.008   2.061  0.00  0.00    -0.267 OA
ATOM      9  N   UNL     1      -3.552  -5.410   0.571  0.00  0.00    -0.255 N 
ATOM     10  C   UNL     1      -2.614  -4.826  -0.236  0.00  0.00    +0.177 A 
ATOM     11  N   UNL     1      -1.378  -5.253  -0.319  0.00  0.00    -0.223 NA
ENDROOT
BRANCH   9  12
ATOM     12  C   UNL     1      -4.857  -4.901   0.603  0.00  0.00    +0.053 A 
ATOM     13  C   UNL     1      -5.206  -3.942   1.546  0.00  0.00    +0.028 A 
ATOM     14  C   UNL     1      -6.491  -3.438   1.573  0.00  0.00    +0.023 A 
ATOM     15  C   UNL     1      -7.434  -3.894   0.669  0.00  0.00    +0.059 A 
ATOM     16  C   UNL     1      -7.090  -4.854  -0.269  0.00  0.00    +0.061 A 
ATOM     17  C   UNL     1      -5.804  -5.357  -0.303  0.00  0.00    +0.047 A 
ATOM     18 CL   UNL     1      -8.276  -5.424  -1.401  0.00  0.00    -0.082 Cl
ATOM     19 CL   UNL     1      -9.051  -3.262   0.710  0.00  0.00    -0.082 Cl
ENDBRANCH   9  12
BRANCH  10  20
ATOM     20  S   UNL     1      -3.092  -3.440  -1.213  0.00  0.00    -0.078 S 
BRANCH  20  21
ATOM     21  C   UNL     1      -1.525  -3.088  -2.047  0.00  0.00    +0.173 C 
BRANCH  21  22
ATOM     22  C   UNL     1      -1.699  -1.904  -2.963  0.00  0.00    +0.227 C 
ATOM     23  O   UNL     1      -2.776  -1.353  -3.045  0.00  0.00    -0.275 OA
ATOM     24  N   UNL     1      -0.657  -1.458  -3.692  0.00  0.00    -0.285 N 
ATOM     25  H   UNL     1       0.184  -1.942  -3.684  0.00  0.00    +0.155 HD
BRANCH  24  26
ATOM     26  C   UNL     1      -0.788  -0.294  -4.462  0.00  0.00    +0.035 A 
ATOM     27  C   UNL     1      -0.106  -0.181  -5.668  0.00  0.00    +0.025 A 
ATOM     28  C   UNL     1      -0.235   0.961  -6.434  0.00  0.00    +0.029 A 
ATOM     29  C   UNL     1      -1.038   2.002  -5.994  0.00  0.00    +0.067 A 
ATOM     30  C   UNL     1      -1.720   1.893  -4.780  0.00  0.00    +0.069 A 
ATOM     31  C   UNL     1      -1.592   0.744  -4.016  0.00  0.00    +0.051 A 
ATOM     32  N   UNL     1      -2.433   3.078  -4.611  0.00  0.00    -0.306 N 
ATOM     33  H   UNL     1      -3.002   3.294  -3.856  0.00  0.00    +0.170 HD
ATOM     34  C   UNL     1      -2.196   3.871  -5.672  0.00  0.00    +0.325 A 
ATOM     35  O   UNL     1      -2.669   4.981  -5.836  0.00  0.00    -0.247 OA
ATOM     36  N   UNL     1      -1.359   3.251  -6.525  0.00  0.00    -0.306 N 
ATOM     37  H   UNL     1      -1.035   3.612  -7.365  0.00  0.00    +0.170 HD
ENDBRANCH  24  26
ENDBRANCH  21  22
ENDBRANCH  20  21
ENDBRANCH  10  20
TORSDOF 5
