REMARK  Name = ZINC60059129
REMARK  6 active torsions:
REMARK  status: ('A' for Active; 'I' for Inactive)
REMARK    1  A    between atoms: C_1  and  C_2
REMARK    2  A    between atoms: N_13  and  C_29
REMARK    3  A    between atoms: C_14  and  S_16
REMARK    4  A    between atoms: S_16  and  C_17
REMARK    5  A    between atoms: C_17  and  C_18
REMARK    6  A    between atoms: C_29  and  C_30
REMARK                            x       y       z     vdW  Elec       q    Type
REMARK                         _______ _______ _______ _____ _____    ______ ____
ROOT
ATOM      1  C   UNL     1      -0.019   1.526   0.010  0.00  0.00    +0.008 C 
ATOM      2  C   UNL     1       0.002  -0.004   0.002  0.00  0.00    -0.009 C 
ATOM      3  C   UNL     1       0.726  -0.501  -1.253  0.00  0.00    +0.008 C 
ATOM      4  C   UNL     1       0.536  -2.011  -1.397  0.00  0.00    +0.037 C 
ATOM      5  C   UNL     1       0.950  -2.688  -0.092  0.00  0.00    -0.023 A 
ATOM      6  C   UNL     1       1.032  -1.976   1.055  0.00  0.00    -0.004 A 
ATOM      7  S   UNL     1       1.538  -3.144   2.292  0.00  0.00    -0.073 S 
ATOM      8  C   UNL     1       1.639  -4.581   1.272  0.00  0.00    +0.117 A 
ATOM      9  C   UNL     1       1.273  -4.103  -0.006  0.00  0.00    +0.076 A 
ATOM     10  C   UNL     1       1.257  -5.051  -1.081  0.00  0.00    +0.263 A 
ATOM     11  O   UNL     1       0.955  -4.735  -2.219  0.00  0.00    -0.267 OA
ATOM     12  N   UNL     1       1.598  -6.320  -0.754  0.00  0.00    -0.283 N 
ATOM     13  C   UNL     1       1.938  -6.694   0.511  0.00  0.00    +0.173 A 
ATOM     14  N   UNL     1       1.963  -5.842   1.527  0.00  0.00    -0.216 NA
ATOM     15  C   UNL     1       0.751  -0.516   1.240  0.00  0.00    +0.046 C 
ENDROOT
BRANCH  13  16
ATOM     16  S   UNL     1       2.361  -8.378   0.809  0.00  0.00    -0.081 S 
BRANCH  16  17
ATOM     17  C   UNL     1       2.736  -8.429   2.583  0.00  0.00    +0.133 C 
BRANCH  17  18
ATOM     18  C   UNL     1       3.118  -9.833   2.975  0.00  0.00    +0.061 A 
ATOM     19  C   UNL     1       3.445 -10.117   4.300  0.00  0.00    +0.096 A 
ATOM     20  C   UNL     1       3.791 -11.397   4.641  0.00  0.00    +0.276 A 
ATOM     21  O   UNL     1       4.112 -11.704   5.919  0.00  0.00    -0.266 OA
ATOM     22  N   UNL     1       3.804 -12.356   3.674  0.00  0.00    -0.158 N 
ATOM     23  C   UNL     1       3.478 -12.038   2.386  0.00  0.00    +0.258 A 
ATOM     24  N   UNL     1       3.136 -10.785   2.066  0.00  0.00    -0.214 NA
ATOM     25  N   UNL     1       3.575 -13.151   1.667  0.00  0.00    -0.176 NA
ATOM     26  C   UNL     1       3.951 -14.160   2.451  0.00  0.00    +0.234 A 
ATOM     27  N   UNL     1       4.103 -13.725   3.684  0.00  0.00    -0.125 NA
ATOM     28  N   UNL     1       4.151 -15.473   2.031  0.00  0.00    -0.326 N 
ATOM     29  H   UNL     1       4.017 -15.711   1.100  0.00  0.00    +0.145 HD
ATOM     30  H   UNL     1       4.426 -16.150   2.670  0.00  0.00    +0.145 HD
ENDBRANCH  17  18
ENDBRANCH  16  17
ENDBRANCH  13  16
BRANCH  12  31
ATOM     31  C   UNL     1       1.601  -7.337  -1.808  0.00  0.00    +0.154 C 
BRANCH  31  32
ATOM     32  C   UNL     1       2.963  -7.391  -2.450  0.00  0.00    -0.013 C 
ATOM     33  C   UNL     1       3.614  -8.527  -2.509  0.00  0.00    +0.005 C 
ENDBRANCH  31  32
ENDBRANCH  12  31
TORSDOF 5
