REMARK  Name = ZINC44662792
REMARK  9 active torsions:
REMARK  status: ('A' for Active; 'I' for Inactive)
REMARK    1  A    between atoms: C_1  and  C_2
REMARK    2  A    between atoms: C_2  and  C_4
REMARK    3  A    between atoms: C_2  and  O_24
REMARK    4  A    between atoms: C_7  and  S_9
REMARK    5  A    between atoms: S_9  and  C_10
REMARK    6  A    between atoms: C_10  and  C_12
REMARK    7  A    between atoms: C_10  and  C_13
REMARK    8  A    between atoms: C_13  and  C_15
REMARK    9  A    between atoms: O_24  and  C_25
REMARK                            x       y       z     vdW  Elec       q    Type
REMARK                         _______ _______ _______ _____ _____    ______ ____
ROOT
ATOM      1  C   UNL     1       0.861  -0.294   1.210  0.00  0.00    +0.258 A 
ATOM      2  N   UNL     1       2.137  -0.066   1.315  0.00  0.00    -0.108 NA
ATOM      3  N   UNL     1       2.545  -0.427   2.480  0.00  0.00    -0.101 NA
ATOM      4  C   UNL     1       1.534  -0.902   3.166  0.00  0.00    +0.278 A 
ATOM      5  O   UNL     1       0.445  -0.822   2.378  0.00  0.00    -0.412 OA
ENDROOT
BRANCH   1   7
ATOM      6  C   UNL     1      -0.253   1.493  -0.100  0.00  0.00    +0.062 C 
ATOM      7  C   UNL     1       0.002  -0.012   0.005  0.00  0.00    +0.257 C 
BRANCH   7   8
ATOM      8  O   UNL     1       0.671  -0.465  -1.174  0.00  0.00    -0.480 OA
BRANCH   8   9
ATOM      9  C   UNL     1      -0.107  -0.775  -2.245  0.00  0.00    +0.122 A 
ATOM     10  C   UNL     1       0.465  -1.331  -3.380  0.00  0.00    +0.048 A 
ATOM     11  C   UNL     1      -0.327  -1.645  -4.468  0.00  0.00    +0.042 A 
ATOM     12  C   UNL     1      -1.690  -1.405  -4.425  0.00  0.00    +0.124 A 
ATOM     13  C   UNL     1      -2.261  -0.850  -3.293  0.00  0.00    +0.042 A 
ATOM     14  C   UNL     1      -1.473  -0.540  -2.201  0.00  0.00    +0.048 A 
ATOM     15  F   UNL     1      -2.462  -1.713  -5.490  0.00  0.00    -0.205 F 
ENDBRANCH   8   9
ENDBRANCH   7   8
ENDBRANCH   1   7
BRANCH   4  16
ATOM     16  S   UNL     1       1.588  -1.522   4.814  0.00  0.00    -0.055 S 
BRANCH  16  17
ATOM     17  C   UNL     1       3.328  -1.341   5.294  0.00  0.00    +0.123 C 
ATOM     18  C   UNL     1       4.195  -2.251   4.423  0.00  0.00    +0.028 C 
BRANCH  17  19
ATOM     19  C   UNL     1       3.492  -1.726   6.742  0.00  0.00    +0.175 C 
ATOM     20  O   UNL     1       2.703  -2.489   7.261  0.00  0.00    -0.291 OA
BRANCH  19  21
ATOM     21  C   UNL     1       4.563  -1.199   7.495  0.00  0.00    +0.024 C 
ATOM     22  C   UNL     1       4.858  -1.454   8.822  0.00  0.00    +0.006 A 
ATOM     23  C   UNL     1       4.241  -2.261   9.807  0.00  0.00    +0.010 A 
ATOM     24  C   UNL     1       4.755  -2.325  11.056  0.00  0.00    +0.001 A 
ATOM     25  C   UNL     1       5.902  -1.610  11.436  0.00  0.00    +0.002 A 
ATOM     26  C   UNL     1       6.565  -0.811  10.573  0.00  0.00    +0.026 A 
ATOM     27  C   UNL     1       6.072  -0.685   9.191  0.00  0.00    +0.043 A 
ATOM     28  N   UNL     1       6.506  -0.001   8.172  0.00  0.00    -0.380 N 
ATOM     29  C   UNL     1       5.635  -0.243   7.018  0.00  0.00    +0.152 C 
ATOM     30  H   UNL     1       7.285   0.576   8.174  0.00  0.00    +0.160 HD
ENDBRANCH  19  21
ENDBRANCH  17  19
ENDBRANCH  16  17
ENDBRANCH   4  16
TORSDOF 7
