REMARK  Name = ZINC14943500
REMARK  11 active torsions:
REMARK  status: ('A' for Active; 'I' for Inactive)
REMARK    1  A    between atoms: C_1  and  C_2
REMARK    2  A    between atoms: C_7  and  C_17
REMARK    3  A    between atoms: C_20  and  O_25
REMARK    4  A    between atoms: C_21  and  O_23
REMARK    5  A    between atoms: O_23  and  C_24
REMARK    6  A    between atoms: O_25  and  C_26
REMARK    7  A    between atoms: C_26  and  C_27
REMARK    8  A    between atoms: C_26  and  C_28
REMARK    9  A    between atoms: C_31  and  C_33
REMARK   10  A    between atoms: C_33  and  O_35
REMARK   11  A    between atoms: O_35  and  C_36
REMARK                            x       y       z     vdW  Elec       q    Type
REMARK                         _______ _______ _______ _____ _____    ______ ____
ROOT
ATOM      1  C   UNL     1       1.089  -6.053  -3.432  0.00  0.00    +0.009 C 
ATOM      2  C   UNL     1       1.710  -4.716  -3.023  0.00  0.00    +0.013 C 
ATOM      3  C   UNL     1       1.367  -4.409  -1.566  0.00  0.00    +0.055 C 
ATOM      4  C   UNL     1       1.996  -3.089  -1.153  0.00  0.00    +0.017 C 
ATOM      5  C   UNL     1       3.168  -2.698  -1.683  0.00  0.00    +0.037 C 
ATOM      6  C   UNL     1       3.903  -1.419  -1.360  0.00  0.00    +0.136 C 
ATOM      7  N   UNL     1       3.390  -0.706  -0.210  0.00  0.00    -0.331 N 
ATOM      8  C   UNL     1       2.107  -0.164  -0.215  0.00  0.00    +0.049 A 
ATOM      9  C   UNL     1       1.901   1.206  -0.183  0.00  0.00    +0.025 A 
ATOM     10  C   UNL     1       0.612   1.702  -0.269  0.00  0.00    +0.002 A 
ATOM     11  C   UNL     1      -0.464   0.841  -0.379  0.00  0.00    +0.002 A 
ATOM     12  C   UNL     1      -0.264  -0.529  -0.383  0.00  0.00    +0.025 A 
ATOM     13  C   UNL     1       1.024  -1.026  -0.293  0.00  0.00    +0.052 A 
ATOM     14  N   UNL     1       1.293  -2.389  -0.227  0.00  0.00    -0.316 N 
ATOM     15  C   UNL     1       3.820  -3.505  -2.645  0.00  0.00    +0.177 C 
ATOM     16  O   UNL     1       4.890  -3.139  -3.089  0.00  0.00    -0.291 OA
ATOM     17  C   UNL     1       3.237  -4.796  -3.136  0.00  0.00    +0.171 C 
ATOM     18  H   UNL     1       3.949  -0.603   0.577  0.00  0.00    +0.147 HD
ATOM     19  H   UNL     1       0.952  -2.877   0.540  0.00  0.00    +0.152 HD
ENDROOT
BRANCH   6  20
ATOM     20  C   UNL     1       3.827  -0.509  -2.559  0.00  0.00    -0.019 A 
ATOM     21  C   UNL     1       2.602  -0.035  -2.989  0.00  0.00    +0.009 A 
ATOM     22  C   UNL     1       2.527   0.804  -4.085  0.00  0.00    +0.050 A 
ATOM     23  C   UNL     1       3.682   1.163  -4.762  0.00  0.00    +0.162 A 
ATOM     24  C   UNL     1       4.915   0.681  -4.333  0.00  0.00    +0.162 A 
ATOM     25  C   UNL     1       4.983  -0.155  -3.231  0.00  0.00    +0.055 A 
BRANCH  24  26
ATOM     26  O   UNL     1       6.050   1.031  -4.994  0.00  0.00    -0.491 OA
ATOM     27  C   UNL     1       7.280   0.499  -4.498  0.00  0.00    +0.277 C 
ENDBRANCH  24  26
BRANCH  23  28
ATOM     28  O   UNL     1       3.610   1.985  -5.843  0.00  0.00    -0.486 OA
BRANCH  28  29
ATOM     29  C   UNL     1       2.330   2.540  -6.152  0.00  0.00    +0.167 C 
ATOM     30  C   UNL     1       2.514   3.848  -6.925  0.00  0.00    +0.051 C 
ATOM     31  C   UNL     1       1.537   1.550  -7.007  0.00  0.00    +0.051 C 
ENDBRANCH  28  29
ENDBRANCH  23  28
ENDBRANCH   6  20
BRANCH  17  32
ATOM     32  C   UNL     1       3.626  -5.012  -4.576  0.00  0.00    +0.318 C 
ATOM     33  O   UNL     1       2.772  -5.111  -5.425  0.00  0.00    -0.250 OA
BRANCH  32  34
ATOM     34  O   UNL     1       4.923  -5.094  -4.915  0.00  0.00    -0.467 OA
ATOM     35  C   UNL     1       5.224  -5.303  -6.320  0.00  0.00    +0.280 C 
ENDBRANCH  32  34
ENDBRANCH  17  32
TORSDOF 6
