REMARK  Name = ZINC14182176
REMARK  7 active torsions:
REMARK  status: ('A' for Active; 'I' for Inactive)
REMARK    1  A    between atoms: C_5  and  C_7
REMARK    2  A    between atoms: C_7  and  O_8
REMARK    3  A    between atoms: O_8  and  C_9
REMARK    4  A    between atoms: C_9  and  C_10
REMARK    5  A    between atoms: C_10  and  C_12
REMARK    6  A    between atoms: C_10  and  O_29
REMARK    7  A    between atoms: C_12  and  N_13
REMARK                            x       y       z     vdW  Elec       q    Type
REMARK                         _______ _______ _______ _____ _____    ______ ____
ROOT
ATOM      1  N   UNL     1       1.356   2.033   0.000  0.00  0.00    -0.221 N 
ATOM      2  C   UNL     1       2.056   2.301  -1.121  0.00  0.00    +0.251 C 
ATOM      3  O   UNL     1       1.684   2.174  -2.268  0.00  0.00    -0.272 OA
ATOM      4  C   UNL     1       3.404   2.795  -0.646  0.00  0.00    +0.144 C 
ATOM      5  C   UNL     1       3.642   4.226  -1.119  0.00  0.00    +0.081 C 
ATOM      6  C   UNL     1       3.988   4.188  -2.614  0.00  0.00    +0.232 C 
ATOM      7  O   UNL     1       5.214   3.473  -2.777  0.00  0.00    -0.492 OA
ATOM      8  C   UNL     1       5.336   2.265  -2.167  0.00  0.00    +0.126 A 
ATOM      9  C   UNL     1       4.496   1.885  -1.133  0.00  0.00    +0.027 A 
ATOM     10  C   UNL     1       4.660   0.647  -0.534  0.00  0.00    +0.010 A 
ATOM     11  C   UNL     1       5.653  -0.211  -0.965  0.00  0.00    +0.001 A 
ATOM     12  C   UNL     1       6.490   0.165  -2.000  0.00  0.00    +0.004 A 
ATOM     13  C   UNL     1       6.333   1.398  -2.599  0.00  0.00    +0.046 A 
ATOM     14  N   UNL     1       3.306   2.746   0.818  0.00  0.00    -0.281 N 
ATOM     15  C   UNL     1       2.070   2.293   1.102  0.00  0.00    +0.310 C 
ATOM     16  O   UNL     1       1.652   2.134   2.232  0.00  0.00    -0.252 OA
ATOM     17  H   UNL     1       3.994   2.995   1.454  0.00  0.00    +0.152 HD
ENDROOT
BRANCH   1  18
ATOM     18  C   UNL     1      -0.019   1.526   0.010  0.00  0.00    +0.151 C 
BRANCH  18  19
ATOM     19  C   UNL     1       0.002  -0.004   0.002  0.00  0.00    +0.158 C 
BRANCH  19  20
ATOM     20  O   UNL     1       0.671  -0.465  -1.174  0.00  0.00    -0.388 OA
ATOM     21  H   UNL     1       0.256  -0.181  -1.999  0.00  0.00    +0.210 HD
ENDBRANCH  19  20
BRANCH  19  22
ATOM     22  C   UNL     1      -1.433  -0.534   0.013  0.00  0.00    +0.193 C 
BRANCH  22  23
ATOM     23  O   UNL     1      -1.415  -1.958   0.122  0.00  0.00    -0.373 OA
BRANCH  23  24
ATOM     24  C   UNL     1      -2.712  -2.557   0.141  0.00  0.00    +0.196 C 
BRANCH  24  29
ATOM     25  C   UNL     1      -1.191  -6.000   0.436  0.00  0.00    +0.000 A 
ATOM     26  C   UNL     1      -2.319  -6.798   0.475  0.00  0.00    +0.001 A 
ATOM     27  C   UNL     1      -3.574  -6.225   0.405  0.00  0.00    +0.020 A 
ATOM     28  C   UNL     1      -3.702  -4.851   0.303  0.00  0.00    +0.046 A 
ATOM     29  C   UNL     1      -2.573  -4.053   0.259  0.00  0.00    -0.004 A 
ATOM     30  C   UNL     1      -1.318  -4.628   0.329  0.00  0.00    +0.007 A 
ATOM     31 CL   UNL     1      -5.279  -4.130   0.222  0.00  0.00    -0.083 Cl
ENDBRANCH  24  29
ENDBRANCH  23  24
ENDBRANCH  22  23
ENDBRANCH  19  22
ENDBRANCH  18  19
ENDBRANCH   1  18
TORSDOF 7
