REMARK  Name = ZINC23404111
REMARK  8 active torsions:
REMARK  status: ('A' for Active; 'I' for Inactive)
REMARK    1  A    between atoms: C_4  and  C_7
REMARK    2  A    between atoms: C_7  and  C_8
REMARK    3  A    between atoms: C_8  and  C_9
REMARK    4  A    between atoms: C_9  and  C_10
REMARK    5  A    between atoms: C_10  and  C_12
REMARK    6  A    between atoms: C_10  and  N_18
REMARK    7  A    between atoms: N_18  and  S_19
REMARK    8  A    between atoms: S_19  and  C_22
REMARK                            x       y       z     vdW  Elec       q    Type
REMARK                         _______ _______ _______ _____ _____    ______ ____
ROOT
ATOM      1  N   UNL     1       6.247  -0.688   3.476  0.00  0.00    -0.183 NA
ATOM      2  H   UNL     1       6.623   0.047   2.968  0.00  0.00    +0.149 HD
ENDROOT
BRANCH   1   3
ATOM      3  S   UNL     1       5.920  -0.498   5.088  0.00  0.00    +0.059 S 
ATOM      4  O   UNL     1       6.320   0.822   5.431  0.00  0.00    -0.153 OA
ATOM      5  O   UNL     1       4.595  -0.970   5.293  0.00  0.00    -0.153 OA
BRANCH   3   6
ATOM      6  C   UNL     1       6.985  -1.592   5.968  0.00  0.00    +0.107 A 
ATOM      7  C   UNL     1       6.572  -2.885   6.241  0.00  0.00    +0.030 A 
ATOM      8  C   UNL     1       7.400  -3.748   6.930  0.00  0.00    +0.030 A 
ATOM      9  C   UNL     1       8.653  -3.320   7.354  0.00  0.00    +0.066 A 
ATOM     10  C   UNL     1       9.069  -2.016   7.079  0.00  0.00    +0.068 A 
ATOM     11  C   UNL     1       8.229  -1.158   6.378  0.00  0.00    +0.056 A 
ATOM     12  N   UNL     1      10.320  -1.569   7.495  0.00  0.00    -0.316 N 
ATOM     13  H   UNL     1      10.599  -0.661   7.299  0.00  0.00    +0.169 HD
ATOM     14  C   UNL     1      11.144  -2.397   8.169  0.00  0.00    +0.314 A 
ATOM     15  O   UNL     1      12.236  -2.011   8.535  0.00  0.00    -0.262 OA
ATOM     16  C   UNL     1      10.700  -3.790   8.463  0.00  0.00    +0.314 A 
ATOM     17  O   UNL     1      11.427  -4.551   9.070  0.00  0.00    -0.262 OA
ATOM     18  N   UNL     1       9.482  -4.196   8.048  0.00  0.00    -0.316 N 
ATOM     19  H   UNL     1       9.184  -5.100   8.235  0.00  0.00    +0.169 HD
ENDBRANCH   3   6
ENDBRANCH   1   3
BRANCH   1  20
ATOM     20  C   UNL     1       5.967  -1.966   2.818  0.00  0.00    +0.106 C 
BRANCH  20  21
ATOM     21  C   UNL     1       7.217  -2.808   2.802  0.00  0.00    -0.029 A 
ATOM     22  C   UNL     1       8.443  -2.219   2.557  0.00  0.00    +0.005 A 
ATOM     23  C   UNL     1       9.590  -2.990   2.542  0.00  0.00    +0.000 A 
ATOM     24  C   UNL     1       9.511  -4.351   2.774  0.00  0.00    +0.000 A 
ATOM     25  C   UNL     1       8.284  -4.939   3.021  0.00  0.00    +0.000 A 
ATOM     26  C   UNL     1       7.138  -4.167   3.039  0.00  0.00    +0.005 A 
ENDBRANCH  20  21
BRANCH  20  27
ATOM     27  C   UNL     1       5.507  -1.710   1.381  0.00  0.00    +0.025 C 
BRANCH  27  28
ATOM     28  C   UNL     1       4.171  -0.963   1.399  0.00  0.00    +0.007 C 
BRANCH  28  29
ATOM     29  C   UNL     1       3.711  -0.707  -0.038  0.00  0.00    +0.035 C 
BRANCH  29  33
ATOM     30  C   UNL     1      -0.017   1.378   0.010  0.00  0.00    +0.000 A 
ATOM     31  C   UNL     1       1.171   2.086   0.002  0.00  0.00    +0.000 A 
ATOM     32  C   UNL     1       2.377   1.411  -0.013  0.00  0.00    +0.003 A 
ATOM     33  C   UNL     1       2.396   0.029  -0.020  0.00  0.00    -0.047 A 
ATOM     34  C   UNL     1       1.208  -0.679  -0.012  0.00  0.00    +0.003 A 
ATOM     35  C   UNL     1       0.002  -0.004   0.002  0.00  0.00    +0.000 A 
ENDBRANCH  29  33
ENDBRANCH  28  29
ENDBRANCH  27  28
ENDBRANCH  20  27
ENDBRANCH   1  20
TORSDOF 8
