REMARK  Name = ZINC54617859
REMARK  9 active torsions:
REMARK  status: ('A' for Active; 'I' for Inactive)
REMARK    1  A    between atoms: C_1  and  C_2
REMARK    2  A    between atoms: C_2  and  O_3
REMARK    3  A    between atoms: O_3  and  C_4
REMARK    4  A    between atoms: C_9  and  N_10
REMARK    5  A    between atoms: C_11  and  C_13
REMARK    6  A    between atoms: C_14  and  C_39
REMARK    7  A    between atoms: C_21  and  C_23
REMARK    8  A    between atoms: N_25  and  C_32
REMARK    9  A    between atoms: C_32  and  C_33
REMARK                            x       y       z     vdW  Elec       q    Type
REMARK                         _______ _______ _______ _____ _____    ______ ____
ROOT
ATOM      1  C   UNL     1       2.898  -1.004  -5.433  0.00  0.00    +0.060 C 
ATOM      2  C   UNL     1       3.489  -1.342  -6.588  0.00  0.00    +0.018 C 
ATOM      3  N   UNL     1       4.031  -0.407  -7.436  0.00  0.00    -0.286 N 
ATOM      4  C   UNL     1       3.727   0.924  -7.196  0.00  0.00    +0.240 A 
ATOM      5  N   UNL     1       3.907   1.987  -7.926  0.00  0.00    -0.092 NA
ATOM      6  N   UNL     1       3.467   3.032  -7.312  0.00  0.00    -0.021 NA
ATOM      7  N   UNL     1       2.983   2.706  -6.158  0.00  0.00    -0.042 NA
ATOM      8  N   UNL     1       3.137   1.326  -6.039  0.00  0.00    -0.201 N 
ATOM      9  C   UNL     1       2.777   0.420  -4.957  0.00  0.00    +0.181 C 
ATOM     10  C   UNL     1       3.563  -2.799  -6.968  0.00  0.00    +0.061 C 
ATOM     11  H   UNL     1       4.604  -0.668  -8.175  0.00  0.00    +0.155 HD
ENDROOT
BRANCH   9  12
ATOM     12  C   UNL     1       3.708   0.641  -3.792  0.00  0.00    +0.007 A 
ATOM     13  C   UNL     1       5.049   0.596  -3.822  0.00  0.00    +0.093 A 
ATOM     14  N   UNL     1       5.553   0.848  -2.575  0.00  0.00    -0.342 N 
ATOM     15  C   UNL     1       4.521   1.066  -1.689  0.00  0.00    +0.050 A 
ATOM     16  C   UNL     1       3.321   0.953  -2.414  0.00  0.00    +0.005 A 
ATOM     17  C   UNL     1       2.097   1.133  -1.767  0.00  0.00    +0.010 A 
ATOM     18  C   UNL     1       2.072   1.422  -0.432  0.00  0.00    +0.001 A 
ATOM     19  C   UNL     1       3.253   1.540   0.286  0.00  0.00    +0.002 A 
ATOM     20  C   UNL     1       4.472   1.356  -0.330  0.00  0.00    +0.026 A 
BRANCH  14  21
ATOM     21  C   UNL     1       6.977   0.880  -2.233  0.00  0.00    +0.157 C 
BRANCH  21  22
ATOM     22  C   UNL     1       7.397  -0.467  -1.704  0.00  0.00    -0.028 A 
ATOM     23  C   UNL     1       7.309  -0.736  -0.351  0.00  0.00    +0.005 A 
ATOM     24  C   UNL     1       7.695  -1.972   0.134  0.00  0.00    +0.000 A 
ATOM     25  C   UNL     1       8.167  -2.939  -0.733  0.00  0.00    +0.000 A 
ATOM     26  C   UNL     1       8.254  -2.670  -2.087  0.00  0.00    +0.000 A 
ATOM     27  C   UNL     1       7.864  -1.436  -2.573  0.00  0.00    +0.005 A 
ENDBRANCH  21  22
ENDBRANCH  14  21
ENDBRANCH   9  12
BRANCH   1  29
ATOM     28  N   UNL     1       1.174  -2.591  -4.949  0.00  0.00    -0.279 N 
ATOM     29  C   UNL     1       2.357  -2.033  -4.626  0.00  0.00    +0.248 C 
ATOM     30  O   UNL     1       2.961  -2.414  -3.639  0.00  0.00    -0.270 OA
ATOM     31  H   UNL     1       0.711  -2.313  -5.755  0.00  0.00    +0.155 HD
BRANCH  28  37
ATOM     32  C   UNL     1      -0.768  -3.751  -4.088  0.00  0.00    +0.142 A 
ATOM     33  C   UNL     1      -1.317  -4.726  -3.271  0.00  0.00    +0.047 A 
ATOM     34  C   UNL     1      -0.496  -5.514  -2.487  0.00  0.00    +0.004 A 
ATOM     35  C   UNL     1       0.875  -5.333  -2.515  0.00  0.00    +0.002 A 
ATOM     36  C   UNL     1       1.430  -4.362  -3.327  0.00  0.00    +0.027 A 
ATOM     37  C   UNL     1       0.613  -3.571  -4.121  0.00  0.00    +0.076 A 
BRANCH  32  38
ATOM     38  O   UNL     1      -1.575  -2.974  -4.859  0.00  0.00    -0.490 OA
BRANCH  38  40
ATOM     39  C   UNL     1      -3.724  -2.218  -5.668  0.00  0.00    +0.048 C 
ATOM     40  C   UNL     1      -2.985  -3.140  -4.696  0.00  0.00    +0.226 C 
ENDBRANCH  38  40
ENDBRANCH  32  38
ENDBRANCH  28  37
ENDBRANCH   1  29
TORSDOF 7
