REMARK  Name = ZINC63140499
REMARK  5 active torsions:
REMARK  status: ('A' for Active; 'I' for Inactive)
REMARK    1  A    between atoms: C_1  and  O_2
REMARK    2  A    between atoms: O_2  and  C_3
REMARK    3  A    between atoms: C_6  and  C_9
REMARK    4  A    between atoms: N_28  and  C_31
REMARK    5  A    between atoms: C_31  and  C_32
REMARK                            x       y       z     vdW  Elec       q    Type
REMARK                         _______ _______ _______ _____ _____    ______ ____
ROOT
ATOM      1  C   UNL     1       2.579  -2.514   4.380  0.00  0.00    +0.133 C 
ATOM      2  C   UNL     1       3.939  -3.059   3.938  0.00  0.00    +0.131 C 
ATOM      3  C   UNL     1       3.660  -4.226   2.998  0.00  0.00    -0.034 C 
ATOM      4  C   UNL     1       4.296  -3.955   1.865  0.00  0.00    -0.001 A 
ATOM      5  C   UNL     1       4.459  -4.730   0.625  0.00  0.00    +0.010 A 
ATOM      6  C   UNL     1       5.180  -4.136  -0.363  0.00  0.00    +0.001 A 
ATOM      7  C   UNL     1       5.746  -2.863  -0.242  0.00  0.00    +0.002 A 
ATOM      8  C   UNL     1       5.652  -2.083   0.864  0.00  0.00    +0.026 A 
ATOM      9  C   UNL     1       4.922  -2.602   1.972  0.00  0.00    +0.043 A 
ATOM     10  N   UNL     1       4.697  -2.076   3.162  0.00  0.00    -0.375 N 
ATOM     11  C   UNL     1       2.747  -5.367   3.376  0.00  0.00    +0.065 C 
ATOM     12  C   UNL     1       1.446  -4.733   3.902  0.00  0.00    +0.167 C 
ATOM     13  N   UNL     1       1.761  -3.659   4.839  0.00  0.00    -0.279 N 
ATOM     14  C   UNL     1       1.343  -3.661   6.111  0.00  0.00    +0.234 C 
ATOM     15  O   UNL     1       1.676  -2.731   6.814  0.00  0.00    -0.274 OA
ATOM     16  C   UNL     1       0.496  -4.726   6.724  0.00  0.00    +0.204 C 
ATOM     17  N   UNL     1       0.161  -5.775   5.776  0.00  0.00    -0.287 N 
ATOM     18  C   UNL     1       0.582  -5.789   4.509  0.00  0.00    +0.237 C 
ATOM     19  O   UNL     1       0.241  -6.717   3.806  0.00  0.00    -0.274 OA
ATOM     20  H   UNL     1       4.974  -1.200   3.472  0.00  0.00    +0.160 HD
ENDROOT
BRANCH   1  24
ATOM     21  C   UNL     1       0.652  -0.584   1.089  0.00  0.00    +0.120 A 
ATOM     22  C   UNL     1       0.925   0.127   2.249  0.00  0.00    +0.046 A 
ATOM     23  C   UNL     1       1.548  -0.499   3.312  0.00  0.00    +0.009 A 
ATOM     24  C   UNL     1       1.899  -1.833   3.220  0.00  0.00    -0.025 A 
ATOM     25  C   UNL     1       1.629  -2.544   2.065  0.00  0.00    +0.009 A 
ATOM     26  C   UNL     1       1.001  -1.924   1.002  0.00  0.00    +0.046 A 
BRANCH  21  28
ATOM     27  C   UNL     1      -0.290   1.410   0.203  0.00  0.00    +0.277 C 
ATOM     28  O   UNL     1       0.040   0.029   0.043  0.00  0.00    -0.495 OA
ENDBRANCH  21  28
ENDBRANCH   1  24
BRANCH  17  29
ATOM     29  C   UNL     1      -0.685  -6.879   6.236  0.00  0.00    +0.145 C 
BRANCH  29  30
ATOM     30  C   UNL     1       0.174  -7.932   6.887  0.00  0.00    -0.012 A 
ATOM     31  C   UNL     1       0.608  -9.021   6.154  0.00  0.00    +0.008 A 
ATOM     32  C   UNL     1       1.396  -9.987   6.750  0.00  0.00    +0.020 A 
ATOM     33  C   UNL     1       1.752  -9.865   8.082  0.00  0.00    +0.042 A 
ATOM     34  C   UNL     1       1.318  -8.776   8.816  0.00  0.00    +0.040 A 
ATOM     35  C   UNL     1       0.533  -7.806   8.217  0.00  0.00    +0.047 A 
ATOM     36 CL   UNL     1      -0.006  -6.436   9.136  0.00  0.00    -0.083 Cl
ATOM     37 CL   UNL     1       2.741 -11.079   8.831  0.00  0.00    -0.083 Cl
ENDBRANCH  29  30
ENDBRANCH  17  29
TORSDOF 4
