REMARK  Name = ZINC35519294
REMARK  7 active torsions:
REMARK  status: ('A' for Active; 'I' for Inactive)
REMARK    1  A    between atoms: C_1  and  C_2
REMARK    2  A    between atoms: C_8  and  C_12
REMARK    3  A    between atoms: N_14  and  C_15
REMARK    4  A    between atoms: N_14  and  C_22
REMARK    5  A    between atoms: C_15  and  C_16
REMARK    6  A    between atoms: N_20  and  C_21
REMARK    7  A    between atoms: C_25  and  C_28
REMARK                            x       y       z     vdW  Elec       q    Type
REMARK                         _______ _______ _______ _____ _____    ______ ____
ROOT
ATOM      1  C   UNL     1      -4.665  -7.091   1.365  0.00  0.00    +0.251 C 
ATOM      2  O   UNL     1      -5.340  -8.069   1.620  0.00  0.00    -0.270 OA
ATOM      3  N   UNL     1      -3.962  -7.038   0.216  0.00  0.00    -0.260 N 
ENDROOT
BRANCH   1  11
ATOM      4  C   UNL     1      -6.833  -1.794   6.040  0.00  0.00    +0.086 C 
ATOM      5  C   UNL     1      -6.109  -2.768   5.147  0.00  0.00    +0.105 A 
ATOM      6  N   UNL     1      -4.760  -2.812   4.974  0.00  0.00    -0.342 N 
ATOM      7  H   UNL     1      -4.108  -2.232   5.397  0.00  0.00    +0.167 HD
ATOM      8  C   UNL     1      -4.492  -3.834   4.089  0.00  0.00    +0.066 A 
ATOM      9  C   UNL     1      -3.324  -4.349   3.537  0.00  0.00    +0.028 A 
ATOM     10  C   UNL     1      -3.382  -5.395   2.663  0.00  0.00    +0.015 A 
ATOM     11  C   UNL     1      -4.616  -5.960   2.312  0.00  0.00    +0.039 A 
ATOM     12  C   UNL     1      -5.795  -5.457   2.854  0.00  0.00    +0.043 A 
ATOM     13  C   UNL     1      -5.739  -4.389   3.748  0.00  0.00    +0.090 A 
ATOM     14  N   UNL     1      -6.683  -3.693   4.435  0.00  0.00    -0.233 NA
ENDBRANCH   1  11
BRANCH   3  15
ATOM     15  C   UNL     1      -4.103  -8.051  -0.736  0.00  0.00    +0.037 A 
ATOM     16  C   UNL     1      -4.386  -7.726  -2.058  0.00  0.00    +0.024 A 
ATOM     17  C   UNL     1      -4.525  -8.724  -2.999  0.00  0.00    +0.010 A 
ATOM     18  C   UNL     1      -4.382 -10.059  -2.625  0.00  0.00    -0.018 A 
ATOM     19  C   UNL     1      -4.098 -10.383  -1.299  0.00  0.00    +0.010 A 
ATOM     20  C   UNL     1      -3.954  -9.382  -0.362  0.00  0.00    +0.024 A 
BRANCH  18  21
ATOM     21  C   UNL     1      -4.532 -11.134  -3.636  0.00  0.00    -0.018 A 
ATOM     22  C   UNL     1      -4.811 -10.812  -4.963  0.00  0.00    +0.008 A 
ATOM     23  C   UNL     1      -4.949 -11.816  -5.899  0.00  0.00    +0.001 A 
ATOM     24  C   UNL     1      -4.813 -13.140  -5.523  0.00  0.00    +0.000 A 
ATOM     25  C   UNL     1      -4.537 -13.466  -4.207  0.00  0.00    +0.001 A 
ATOM     26  C   UNL     1      -4.389 -12.469  -3.264  0.00  0.00    +0.008 A 
ENDBRANCH  18  21
ENDBRANCH   3  15
BRANCH   3  27
ATOM     27  C   UNL     1      -3.049  -5.920  -0.034  0.00  0.00    +0.186 C 
BRANCH  27  28
ATOM     28  C   UNL     1      -1.756  -6.444  -0.603  0.00  0.00    +0.105 A 
ATOM     29  N   UNL     1      -1.135  -5.966  -1.647  0.00  0.00    -0.348 N 
ATOM     30  C   UNL     1      -0.020  -6.679  -1.863  0.00  0.00    +0.101 A 
ATOM     31  C   UNL     1       0.054  -7.635  -0.917  0.00  0.00    +0.104 A 
ATOM     32  N   UNL     1      -1.044  -7.483  -0.115  0.00  0.00    -0.338 N 
ATOM     33  C   UNL     1      -1.386  -8.297   1.055  0.00  0.00    +0.150 C 
ATOM     34  H   UNL     1      -1.434  -5.215  -2.182  0.00  0.00    +0.166 HD
ENDBRANCH  27  28
ENDBRANCH   3  27
TORSDOF 5
