REMARK  Name = ZINC64674487
REMARK  9 active torsions:
REMARK  status: ('A' for Active; 'I' for Inactive)
REMARK    1  A    between atoms: C_1  and  C_2
REMARK    2  A    between atoms: C_2  and  O_3
REMARK    3  A    between atoms: O_3  and  C_4
REMARK    4  A    between atoms: C_4  and  C_6
REMARK    5  A    between atoms: C_7  and  C_19
REMARK    6  A    between atoms: C_12  and  C_14
REMARK    7  A    between atoms: C_19  and  N_20
REMARK    8  A    between atoms: C_23  and  C_28
REMARK    9  A    between atoms: C_28  and  C_29
REMARK                            x       y       z     vdW  Elec       q    Type
REMARK                         _______ _______ _______ _____ _____    ______ ____
ROOT
ATOM      1  C   UNL     1       1.153  -4.593  -1.536  0.00  0.00    +0.169 C 
ENDROOT
BRANCH   1   3
ATOM      2  C   UNL     1       1.342  -2.337  -2.523  0.00  0.00    +0.080 C 
ATOM      3  C   UNL     1       1.628  -3.654  -2.615  0.00  0.00    +0.042 C 
ATOM      4  N   UNL     1       2.340  -4.149  -3.670  0.00  0.00    -0.271 N 
ATOM      5  C   UNL     1       2.802  -3.393  -4.673  0.00  0.00    +0.304 C 
ATOM      6  O   UNL     1       3.427  -3.924  -5.570  0.00  0.00    -0.252 OA
ATOM      7  N   UNL     1       2.598  -2.062  -4.722  0.00  0.00    -0.288 N 
ATOM      8  C   UNL     1       1.834  -1.430  -3.632  0.00  0.00    +0.150 C 
ATOM      9  H   UNL     1       2.521  -5.102  -3.694  0.00  0.00    +0.156 HD
ATOM     10  H   UNL     1       2.942  -1.532  -5.458  0.00  0.00    +0.151 HD
BRANCH   8  11
ATOM     11  C   UNL     1       0.636  -0.743  -4.236  0.00  0.00    +0.015 A 
ATOM     12  C   UNL     1       0.172   0.512  -4.019  0.00  0.00    +0.013 A 
ATOM     13  C   UNL     1      -0.959   0.934  -4.692  0.00  0.00    +0.008 A 
ATOM     14  C   UNL     1      -1.570   0.082  -5.550  0.00  0.00    +0.045 A 
ATOM     15  S   UNL     1      -0.536  -1.369  -5.428  0.00  0.00    -0.099 S 
ENDBRANCH   8  11
BRANCH   2  16
ATOM     16  C   UNL     1       0.604  -1.824  -1.431  0.00  0.00    +0.339 C 
ATOM     17  O   UNL     1      -0.582  -1.584  -1.557  0.00  0.00    -0.245 OA
BRANCH  16  18
ATOM     18  O   UNL     1       1.216  -1.600  -0.249  0.00  0.00    -0.462 OA
BRANCH  18  20
ATOM     19  C   UNL     1       1.270  -0.894   2.062  0.00  0.00    +0.048 C 
ATOM     20  C   UNL     1       0.409  -1.081   0.810  0.00  0.00    +0.229 C 
ENDBRANCH  18  20
ENDBRANCH  16  18
ENDBRANCH   2  16
ENDBRANCH   1   3
BRANCH   1  21
ATOM     21  N   UNL     1       0.185  -5.537  -2.100  0.00  0.00    -0.219 N 
ATOM     22  C   UNL     1      -1.144  -5.319  -2.150  0.00  0.00    +0.244 C 
ATOM     23  O   UNL     1      -1.742  -4.342  -1.751  0.00  0.00    -0.273 OA
ATOM     24  C   UNL     1      -1.737  -6.548  -2.809  0.00  0.00    +0.165 C 
ATOM     25  N   UNL     1      -0.563  -7.396  -3.080  0.00  0.00    -0.287 N 
ATOM     26  C   UNL     1       0.511  -6.718  -2.635  0.00  0.00    +0.309 C 
ATOM     27  O   UNL     1       1.651  -7.135  -2.709  0.00  0.00    -0.252 OA
ATOM     28  H   UNL     1      -0.564  -8.270  -3.499  0.00  0.00    +0.151 HD
BRANCH  24  29
ATOM     29  C   UNL     1      -2.445  -6.172  -4.112  0.00  0.00    +0.065 C 
BRANCH  29  30
ATOM     30  C   UNL     1      -3.128  -7.389  -4.682  0.00  0.00    -0.039 C 
ATOM     31  C   UNL     1      -4.420  -7.750  -4.512  0.00  0.00    -0.001 A 
ATOM     32  C   UNL     1      -5.534  -7.142  -3.774  0.00  0.00    +0.010 A 
ATOM     33  C   UNL     1      -6.741  -7.752  -3.789  0.00  0.00    +0.001 A 
ATOM     34  C   UNL     1      -6.955  -8.946  -4.491  0.00  0.00    +0.002 A 
ATOM     35  C   UNL     1      -5.981  -9.564  -5.192  0.00  0.00    +0.026 A 
ATOM     36  C   UNL     1      -4.672  -9.011  -5.245  0.00  0.00    +0.043 A 
ATOM     37  N   UNL     1      -3.578  -9.414  -5.845  0.00  0.00    -0.380 N 
ATOM     38  C   UNL     1      -2.509  -8.449  -5.564  0.00  0.00    +0.144 C 
ATOM     39  H   UNL     1      -3.491 -10.213  -6.387  0.00  0.00    +0.160 HD
ENDBRANCH  29  30
ENDBRANCH  24  29
ENDBRANCH   1  21
TORSDOF 8
