REMARK  Name = ZINC38990111
REMARK  8 active torsions:
REMARK  status: ('A' for Active; 'I' for Inactive)
REMARK    1  A    between atoms: C_1  and  C_2
REMARK    2  A    between atoms: C_8  and  C_14
REMARK    3  A    between atoms: C_14  and  N_15
REMARK    4  A    between atoms: N_15  and  C_16
REMARK    5  A    between atoms: N_15  and  S_24
REMARK    6  A    between atoms: C_19  and  O_22
REMARK    7  A    between atoms: O_22  and  C_23
REMARK    8  A    between atoms: S_24  and  C_27
REMARK                            x       y       z     vdW  Elec       q    Type
REMARK                         _______ _______ _______ _____ _____    ______ ____
ROOT
ATOM      1  C   UNL     1      -1.048  -2.295   4.342  0.00  0.00    +0.148 C 
ENDROOT
BRANCH   1   9
ATOM      2  C   UNL     1      -1.033   2.978   1.200  0.00  0.00    +0.045 C 
ATOM      3  C   UNL     1      -0.673   1.573   0.792  0.00  0.00    -0.029 A 
ATOM      4  C   UNL     1      -0.568   1.259  -0.526  0.00  0.00    +0.005 A 
ATOM      5  C   UNL     1      -0.237  -0.021  -0.971  0.00  0.00    +0.001 A 
ATOM      6  C   UNL     1      -0.001  -1.034  -0.098  0.00  0.00    +0.009 A 
ATOM      7  C   UNL     1      -0.097  -0.766   1.337  0.00  0.00    -0.007 A 
ATOM      8  C   UNL     1       0.132  -1.752   2.250  0.00  0.00    -0.003 C 
ATOM      9  C   UNL     1       0.010  -1.384   3.716  0.00  0.00    +0.118 C 
ATOM     10  C   UNL     1      -0.355   0.046   4.046  0.00  0.00    +0.226 C 
ATOM     11  O   UNL     1      -0.466   0.396   5.206  0.00  0.00    -0.275 OA
ATOM     12  N   UNL     1      -0.553   0.914   3.069  0.00  0.00    -0.284 N 
ATOM     13  C   UNL     1      -0.442   0.597   1.779  0.00  0.00    +0.043 A 
ATOM     14  H   UNL     1      -0.787   1.827   3.301  0.00  0.00    +0.155 HD
ENDBRANCH   1   9
BRANCH   1  15
ATOM     15  N   UNL     1      -1.090  -2.071   5.790  0.00  0.00    -0.207 N 
BRANCH  15  16
ATOM     16  C   UNL     1       0.004  -2.430   6.585  0.00  0.00    +0.051 A 
ATOM     17  C   UNL     1       0.666  -1.465   7.332  0.00  0.00    +0.028 A 
ATOM     18  C   UNL     1       1.745  -1.821   8.117  0.00  0.00    +0.047 A 
ATOM     19  C   UNL     1       2.167  -3.141   8.160  0.00  0.00    +0.120 A 
ATOM     20  C   UNL     1       1.506  -4.106   7.414  0.00  0.00    +0.047 A 
ATOM     21  C   UNL     1       0.423  -3.753   6.633  0.00  0.00    +0.028 A 
BRANCH  19  22
ATOM     22  O   UNL     1       3.230  -3.491   8.934  0.00  0.00    -0.495 OA
ATOM     23  C   UNL     1       3.610  -4.868   8.930  0.00  0.00    +0.277 C 
ENDBRANCH  19  22
ENDBRANCH  15  16
BRANCH  15  24
ATOM     24  S   UNL     1      -2.432  -1.393   6.484  0.00  0.00    +0.043 S 
ATOM     25  O   UNL     1      -1.938  -0.689   7.615  0.00  0.00    -0.155 OA
ATOM     26  O   UNL     1      -3.078  -0.701   5.424  0.00  0.00    -0.155 OA
ATOM     27  C   UNL     1      -3.443  -2.802   7.017  0.00  0.00    +0.218 C 
ENDBRANCH  15  24
ENDBRANCH   1  15
TORSDOF 5
