REMARK  Name = ZINC16291550
REMARK  7 active torsions:
REMARK  status: ('A' for Active; 'I' for Inactive)
REMARK    1  A    between atoms: C_1  and  C_2
REMARK    2  A    between atoms: C_5  and  C_8
REMARK    3  A    between atoms: N_9  and  N_10
REMARK    4  A    between atoms: N_12  and  N_26
REMARK    5  A    between atoms: N_16  and  N_17
REMARK    6  A    between atoms: C_18  and  C_19
REMARK    7  A    between atoms: C_22  and  C_25
REMARK                            x       y       z     vdW  Elec       q    Type
REMARK                         _______ _______ _______ _____ _____    ______ ____
ROOT
ATOM      1  N   UNL     1       0.092  -6.304   1.092  0.00  0.00    -0.204 N 
ATOM      2  C   UNL     1       0.107  -7.004   2.289  0.00  0.00    +0.255 A 
ATOM      3  N   UNL     1       0.131  -8.366   2.435  0.00  0.00    -0.202 N 
ATOM      4  C   UNL     1       0.139  -8.592   3.787  0.00  0.00    +0.255 A 
ATOM      5  N   UNL     1       0.119  -7.421   4.375  0.00  0.00    -0.108 NA
ATOM      6  N   UNL     1       0.107  -6.486   3.493  0.00  0.00    -0.108 NA
ATOM      7  N   UNL     1       0.161  -9.829   4.414  0.00  0.00    -0.204 N 
ATOM      8  H   UNL     1       0.094  -6.784   0.249  0.00  0.00    +0.177 HD
ATOM      9  H   UNL     1       0.174 -10.641   3.885  0.00  0.00    +0.177 HD
ENDROOT
BRANCH   3  10
ATOM     10  N   UNL     1       0.145  -9.303   1.441  0.00  0.00    -0.293 N 
ATOM     11  H   UNL     1       1.091  -9.534   1.175  0.00  0.00    +0.163 HD
ATOM     12  H   UNL     1      -0.366 -10.128   1.715  0.00  0.00    +0.163 HD
ENDBRANCH   3  10
BRANCH   1  14
ATOM     13  C   UNL     1       0.059  -4.248  -0.021  0.00  0.00    +0.138 C 
ATOM     14  N   UNL     1       0.073  -4.903   1.100  0.00  0.00    -0.188 NA
BRANCH  13  19
ATOM     15  C   UNL     1      -0.018   1.503   0.010  0.00  0.00    +0.044 C 
ATOM     16  C   UNL     1       0.002  -0.004   0.002  0.00  0.00    -0.050 A 
ATOM     17  C   UNL     1       0.006  -0.686  -1.202  0.00  0.00    +0.004 A 
ATOM     18  C   UNL     1       0.024  -2.065  -1.217  0.00  0.00    +0.010 A 
ATOM     19  C   UNL     1       0.040  -2.773  -0.013  0.00  0.00    -0.005 A 
ATOM     20  C   UNL     1       0.036  -2.078   1.199  0.00  0.00    +0.010 A 
ATOM     21  C   UNL     1       0.023  -0.699   1.198  0.00  0.00    +0.004 A 
ENDBRANCH  13  19
ENDBRANCH   1  14
BRANCH   7  22
ATOM     22  N   UNL     1       0.166  -9.904   5.813  0.00  0.00    -0.188 NA
ATOM     23  C   UNL     1       0.187 -11.062   6.401  0.00  0.00    +0.138 C 
BRANCH  23  24
ATOM     24  C   UNL     1       0.192 -11.141   7.873  0.00  0.00    -0.005 A 
ATOM     25  C   UNL     1       0.168  -9.973   8.639  0.00  0.00    +0.010 A 
ATOM     26  C   UNL     1       0.173 -10.055  10.016  0.00  0.00    +0.004 A 
ATOM     27  C   UNL     1       0.201 -11.290  10.639  0.00  0.00    -0.050 A 
ATOM     28  C   UNL     1       0.226 -12.452   9.886  0.00  0.00    +0.004 A 
ATOM     29  C   UNL     1       0.215 -12.385   8.509  0.00  0.00    +0.010 A 
ATOM     30  C   UNL     1       0.206 -11.371  12.143  0.00  0.00    +0.044 C 
ENDBRANCH  23  24
ENDBRANCH   7  22
TORSDOF 5
