REMARK  Name = ZINC16882903
REMARK  6 active torsions:
REMARK  status: ('A' for Active; 'I' for Inactive)
REMARK    1  A    between atoms: C_1  and  C_2
REMARK    2  A    between atoms: C_4  and  O_24
REMARK    3  A    between atoms: C_5  and  C_17
REMARK    4  A    between atoms: N_8  and  C_9
REMARK    5  A    between atoms: C_9  and  C_10
REMARK    6  A    between atoms: C_17  and  C_18
REMARK                            x       y       z     vdW  Elec       q    Type
REMARK                         _______ _______ _______ _____ _____    ______ ____
ROOT
ATOM      1  C   UNL     1      -4.304  -0.010   5.243  0.00  0.00    +0.086 C 
ATOM      2  C   UNL     1      -3.720   0.279   3.884  0.00  0.00    +0.113 A 
ATOM      3  N   UNL     1      -4.135   1.325   3.223  0.00  0.00    -0.200 NA
ATOM      4  C   UNL     1      -3.646   1.623   2.011  0.00  0.00    +0.223 A 
ATOM      5  C   UNL     1      -2.683   0.811   1.445  0.00  0.00    +0.083 A 
ATOM      6  C   UNL     1      -2.250  -0.314   2.165  0.00  0.00    +0.261 A 
ATOM      7  O   UNL     1      -1.405  -1.062   1.701  0.00  0.00    -0.267 OA
ATOM      8  N   UNL     1      -2.783  -0.549   3.382  0.00  0.00    -0.292 N 
ENDROOT
BRANCH   4   9
ATOM      9  O   UNL     1      -4.093   2.714   1.346  0.00  0.00    -0.492 OA
ATOM     10  H   UNL     1      -4.766   3.218   1.824  0.00  0.00    +0.294 HD
ENDBRANCH   4   9
BRANCH   8  11
ATOM     11  C   UNL     1      -2.346  -1.713   4.158  0.00  0.00    +0.163 C 
BRANCH  11  12
ATOM     12  C   UNL     1      -2.599  -2.969   3.365  0.00  0.00    -0.009 A 
ATOM     13  C   UNL     1      -1.541  -3.654   2.799  0.00  0.00    +0.007 A 
ATOM     14  C   UNL     1      -1.772  -4.806   2.071  0.00  0.00    +0.000 A 
ATOM     15  C   UNL     1      -3.063  -5.274   1.909  0.00  0.00    +0.001 A 
ATOM     16  C   UNL     1      -4.123  -4.590   2.475  0.00  0.00    +0.020 A 
ATOM     17  C   UNL     1      -3.891  -3.440   3.208  0.00  0.00    +0.046 A 
ATOM     18 CL   UNL     1      -5.220  -2.584   3.925  0.00  0.00    -0.083 Cl
ENDBRANCH  11  12
ENDBRANCH   8  11
BRANCH   5  19
ATOM     19  C   UNL     1      -2.114   1.121   0.085  0.00  0.00    +0.081 C 
BRANCH  19  20
ATOM     20  C   UNL     1      -0.838   1.907   0.241  0.00  0.00    -0.043 A 
ATOM     21  C   UNL     1       0.372   1.247   0.341  0.00  0.00    +0.004 A 
ATOM     22  C   UNL     1       1.544   1.968   0.478  0.00  0.00    +0.000 A 
ATOM     23  C   UNL     1       1.504   3.349   0.521  0.00  0.00    +0.000 A 
ATOM     24  C   UNL     1       0.293   4.009   0.426  0.00  0.00    +0.000 A 
ATOM     25  C   UNL     1      -0.878   3.288   0.288  0.00  0.00    +0.004 A 
ENDBRANCH  19  20
ENDBRANCH   5  19
TORSDOF 5
