REMARK  Name = ZINC36586880
REMARK  12 active torsions:
REMARK  status: ('A' for Active; 'I' for Inactive)
REMARK    1  A    between atoms: C_1  and  C_2
REMARK    2  A    between atoms: C_2  and  C_3
REMARK    3  A    between atoms: C_2  and  C_4
REMARK    4  A    between atoms: C_2  and  N_5
REMARK    5  A    between atoms: N_5  and  C_6
REMARK    6  A    between atoms: C_6  and  C_8
REMARK    7  A    between atoms: C_6  and  C_15
REMARK    8  A    between atoms: C_11  and  O_14
REMARK    9  A    between atoms: N_17  and  C_18
REMARK   10  A    between atoms: C_24  and  C_26
REMARK   11  A    between atoms: C_30  and  O_33
REMARK   12  A    between atoms: C_31  and  O_32
REMARK                            x       y       z     vdW  Elec       q    Type
REMARK                         _______ _______ _______ _____ _____    ______ ____
ROOT
ATOM      1  C   UNL     1       1.339  -1.526   0.260  0.00  0.00    +0.193 C 
ENDROOT
BRANCH   1   2
ATOM      2  C   UNL     1       1.665  -2.820   0.959  0.00  0.00    -0.018 A 
ATOM      3  C   UNL     1       0.660  -3.550   1.565  0.00  0.00    +0.009 A 
ATOM      4  C   UNL     1       0.957  -4.737   2.207  0.00  0.00    +0.046 A 
ATOM      5  C   UNL     1       2.265  -5.197   2.242  0.00  0.00    +0.117 A 
ATOM      6  C   UNL     1       3.272  -4.463   1.632  0.00  0.00    +0.046 A 
ATOM      7  C   UNL     1       2.969  -3.279   0.987  0.00  0.00    +0.009 A 
BRANCH   5   8
ATOM      8  O   UNL     1       2.560  -6.363   2.873  0.00  0.00    -0.507 OA
ATOM      9  H   UNL     1       2.510  -7.143   2.303  0.00  0.00    +0.292 HD
ENDBRANCH   5   8
ENDBRANCH   1   2
BRANCH   1  10
ATOM     10  C   UNL     1       1.458  -0.384   1.236  0.00  0.00    +0.238 C 
ATOM     11  O   UNL     1       0.503   0.331   1.453  0.00  0.00    -0.273 OA
ATOM     12  N   UNL     1       2.627  -0.157   1.867  0.00  0.00    -0.311 N 
ATOM     13  H   UNL     1       3.391  -0.729   1.693  0.00  0.00    +0.149 HD
BRANCH  12  14
ATOM     14  C   UNL     1       2.744   0.953   2.816  0.00  0.00    +0.073 C 
ATOM     15  C   UNL     1       3.073   2.240   2.057  0.00  0.00    +0.022 C 
ATOM     16  C   UNL     1       3.195   3.400   3.047  0.00  0.00    +0.002 C 
ATOM     17  C   UNL     1       4.311   3.099   4.050  0.00  0.00    +0.000 C 
ATOM     18  C   UNL     1       3.982   1.812   4.809  0.00  0.00    +0.002 C 
ATOM     19  C   UNL     1       3.861   0.653   3.818  0.00  0.00    +0.022 C 
ENDBRANCH  12  14
ENDBRANCH   1  10
BRANCH   1  20
ATOM     20  N   UNL     1      -0.030  -1.583  -0.259  0.00  0.00    -0.277 N 
ATOM     21  C   UNL     1      -1.047  -1.925   0.557  0.00  0.00    +0.252 C 
ATOM     22  O   UNL     1      -0.981  -1.680   1.746  0.00  0.00    -0.270 OA
BRANCH  21  23
ATOM     23  C   UNL     1      -2.240  -2.598   0.008  0.00  0.00    +0.082 A 
ATOM     24  C   UNL     1      -2.427  -2.676  -1.376  0.00  0.00    +0.017 A 
ATOM     25  C   UNL     1      -3.542  -3.305  -1.885  0.00  0.00    +0.005 A 
ATOM     26  C   UNL     1      -4.482  -3.862  -1.033  0.00  0.00    +0.049 A 
ATOM     27  C   UNL     1      -4.310  -3.792   0.339  0.00  0.00    +0.159 A 
ATOM     28  C   UNL     1      -3.186  -3.165   0.869  0.00  0.00    +0.171 A 
BRANCH  28  29
ATOM     29  O   UNL     1      -3.011  -3.100   2.213  0.00  0.00    -0.503 OA
ATOM     30  H   UNL     1      -3.401  -2.316   2.623  0.00  0.00    +0.292 HD
ENDBRANCH  28  29
BRANCH  27  31
ATOM     31  O   UNL     1      -5.237  -4.341   1.169  0.00  0.00    -0.503 OA
ATOM     32  H   UNL     1      -5.066  -5.266   1.393  0.00  0.00    +0.292 HD
ENDBRANCH  27  31
ENDBRANCH  21  23
BRANCH  20  34
ATOM     33  C   UNL     1       0.752  -0.273  -2.170  0.00  0.00    +0.031 C 
ATOM     34  C   UNL     1      -0.294  -1.268  -1.665  0.00  0.00    +0.030 C 
ATOM     35  C   UNL     1      -1.689  -0.652  -1.797  0.00  0.00    +0.031 C 
ATOM     36  C   UNL     1      -0.222  -2.550  -2.498  0.00  0.00    +0.031 C 
ENDBRANCH  20  34
ENDBRANCH   1  20
TORSDOF 9
