REMARK  Name = ZINC15548431
REMARK  12 active torsions:
REMARK  status: ('A' for Active; 'I' for Inactive)
REMARK    1  A    between atoms: C_1  and  C_2
REMARK    2  A    between atoms: C_2  and  N_3
REMARK    3  A    between atoms: N_3  and  C_4
REMARK    4  A    between atoms: C_5  and  N_20
REMARK    5  A    between atoms: N_6  and  C_13
REMARK    6  A    between atoms: C_13  and  C_14
REMARK    7  A    between atoms: C_21  and  C_23
REMARK    8  A    between atoms: C_23  and  N_69
REMARK    9  A    between atoms: C_27  and  C_29
REMARK   10  A    between atoms: C_32  and  O_35
REMARK   11  A    between atoms: O_35  and  C_36
REMARK   12  A    between atoms: C_36  and  C_37
REMARK                            x       y       z     vdW  Elec       q    Type
REMARK                         _______ _______ _______ _____ _____    ______ ____
ROOT
ATOM      1  N   UNL     1      -1.964   1.176   1.047  0.00  0.00    -0.266 N 
ATOM      2  C   UNL     1      -1.964   0.117   1.883  0.00  0.00    +0.203 C 
ATOM      3  O   UNL     1      -3.015  -0.348   2.273  0.00  0.00    -0.277 OA
ENDROOT
BRANCH   1   4
ATOM      4  C   UNL     1      -3.179   1.810   0.712  0.00  0.00    +0.140 A 
ATOM      5  C   UNL     1      -4.142   1.142  -0.016  0.00  0.00    +0.128 A 
ATOM      6  N   UNL     1      -5.317   1.787  -0.327  0.00  0.00    -0.276 N 
ATOM      7  C   UNL     1      -5.524   3.054   0.073  0.00  0.00    +0.331 A 
ATOM      8  O   UNL     1      -6.570   3.607  -0.211  0.00  0.00    -0.246 OA
ATOM      9  N   UNL     1      -4.598   3.721   0.784  0.00  0.00    -0.273 N 
ATOM     10  H   UNL     1      -4.775   4.664   1.066  0.00  0.00    +0.173 HD
ATOM     11  C   UNL     1      -3.432   3.134   1.119  0.00  0.00    +0.277 A 
ATOM     12  O   UNL     1      -2.601   3.746   1.767  0.00  0.00    -0.266 OA
BRANCH   5  13
ATOM     13  N   UNL     1      -3.930  -0.152  -0.426  0.00  0.00    -0.343 N 
ATOM     14  H   UNL     1      -3.111  -0.611  -0.181  0.00  0.00    +0.144 HD
ATOM     15  H   UNL     1      -4.599  -0.608  -0.961  0.00  0.00    +0.144 HD
ENDBRANCH   5  13
BRANCH   6  16
ATOM     16  C   UNL     1      -6.348   1.089  -1.100  0.00  0.00    +0.163 C 
BRANCH  16  17
ATOM     17  C   UNL     1      -7.282   0.373  -0.160  0.00  0.00    -0.028 A 
ATOM     18  C   UNL     1      -7.018  -0.930   0.218  0.00  0.00    +0.005 A 
ATOM     19  C   UNL     1      -7.873  -1.585   1.085  0.00  0.00    +0.000 A 
ATOM     20  C   UNL     1      -8.997  -0.941   1.566  0.00  0.00    +0.000 A 
ATOM     21  C   UNL     1      -9.264   0.361   1.184  0.00  0.00    +0.000 A 
ATOM     22  C   UNL     1      -8.406   1.018   0.322  0.00  0.00    +0.005 A 
ENDBRANCH  16  17
ENDBRANCH   6  16
ENDBRANCH   1   4
BRANCH   1  24
ATOM     23  C   UNL     1      -0.419   0.955  -0.835  0.00  0.00    +0.025 C 
ATOM     24  C   UNL     1      -0.703   1.668   0.488  0.00  0.00    +0.110 C 
ENDBRANCH   1  24
BRANCH   2  25
ATOM     25  C   UNL     1      -0.660  -0.489   2.331  0.00  0.00    +0.020 C 
BRANCH  25  30
ATOM     26  C   UNL     1      -1.513  -2.754   2.490  0.00  0.00    -0.077 C 
ATOM     27  C   UNL     1      -0.599  -3.975   2.729  0.00  0.00    -0.020 C 
ATOM     28  C   UNL     1       0.136  -3.609   4.045  0.00  0.00    -0.013 C 
ATOM     29  C   UNL     1       0.313  -2.078   3.890  0.00  0.00    -0.037 C 
ATOM     30  N   UNL     1      -0.937  -1.629   3.244  0.00  0.00    +0.390 N 
ATOM     31  H   UNL     1      -1.602  -1.327   3.965  0.00  0.00    -0.080 HD
BRANCH  29  32
ATOM     32  C   UNL     1       0.459  -1.427   5.242  0.00  0.00    -0.061 A 
ATOM     33  C   UNL     1      -0.651  -1.257   6.048  0.00  0.00    +0.005 A 
ATOM     34  C   UNL     1      -0.519  -0.666   7.290  0.00  0.00    +0.046 A 
ATOM     35  C   UNL     1       0.726  -0.233   7.722  0.00  0.00    +0.121 A 
ATOM     36  C   UNL     1       1.837  -0.401   6.908  0.00  0.00    +0.046 A 
ATOM     37  C   UNL     1       1.701  -0.997   5.670  0.00  0.00    +0.005 A 
BRANCH  35  38
ATOM     38  O   UNL     1       0.858   0.353   8.941  0.00  0.00    -0.492 OA
BRANCH  38  39
ATOM     39  C   UNL     1      -0.329   0.493   9.726  0.00  0.00    +0.225 C 
ATOM     40  C   UNL     1       0.015   1.169  11.054  0.00  0.00    +0.048 C 
ENDBRANCH  38  39
ENDBRANCH  35  38
ENDBRANCH  29  32
ENDBRANCH  25  30
ENDBRANCH   2  25
TORSDOF 10
