REMARK  Name = ZINC16042851
REMARK  11 active torsions:
REMARK  status: ('A' for Active; 'I' for Inactive)
REMARK    1  A    between atoms: C_1  and  C_2
REMARK    2  A    between atoms: C_2  and  N_71
REMARK    3  A    between atoms: C_3  and  C_4
REMARK    4  A    between atoms: C_3  and  N_71
REMARK    5  A    between atoms: C_5  and  C_6
REMARK    6  A    between atoms: C_5  and  N_71
REMARK    7  A    between atoms: C_6  and  C_7
REMARK    8  A    between atoms: C_7  and  N_8
REMARK    9  A    between atoms: C_28  and  C_30
REMARK   10  A    between atoms: C_30  and  C_31
REMARK   11  A    between atoms: C_31  and  C_32
REMARK                            x       y       z     vdW  Elec       q    Type
REMARK                         _______ _______ _______ _____ _____    ______ ____
ROOT
ATOM      1  N   UNL     1       1.342  -0.537   0.013  0.00  0.00    -0.291 N 
ATOM      2  C   UNL     1      -0.018  -0.026   0.022  0.00  0.00    +0.203 C 
ATOM      3  C   UNL     1      -0.057   1.468   0.031  0.00  0.00    +0.234 C 
ATOM      4  O   UNL     1      -1.145   2.005   0.054  0.00  0.00    -0.274 OA
ATOM      5  N   UNL     1       1.023   2.250   0.011  0.00  0.00    -0.280 N 
ATOM      6  C   UNL     1       2.385   1.730  -0.103  0.00  0.00    +0.167 C 
ATOM      7  C   UNL     1       2.424   0.237  -0.041  0.00  0.00    +0.237 C 
ATOM      8  O   UNL     1       3.510  -0.303  -0.040  0.00  0.00    -0.274 OA
ATOM      9  C   UNL     1       2.998   2.208  -1.427  0.00  0.00    +0.069 C 
ATOM     10  C   UNL     1       2.705   3.677  -1.594  0.00  0.00    -0.015 A 
ATOM     11  C   UNL     1       3.350   4.627  -2.478  0.00  0.00    +0.003 A 
ATOM     12  C   UNL     1       4.391   4.504  -3.403  0.00  0.00    +0.010 A 
ATOM     13  C   UNL     1       4.755   5.641  -4.082  0.00  0.00    +0.001 A 
ATOM     14  C   UNL     1       4.129   6.858  -3.868  0.00  0.00    +0.002 A 
ATOM     15  C   UNL     1       3.096   7.008  -2.959  0.00  0.00    +0.026 A 
ATOM     16  C   UNL     1       2.704   5.870  -2.256  0.00  0.00    +0.047 A 
ATOM     17  N   UNL     1       1.744   5.665  -1.308  0.00  0.00    -0.356 N 
ATOM     18  H   UNL     1       1.145   6.347  -0.963  0.00  0.00    +0.166 HD
ATOM     19  C   UNL     1       1.752   4.353  -0.916  0.00  0.00    +0.041 A 
ATOM     20  C   UNL     1       0.851   3.715   0.116  0.00  0.00    +0.124 C 
ENDROOT
BRANCH   1  21
ATOM     21  C   UNL     1       1.534  -1.988   0.067  0.00  0.00    +0.106 C 
BRANCH  21  22
ATOM     22  C   UNL     1       1.570  -2.551  -1.355  0.00  0.00    +0.000 C 
BRANCH  22  23
ATOM     23  C   UNL     1       1.771  -4.067  -1.299  0.00  0.00    -0.077 C 
BRANCH  23  24
ATOM     24  N   UNL     1       1.661  -4.610  -2.670  0.00  0.00    +0.379 N 
ATOM     25  H   UNL     1       0.879  -4.150  -3.149  0.00  0.00    -0.082 HD
BRANCH  24  27
ATOM     26  C   UNL     1       2.686  -4.713  -4.888  0.00  0.00    -0.017 C 
ATOM     27  C   UNL     1       2.907  -4.345  -3.420  0.00  0.00    -0.082 C 
ENDBRANCH  24  27
BRANCH  24  28
ATOM     28  C   UNL     1       1.403  -6.064  -2.617  0.00  0.00    -0.082 C 
ATOM     29  C   UNL     1      -0.069  -6.289  -2.266  0.00  0.00    -0.017 C 
ENDBRANCH  24  28
ENDBRANCH  23  24
ENDBRANCH  22  23
ENDBRANCH  21  22
ENDBRANCH   1  21
BRANCH  20  30
ATOM     30  C   UNL     1       1.247   4.186   1.517  0.00  0.00    +0.033 C 
BRANCH  30  31
ATOM     31  C   UNL     1       0.282   3.594   2.546  0.00  0.00    +0.037 C 
BRANCH  31  32
ATOM     32  C   UNL     1       0.672   4.058   3.926  0.00  0.00    -0.047 A 
ATOM     33  C   UNL     1       1.559   3.313   4.680  0.00  0.00    +0.003 A 
ATOM     34  C   UNL     1       1.921   3.742   5.944  0.00  0.00    +0.000 A 
ATOM     35  C   UNL     1       1.388   4.909   6.457  0.00  0.00    +0.000 A 
ATOM     36  C   UNL     1       0.496   5.651   5.705  0.00  0.00    +0.000 A 
ATOM     37  C   UNL     1       0.139   5.226   4.439  0.00  0.00    +0.003 A 
ENDBRANCH  31  32
ENDBRANCH  30  31
ENDBRANCH  20  30
TORSDOF 9
