REMARK  Name = ZINC01113125
REMARK  11 active torsions:
REMARK  status: ('A' for Active; 'I' for Inactive)
REMARK    1  A    between atoms: C_1  and  C_2
REMARK    2  A    between atoms: C_2  and  C_3
REMARK    3  A    between atoms: C_2  and  C_4
REMARK    4  A    between atoms: C_7  and  C_10
REMARK    5  A    between atoms: C_12  and  C_35
REMARK    6  A    between atoms: C_13  and  S_22
REMARK    7  A    between atoms: S_22  and  C_23
REMARK    8  A    between atoms: C_23  and  C_24
REMARK    9  A    between atoms: N_26  and  C_27
REMARK   10  A    between atoms: C_30  and  O_33
REMARK   11  A    between atoms: O_33  and  C_34
REMARK                            x       y       z     vdW  Elec       q    Type
REMARK                         _______ _______ _______ _____ _____    ______ ____
ROOT
ATOM      1  C   UNL     1       5.646  -2.479 -11.281  0.00  0.00    +0.097 C 
ATOM      2  C   UNL     1       5.116  -1.619 -10.171  0.00  0.00    +0.069 C 
ATOM      3  C   UNL     1       4.609  -2.172  -9.037  0.00  0.00    +0.080 C 
ATOM      4  N   UNL     1       4.572  -3.539  -8.892  0.00  0.00    -0.311 N 
ATOM      5  C   UNL     1       4.643  -4.355  -9.991  0.00  0.00    +0.016 C 
ATOM      6  C   UNL     1       5.149  -3.897 -11.156  0.00  0.00    +0.024 C 
ATOM      7  C   UNL     1       5.231  -4.728 -12.287  0.00  0.00    +0.162 C 
ATOM      8  O   UNL     1       5.676  -4.280 -13.325  0.00  0.00    -0.292 OA
ATOM      9  C   UNL     1       4.778  -6.161 -12.235  0.00  0.00    +0.080 C 
ATOM     10  C   UNL     1       4.938  -6.684 -10.804  0.00  0.00    +0.014 C 
ATOM     11  C   UNL     1       4.144  -5.773  -9.864  0.00  0.00    +0.051 C 
ATOM     12  H   UNL     1       4.486  -3.985  -7.890  0.00  0.00    +0.152 HD
ENDROOT
BRANCH   1  16
ATOM     13  C   UNL     1       9.915  -2.471 -11.143  0.00  0.00    -0.045 A 
ATOM     14  C   UNL     1       9.259  -2.011 -12.270  0.00  0.00    +0.004 A 
ATOM     15  C   UNL     1       7.878  -2.014 -12.315  0.00  0.00    +0.005 A 
ATOM     16  C   UNL     1       7.152  -2.476 -11.232  0.00  0.00    -0.035 A 
ATOM     17  C   UNL     1       7.808  -2.930 -10.104  0.00  0.00    +0.005 A 
ATOM     18  C   UNL     1       9.189  -2.933 -10.061  0.00  0.00    +0.004 A 
BRANCH  13  20
ATOM     19  C   UNL     1      11.892  -1.591  -9.932  0.00  0.00    +0.012 C 
ATOM     20  C   UNL     1      11.421  -2.468 -11.094  0.00  0.00    +0.013 C 
ATOM     21  C   UNL     1      11.928  -3.897 -10.892  0.00  0.00    +0.012 C 
ENDBRANCH  13  20
ENDBRANCH   1  16
BRANCH   2  22
ATOM     22  C   UNL     1       5.145  -0.194 -10.309  0.00  0.00    +0.098 C 
ATOM     23  N   UNL     1       5.168   0.936 -10.418  0.00  0.00    -0.191 NA
ENDBRANCH   2  22
BRANCH   3  24
ATOM     24  S   UNL     1       4.005  -1.135  -7.747  0.00  0.00    -0.100 S 
BRANCH  24  25
ATOM     25  C   UNL     1       3.482  -2.390  -6.553  0.00  0.00    +0.171 C 
BRANCH  25  26
ATOM     26  C   UNL     1       2.914  -1.716  -5.330  0.00  0.00    +0.227 C 
ATOM     27  O   UNL     1       2.868  -0.505  -5.272  0.00  0.00    -0.275 OA
ATOM     28  N   UNL     1       2.458  -2.458  -4.302  0.00  0.00    -0.285 N 
ATOM     29  H   UNL     1       2.579  -3.551  -4.316  0.00  0.00    +0.155 HD
BRANCH  28  30
ATOM     30  C   UNL     1       1.831  -1.837  -3.214  0.00  0.00    +0.034 A 
ATOM     31  C   UNL     1       1.068  -0.693  -3.413  0.00  0.00    +0.027 A 
ATOM     32  C   UNL     1       0.449  -0.082  -2.340  0.00  0.00    +0.047 A 
ATOM     33  C   UNL     1       0.589  -0.610  -1.065  0.00  0.00    +0.120 A 
ATOM     34  C   UNL     1       1.354  -1.749  -0.865  0.00  0.00    +0.047 A 
ATOM     35  C   UNL     1       1.970  -2.364  -1.937  0.00  0.00    +0.027 A 
BRANCH  33  36
ATOM     36  O   UNL     1      -0.021  -0.007  -0.010  0.00  0.00    -0.495 OA
ATOM     37  C   UNL     1       0.165  -0.605   1.275  0.00  0.00    +0.277 C 
ENDBRANCH  33  36
ENDBRANCH  28  30
ENDBRANCH  25  26
ENDBRANCH  24  25
ENDBRANCH   3  24
TORSDOF 8
