REMARK  Name = ZINC57845323
REMARK  7 active torsions:
REMARK  status: ('A' for Active; 'I' for Inactive)
REMARK    1  A    between atoms: C_1  and  C_2
REMARK    2  A    between atoms: C_2  and  C_4
REMARK    3  A    between atoms: C_2  and  N_6
REMARK    4  A    between atoms: C_4  and  N_5
REMARK    5  A    between atoms: C_9  and  C_14
REMARK    6  A    between atoms: C_17  and  O_20
REMARK    7  A    between atoms: O_20  and  C_21
REMARK                            x       y       z     vdW  Elec       q    Type
REMARK                         _______ _______ _______ _____ _____    ______ ____
ROOT
ATOM      1  N   UNL     1       0.688  -0.476  -1.203  0.00  0.00    -0.223 N 
ATOM      2  C   UNL     1       0.116  -1.253  -2.145  0.00  0.00    +0.248 C 
ATOM      3  O   UNL     1      -1.020  -1.676  -2.154  0.00  0.00    -0.273 OA
ATOM      4  C   UNL     1       1.188  -1.486  -3.191  0.00  0.00    +0.191 C 
ATOM      5  N   UNL     1       2.348  -0.745  -2.668  0.00  0.00    -0.284 N 
ATOM      6  C   UNL     1       1.958  -0.186  -1.508  0.00  0.00    +0.310 C 
ATOM      7  O   UNL     1       2.679   0.503  -0.814  0.00  0.00    -0.252 OA
ATOM      8  H   UNL     1       3.223  -0.671  -3.081  0.00  0.00    +0.151 HD
ENDROOT
BRANCH   4   9
ATOM      9  C   UNL     1       0.757  -0.932  -4.524  0.00  0.00    -0.018 A 
ATOM     10  C   UNL     1       0.877   0.421  -4.780  0.00  0.00    +0.009 A 
ATOM     11  C   UNL     1       0.483   0.932  -6.002  0.00  0.00    +0.046 A 
ATOM     12  C   UNL     1      -0.034   0.086  -6.972  0.00  0.00    +0.120 A 
ATOM     13  C   UNL     1      -0.153  -1.272  -6.713  0.00  0.00    +0.046 A 
ATOM     14  C   UNL     1       0.248  -1.778  -5.492  0.00  0.00    +0.009 A 
BRANCH  12  15
ATOM     15  O   UNL     1      -0.423   0.586  -8.174  0.00  0.00    -0.495 OA
ATOM     16  C   UNL     1      -0.945  -0.344  -9.125  0.00  0.00    +0.277 C 
ENDBRANCH  12  15
ENDBRANCH   4   9
BRANCH   1  18
ATOM     17  C   UNL     1      -0.019   1.526   0.010  0.00  0.00    +0.026 C 
ATOM     18  C   UNL     1       0.002  -0.004   0.002  0.00  0.00    +0.065 C 
BRANCH  18  19
ATOM     19  C   UNL     1       0.742  -0.511   1.242  0.00  0.00    -0.063 C 
BRANCH  19  20
ATOM     20  N   UNL     1       0.867  -1.973   1.174  0.00  0.00    +0.379 N 
ATOM     21  H   UNL     1      -0.052  -2.388   1.138  0.00  0.00    -0.090 HD
ATOM     22  H   UNL     1       1.384  -2.228   0.346  0.00  0.00    -0.090 HD
ATOM     23  H   UNL     1       1.355  -2.307   1.991  0.00  0.00    -0.090 HD
ENDBRANCH  19  20
ENDBRANCH  18  19
ENDBRANCH   1  18
TORSDOF 5
