REMARK  Name = ZINC05353541
REMARK  8 active torsions:
REMARK  status: ('A' for Active; 'I' for Inactive)
REMARK    1  A    between atoms: C_1  and  C_2
REMARK    2  A    between atoms: C_2  and  C_3
REMARK    3  A    between atoms: C_2  and  C_4
REMARK    4  A    between atoms: C_2  and  C_5
REMARK    5  A    between atoms: C_11  and  C_15
REMARK    6  A    between atoms: N_17  and  N_18
REMARK    7  A    between atoms: C_19  and  C_20
REMARK    8  A    between atoms: C_21  and  C_22
REMARK                            x       y       z     vdW  Elec       q    Type
REMARK                         _______ _______ _______ _____ _____    ______ ____
ROOT
ATOM      1  C   UNL     1       1.534   4.844  -0.495  0.00  0.00    +0.284 C 
ATOM      2  O   UNL     1       2.724   4.777  -0.738  0.00  0.00    -0.267 OA
ATOM      3  N   UNL     1       0.957   6.043  -0.280  0.00  0.00    -0.202 N 
ATOM      4  H   UNL     1       0.008   6.096  -0.086  0.00  0.00    +0.178 HD
ENDROOT
BRANCH   1  10
ATOM      5  C   UNL     1       2.608   0.294  -0.666  0.00  0.00    -0.001 C 
ATOM      6  C   UNL     1       1.416  -0.391  -1.340  0.00  0.00    +0.010 C 
ATOM      7  C   UNL     1       0.120   0.001  -0.620  0.00  0.00    +0.055 C 
ATOM      8  C   UNL     1       0.088   1.501  -0.485  0.00  0.00    +0.040 A 
ATOM      9  C   UNL     1       1.175   2.297  -0.634  0.00  0.00    +0.006 A 
ATOM     10  C   UNL     1       0.722   3.612  -0.435  0.00  0.00    +0.152 A 
ATOM     11  N   UNL     1      -0.574   3.532  -0.182  0.00  0.00    -0.169 NA
ATOM     12  N   UNL     1      -0.956   2.302  -0.213  0.00  0.00    -0.281 N 
ATOM     13  H   UNL     1      -1.893   1.989  -0.058  0.00  0.00    +0.189 HD
ATOM     14  C   UNL     1       2.559   1.802  -0.950  0.00  0.00    +0.043 C 
BRANCH   5  16
ATOM     15  C   UNL     1       3.974  -0.051  -2.729  0.00  0.00    +0.011 C 
ATOM     16  C   UNL     1       3.910  -0.287  -1.219  0.00  0.00    -0.035 C 
ATOM     17  C   UNL     1       5.101   0.397  -0.545  0.00  0.00    +0.011 C 
ATOM     18  C   UNL     1       3.959  -1.790  -0.935  0.00  0.00    +0.011 C 
ENDBRANCH   5  16
ENDBRANCH   1  10
BRANCH   3  19
ATOM     19  N   UNL     1       1.727   7.211  -0.337  0.00  0.00    -0.187 NA
ATOM     20  C   UNL     1       1.170   8.370  -0.129  0.00  0.00    +0.145 C 
BRANCH  20  21
ATOM     21  C   UNL     1       1.973   9.589  -0.189  0.00  0.00    +0.038 C 
ATOM     22  C   UNL     1       1.395  10.789   0.026  0.00  0.00    +0.024 C 
ATOM     23 BR   UNL     1       3.823   9.484  -0.567  0.00  0.00    -0.049 Br
BRANCH  22  24
ATOM     24  C   UNL     1       2.228  11.998   0.133  0.00  0.00    -0.024 A 
ATOM     25  C   UNL     1       3.488  11.933   0.736  0.00  0.00    +0.008 A 
ATOM     26  C   UNL     1       4.264  13.069   0.828  0.00  0.00    +0.001 A 
ATOM     27  C   UNL     1       3.795  14.274   0.335  0.00  0.00    +0.000 A 
ATOM     28  C   UNL     1       2.546  14.348  -0.258  0.00  0.00    +0.001 A 
ATOM     29  C   UNL     1       1.761  13.220  -0.362  0.00  0.00    +0.008 A 
ENDBRANCH  22  24
ENDBRANCH  20  21
ENDBRANCH   3  19
TORSDOF 5
