REMARK  Name = ZINC41916634
REMARK  5 active torsions:
REMARK  status: ('A' for Active; 'I' for Inactive)
REMARK    1  A    between atoms: C_1  and  C_2
REMARK    2  A    between atoms: C_2  and  C_4
REMARK    3  A    between atoms: C_2  and  N_10
REMARK    4  A    between atoms: C_11  and  C_13
REMARK    5  A    between atoms: N_15  and  C_16
REMARK                            x       y       z     vdW  Elec       q    Type
REMARK                         _______ _______ _______ _____ _____    ______ ____
ROOT
ATOM      1  C   UNL     1      -3.430  -1.170   1.191  0.00  0.00    +0.303 C 
ATOM      2  O   UNL     1      -3.981  -1.452   0.147  0.00  0.00    -0.265 OA
ATOM      3  N   UNL     1      -4.086  -1.316   2.360  0.00  0.00    -0.278 N 
ATOM      4  H   UNL     1      -3.625  -1.155   3.198  0.00  0.00    +0.155 HD
ENDROOT
BRANCH   3   5
ATOM      5  C   UNL     1      -5.430  -1.700   2.364  0.00  0.00    +0.037 A 
ATOM      6  C   UNL     1      -6.296  -1.189   3.322  0.00  0.00    +0.043 A 
ATOM      7  C   UNL     1      -7.625  -1.570   3.323  0.00  0.00    +0.044 A 
ATOM      8  C   UNL     1      -8.092  -2.459   2.371  0.00  0.00    +0.040 A 
ATOM      9  C   UNL     1      -7.231  -2.969   1.415  0.00  0.00    +0.044 A 
ATOM     10  C   UNL     1      -5.903  -2.588   1.406  0.00  0.00    +0.043 A 
ATOM     11 CL   UNL     1      -7.822  -4.084   0.223  0.00  0.00    -0.083 Cl
ATOM     12 CL   UNL     1      -8.709  -0.932   4.520  0.00  0.00    -0.083 Cl
ENDBRANCH   3   5
BRANCH   1  14
ATOM     13  N   UNL     1      -1.371  -0.515   0.013  0.00  0.00    -0.303 N 
ATOM     14  C   UNL     1      -2.026  -0.661   1.181  0.00  0.00    +0.300 C 
ATOM     15  O   UNL     1      -1.476  -0.379   2.226  0.00  0.00    -0.265 OA
ATOM     16  H   UNL     1      -1.810  -0.741  -0.821  0.00  0.00    +0.150 HD
BRANCH  13  18
ATOM     17  C   UNL     1      -0.005   1.514   0.019  0.00  0.00    +0.030 C 
ATOM     18  C   UNL     1       0.007  -0.016   0.004  0.00  0.00    +0.099 C 
BRANCH  18  19
ATOM     19  C   UNL     1       0.719  -0.507  -1.258  0.00  0.00    +0.138 C 
ATOM     20  C   UNL     1       0.602  -2.048  -1.376  0.00  0.00    +0.035 C 
ATOM     21  C   UNL     1       0.767  -2.240  -2.909  0.00  0.00    +0.031 C 
ATOM     22  C   UNL     1       0.085  -0.975  -3.472  0.00  0.00    +0.160 C 
ATOM     23  O   UNL     1       0.070   0.011  -2.431  0.00  0.00    -0.375 OA
ENDBRANCH  18  19
ENDBRANCH  13  18
ENDBRANCH   1  14
TORSDOF 4
