REMARK  Name = ZINC09270449
REMARK  14 active torsions:
REMARK  status: ('A' for Active; 'I' for Inactive)
REMARK    1  A    between atoms: C_1  and  C_2
REMARK    2  A    between atoms: C_2  and  N_64
REMARK    3  A    between atoms: C_3  and  C_4
REMARK    4  A    between atoms: C_3  and  N_64
REMARK    5  A    between atoms: C_5  and  C_6
REMARK    6  A    between atoms: C_5  and  N_64
REMARK    7  A    between atoms: C_6  and  N_7
REMARK    8  A    between atoms: C_8  and  C_24
REMARK    9  A    between atoms: C_11  and  C_12
REMARK   10  A    between atoms: C_11  and  O_19
REMARK   11  A    between atoms: C_15  and  C_18
REMARK   12  A    between atoms: C_27  and  O_30
REMARK   13  A    between atoms: O_30  and  C_31
REMARK   14  A    between atoms: C_31  and  C_32
REMARK                            x       y       z     vdW  Elec       q    Type
REMARK                         _______ _______ _______ _____ _____    ______ ____
ROOT
ATOM      1  N   UNL     1      -4.543   1.062   3.855  0.00  0.00    -0.285 N 
ATOM      2  C   UNL     1      -5.766   1.870   3.903  0.00  0.00    +0.144 C 
ATOM      3  C   UNL     1      -6.329   1.720   5.297  0.00  0.00    +0.071 C 
ATOM      4  C   UNL     1      -7.475   2.305   5.796  0.00  0.00    +0.133 C 
ATOM      5  C   UNL     1      -5.450   0.866   5.984  0.00  0.00    +0.249 C 
ATOM      6  O   UNL     1      -5.564   0.503   7.140  0.00  0.00    -0.282 OA
ATOM      7  C   UNL     1      -4.359   0.477   5.050  0.00  0.00    +0.288 C 
ATOM      8  O   UNL     1      -3.435  -0.260   5.328  0.00  0.00    -0.266 OA
ENDROOT
BRANCH   4   9
ATOM      9  C   UNL     1      -7.950   1.960   7.147  0.00  0.00    +0.017 A 
ATOM     10  C   UNL     1      -8.057   0.620   7.534  0.00  0.00    +0.012 A 
ATOM     11  C   UNL     1      -8.498   0.305   8.801  0.00  0.00    +0.004 A 
ATOM     12  C   UNL     1      -8.844   1.311   9.687  0.00  0.00    -0.050 A 
ATOM     13  C   UNL     1      -8.747   2.639   9.310  0.00  0.00    +0.004 A 
ATOM     14  C   UNL     1      -8.303   2.970   8.047  0.00  0.00    +0.012 A 
ATOM     15  C   UNL     1      -9.330   0.958  11.069  0.00  0.00    +0.044 C 
ENDBRANCH   4   9
BRANCH   2  16
ATOM     16  C   UNL     1      -6.759   1.363   2.889  0.00  0.00    -0.022 A 
ATOM     17  C   UNL     1      -6.910   0.003   2.690  0.00  0.00    +0.009 A 
ATOM     18  C   UNL     1      -7.823  -0.464   1.765  0.00  0.00    +0.046 A 
ATOM     19  C   UNL     1      -8.582   0.434   1.026  0.00  0.00    +0.121 A 
ATOM     20  C   UNL     1      -8.424   1.798   1.224  0.00  0.00    +0.046 A 
ATOM     21  C   UNL     1      -7.513   2.260   2.154  0.00  0.00    +0.009 A 
BRANCH  19  22
ATOM     22  O   UNL     1      -9.477  -0.023   0.112  0.00  0.00    -0.492 OA
BRANCH  22  23
ATOM     23  C   UNL     1      -9.586  -1.440  -0.038  0.00  0.00    +0.225 C 
ATOM     24  C   UNL     1     -10.636  -1.761  -1.103  0.00  0.00    +0.048 C 
ENDBRANCH  22  23
ENDBRANCH  19  22
ENDBRANCH   2  16
BRANCH   4  25
ATOM     25  O   UNL     1      -8.160   3.194   5.045  0.00  0.00    -0.506 OA
ATOM     26  H   UNL     1      -8.957   3.516   5.556  0.00  0.00    +0.292 HD
ENDBRANCH   4  25
BRANCH   1  27
ATOM     27  C   UNL     1      -3.668   0.914   2.690  0.00  0.00    +0.090 C 
BRANCH  27  28
ATOM     28  C   UNL     1      -2.593   2.002   2.717  0.00  0.00    -0.060 C 
BRANCH  28  29
ATOM     29  N   UNL     1      -1.706   1.826   1.549  0.00  0.00    +0.380 N 
ATOM     30  H   UNL     1      -1.378   0.853   1.522  0.00  0.00    -0.082 HD
BRANCH  29  32
ATOM     31  C   UNL     1       0.450   2.119   2.662  0.00  0.00    -0.017 C 
ATOM     32  C   UNL     1      -0.537   2.723   1.662  0.00  0.00    -0.082 C 
ENDBRANCH  29  32
BRANCH  29  33
ATOM     33  C   UNL     1      -2.447   2.116   0.303  0.00  0.00    -0.082 C 
ATOM     34  C   UNL     1      -1.692   1.493  -0.873  0.00  0.00    -0.017 C 
ENDBRANCH  29  33
ENDBRANCH  28  29
ENDBRANCH  27  28
ENDBRANCH   1  27
TORSDOF 10
