REMARK  Name = ZINC36579708
REMARK  15 active torsions:
REMARK  status: ('A' for Active; 'I' for Inactive)
REMARK    1  A    between atoms: C_1  and  C_2
REMARK    2  A    between atoms: C_5  and  S_8
REMARK    3  A    between atoms: S_8  and  C_11
REMARK    4  A    between atoms: C_11  and  N_12
REMARK    5  A    between atoms: C_13  and  C_15
REMARK    6  A    between atoms: C_15  and  C_17
REMARK    7  A    between atoms: C_15  and  N_24
REMARK    8  A    between atoms: C_22  and  O_23
REMARK    9  A    between atoms: N_24  and  C_35
REMARK   10  A    between atoms: C_25  and  C_27
REMARK   11  A    between atoms: C_32  and  O_33
REMARK   12  A    between atoms: O_33  and  C_34
REMARK   13  A    between atoms: C_35  and  C_36
REMARK   14  A    between atoms: C_35  and  C_37
REMARK   15  A    between atoms: C_35  and  C_38
REMARK                            x       y       z     vdW  Elec       q    Type
REMARK                         _______ _______ _______ _____ _____    ______ ____
ROOT
ATOM      1  C   UNL     1       1.771  -6.707   2.740  0.00  0.00    +0.196 C 
ENDROOT
BRANCH   1   2
ATOM      2  C   UNL     1       0.941  -5.451   2.807  0.00  0.00    +0.023 A 
ATOM      3  C   UNL     1      -0.439  -5.534   2.809  0.00  0.00    +0.009 A 
ATOM      4  C   UNL     1      -1.201  -4.382   2.871  0.00  0.00    +0.001 A 
ATOM      5  C   UNL     1      -0.586  -3.145   2.931  0.00  0.00    +0.004 A 
ATOM      6  C   UNL     1       0.792  -3.057   2.929  0.00  0.00    +0.046 A 
ATOM      7  C   UNL     1       1.560  -4.212   2.873  0.00  0.00    +0.122 A 
BRANCH   7   8
ATOM      8  O   UNL     1       2.917  -4.128   2.877  0.00  0.00    -0.506 OA
ATOM      9  H   UNL     1       3.304  -3.981   2.003  0.00  0.00    +0.292 HD
ENDBRANCH   7   8
ENDBRANCH   1   2
BRANCH   1  11
ATOM     10  N   UNL     1       0.949  -7.640   0.601  0.00  0.00    -0.294 N 
ATOM     11  C   UNL     1       1.036  -7.753   1.942  0.00  0.00    +0.239 C 
ATOM     12  O   UNL     1       0.523  -8.696   2.505  0.00  0.00    -0.273 OA
ATOM     13  H   UNL     1       1.305  -6.854   0.157  0.00  0.00    +0.150 HD
BRANCH  10  14
ATOM     14  C   UNL     1       0.317  -8.703  -0.184  0.00  0.00    +0.278 C 
BRANCH  14  15
ATOM     15  S   UNL     1      -1.426  -8.289  -0.470  0.00  0.00    +0.013 S 
ATOM     16  O   UNL     1      -2.035  -7.872   0.745  0.00  0.00    -0.168 OA
ATOM     17  O   UNL     1      -2.037  -9.280  -1.284  0.00  0.00    -0.168 OA
BRANCH  15  22
ATOM     18  C   UNL     1      -1.303  -3.334  -3.910  0.00  0.00    +0.044 C 
ATOM     19  C   UNL     1      -1.333  -4.571  -3.050  0.00  0.00    -0.050 A 
ATOM     20  C   UNL     1      -1.347  -5.822  -3.640  0.00  0.00    +0.005 A 
ATOM     21  C   UNL     1      -1.375  -6.957  -2.852  0.00  0.00    +0.027 A 
ATOM     22  C   UNL     1      -1.389  -6.842  -1.474  0.00  0.00    +0.090 A 
ATOM     23  C   UNL     1      -1.374  -5.591  -0.885  0.00  0.00    +0.027 A 
ATOM     24  C   UNL     1      -1.341  -4.456  -1.673  0.00  0.00    +0.005 A 
ENDBRANCH  15  22
ENDBRANCH  14  15
ENDBRANCH  10  14
ENDBRANCH   1  11
BRANCH   1  25
ATOM     25  N   UNL     1       2.011  -7.207   4.096  0.00  0.00    -0.277 N 
ATOM     26  C   UNL     1       2.341  -8.499   4.289  0.00  0.00    +0.251 C 
ATOM     27  O   UNL     1       2.449  -8.937   5.418  0.00  0.00    -0.270 OA
BRANCH  26  28
ATOM     28  C   UNL     1       2.570  -9.383   3.130  0.00  0.00    +0.078 A 
ATOM     29  C   UNL     1       2.938  -8.842   1.895  0.00  0.00    +0.017 A 
ATOM     30  C   UNL     1       3.151  -9.673   0.817  0.00  0.00    +0.001 A 
ATOM     31  C   UNL     1       3.003 -11.044   0.951  0.00  0.00    +0.004 A 
ATOM     32  C   UNL     1       2.641 -11.592   2.165  0.00  0.00    +0.046 A 
ATOM     33  C   UNL     1       2.427 -10.771   3.263  0.00  0.00    +0.132 A 
BRANCH  33  34
ATOM     34  O   UNL     1       2.076 -11.308   4.458  0.00  0.00    -0.494 OA
ATOM     35  C   UNL     1       1.949 -12.730   4.517  0.00  0.00    +0.277 C 
ENDBRANCH  33  34
ENDBRANCH  26  28
BRANCH  25  36
ATOM     36  C   UNL     1       1.894  -6.302   5.242  0.00  0.00    +0.030 C 
ATOM     37  C   UNL     1       0.648  -5.429   5.076  0.00  0.00    +0.031 C 
ATOM     38  C   UNL     1       1.775  -7.121   6.528  0.00  0.00    +0.031 C 
ATOM     39  C   UNL     1       3.135  -5.411   5.317  0.00  0.00    +0.031 C 
ENDBRANCH  25  36
ENDBRANCH   1  25
TORSDOF 10
