REMARK  Name = ZINC14475875
REMARK  9 active torsions:
REMARK  status: ('A' for Active; 'I' for Inactive)
REMARK    1  A    between atoms: C_1  and  C_2
REMARK    2  A    between atoms: C_2  and  C_3
REMARK    3  A    between atoms: C_2  and  C_4
REMARK    4  A    between atoms: C_2  and  N_5
REMARK    5  A    between atoms: N_5  and  S_6
REMARK    6  A    between atoms: S_6  and  C_9
REMARK    7  A    between atoms: C_22  and  C_25
REMARK    8  A    between atoms: C_27  and  N_32
REMARK    9  A    between atoms: C_30  and  O_31
REMARK                            x       y       z     vdW  Elec       q    Type
REMARK                         _______ _______ _______ _____ _____    ______ ____
ROOT
ATOM      1  C   UNL     1       1.362   2.456  -0.811  0.00  0.00    +0.106 A 
ATOM      2  C   UNL     1       0.778   1.391  -0.149  0.00  0.00    +0.030 A 
ATOM      3  C   UNL     1      -0.568   1.430   0.156  0.00  0.00    +0.025 A 
ATOM      4  C   UNL     1      -1.327   2.541  -0.192  0.00  0.00    +0.031 A 
ATOM      5  C   UNL     1      -0.748   3.607  -0.857  0.00  0.00    -0.018 A 
ATOM      6  C   UNL     1       0.606   3.556  -1.163  0.00  0.00    +0.034 A 
ATOM      7  C   UNL     1      -1.521   4.829  -1.273  0.00  0.00    +0.049 C 
ATOM      8  C   UNL     1      -1.410   4.945  -2.787  0.00  0.00    -0.023 C 
ATOM      9  C   UNL     1      -2.458   4.414  -3.365  0.00  0.00    -0.030 C 
ATOM     10  C   UNL     1      -3.421   3.872  -2.323  0.00  0.00    +0.033 C 
ATOM     11  C   UNL     1      -3.036   4.666  -1.053  0.00  0.00    +0.029 C 
ATOM     12  C   UNL     1      -3.351   3.873   0.202  0.00  0.00    +0.108 C 
ATOM     13  N   UNL     1      -2.688   2.566   0.136  0.00  0.00    -0.336 N 
ATOM     14  H   UNL     1      -3.259   1.649   0.340  0.00  0.00    +0.147 HD
ENDROOT
BRANCH  12  15
ATOM     15  C   UNL     1      -2.855   4.627   1.409  0.00  0.00    +0.017 A 
ATOM     16  C   UNL     1      -1.680   4.245   2.028  0.00  0.00    +0.041 A 
ATOM     17  C   UNL     1      -1.224   4.936   3.135  0.00  0.00    +0.127 A 
ATOM     18  C   UNL     1      -1.943   6.011   3.626  0.00  0.00    +0.036 A 
ATOM     19  C   UNL     1      -3.118   6.397   3.011  0.00  0.00    +0.048 A 
ATOM     20  C   UNL     1      -3.574   5.708   1.896  0.00  0.00    +0.122 A 
BRANCH  17  21
ATOM     21  N   UNL     1       0.034   4.525   3.797  0.00  0.00    +0.056 N 
ATOM     22  O   UNL     1       0.668   3.578   3.365  0.00  0.00    -0.126 OA
ATOM     23  O   UNL     1       0.436   5.133   4.772  0.00  0.00    -0.126 OA
ENDBRANCH  17  21
BRANCH  20  24
ATOM     24  O   UNL     1      -4.727   6.090   1.286  0.00  0.00    -0.506 OA
ATOM     25  H   UNL     1      -5.297   6.947   1.673  0.00  0.00    +0.292 HD
ENDBRANCH  20  24
ENDBRANCH  12  15
BRANCH   1  26
ATOM     26  S   UNL     1       3.078   2.408  -1.208  0.00  0.00    +0.059 S 
ATOM     27  O   UNL     1       3.564   3.736  -1.067  0.00  0.00    -0.153 OA
ATOM     28  O   UNL     1       3.630   1.313  -0.491  0.00  0.00    -0.153 OA
BRANCH  26  29
ATOM     29  N   UNL     1       3.198   2.029  -2.816  0.00  0.00    -0.185 NA
ATOM     30  H   UNL     1       3.742   2.708  -3.489  0.00  0.00    +0.149 HD
BRANCH  29  32
ATOM     31  C   UNL     1       1.308   0.482  -2.937  0.00  0.00    +0.029 C 
ATOM     32  C   UNL     1       2.779   0.708  -3.291  0.00  0.00    +0.032 C 
ATOM     33  C   UNL     1       2.957   0.631  -4.808  0.00  0.00    +0.029 C 
ATOM     34  C   UNL     1       3.635  -0.369  -2.622  0.00  0.00    +0.029 C 
ENDBRANCH  29  32
ENDBRANCH  26  29
ENDBRANCH   1  26
TORSDOF 6
