REMARK  Name = ZINC38605242
REMARK  11 active torsions:
REMARK  status: ('A' for Active; 'I' for Inactive)
REMARK    1  A    between atoms: C_1  and  C_2
REMARK    2  A    between atoms: C_2  and  O_3
REMARK    3  A    between atoms: O_3  and  C_4
REMARK    4  A    between atoms: C_4  and  C_6
REMARK    5  A    between atoms: C_8  and  N_17
REMARK    6  A    between atoms: C_18  and  C_20
REMARK    7  A    between atoms: C_20  and  N_21
REMARK    8  A    between atoms: N_24  and  C_29
REMARK    9  A    between atoms: C_25  and  C_28
REMARK   10  A    between atoms: C_32  and  O_35
REMARK   11  A    between atoms: O_35  and  C_36
REMARK                            x       y       z     vdW  Elec       q    Type
REMARK                         _______ _______ _______ _____ _____    ______ ____
ROOT
ATOM      1  N   UNL     1       4.104  -2.660  -1.564  0.00  0.00    -0.285 N 
ATOM      2  C   UNL     1       5.436  -2.490  -1.684  0.00  0.00    +0.231 C 
ATOM      3  O   UNL     1       6.091  -3.273  -2.338  0.00  0.00    -0.274 OA
ATOM      4  H   UNL     1       3.572  -2.002  -1.091  0.00  0.00    +0.155 HD
ENDROOT
BRANCH   1   6
ATOM      5  C   UNL     1       4.163  -4.838  -2.939  0.00  0.00    +0.234 C 
ATOM      6  C   UNL     1       3.506  -3.757  -2.109  0.00  0.00    +0.053 C 
ATOM      7  C   UNL     1       2.172  -4.113  -2.017  0.00  0.00    +0.020 A 
ATOM      8  C   UNL     1       1.063  -3.506  -1.377  0.00  0.00    +0.050 A 
ATOM      9  C   UNL     1      -0.159  -4.090  -1.453  0.00  0.00    +0.124 A 
ATOM     10  C   UNL     1      -0.358  -5.286  -2.152  0.00  0.00    +0.040 A 
ATOM     11  C   UNL     1       0.656  -5.920  -2.788  0.00  0.00    +0.029 A 
ATOM     12  C   UNL     1       1.965  -5.371  -2.754  0.00  0.00    +0.045 A 
ATOM     13  N   UNL     1       3.100  -5.789  -3.281  0.00  0.00    -0.367 N 
ATOM     14  F   UNL     1      -1.210  -3.503  -0.839  0.00  0.00    -0.205 F 
ATOM     15  H   UNL     1       3.214  -6.593  -3.811  0.00  0.00    +0.161 HD
BRANCH   5  16
ATOM     16  C   UNL     1       4.752  -4.244  -4.192  0.00  0.00    +0.336 C 
ATOM     17  O   UNL     1       4.025  -3.863  -5.079  0.00  0.00    -0.248 OA
BRANCH  16  18
ATOM     18  O   UNL     1       6.083  -4.139  -4.324  0.00  0.00    -0.463 OA
BRANCH  18  20
ATOM     19  C   UNL     1       8.101  -3.530  -5.506  0.00  0.00    +0.048 C 
ATOM     20  C   UNL     1       6.572  -3.567  -5.538  0.00  0.00    +0.229 C 
ENDBRANCH  18  20
ENDBRANCH  16  18
ENDBRANCH   5  16
ENDBRANCH   1   6
BRANCH   2  21
ATOM     21  C   UNL     1       6.111  -1.327  -1.004  0.00  0.00    +0.180 C 
BRANCH  21  22
ATOM     22  N   UNL     1       7.552  -1.365  -1.285  0.00  0.00    -0.291 NA
ATOM     23  C   UNL     1       8.177  -2.546  -0.676  0.00  0.00    +0.104 C 
ATOM     24  C   UNL     1       9.634  -2.646  -1.140  0.00  0.00    +0.121 C 
ATOM     25  N   UNL     1      10.305  -1.369  -0.852  0.00  0.00    -0.325 N 
ATOM     26  C   UNL     1       9.666  -0.128  -1.313  0.00  0.00    +0.084 C 
ATOM     27  C   UNL     1       8.207  -0.127  -0.842  0.00  0.00    +0.107 C 
ATOM     28  C   UNL     1      10.401   1.078  -0.725  0.00  0.00    +0.029 C 
BRANCH  25  29
ATOM     29  C   UNL     1      11.519  -1.337  -0.158  0.00  0.00    +0.030 A 
ATOM     30  C   UNL     1      11.528  -1.407   1.229  0.00  0.00    +0.027 A 
ATOM     31  C   UNL     1      12.727  -1.376   1.914  0.00  0.00    +0.047 A 
ATOM     32  C   UNL     1      13.922  -1.273   1.217  0.00  0.00    +0.120 A 
ATOM     33  C   UNL     1      13.914  -1.202  -0.168  0.00  0.00    +0.047 A 
ATOM     34  C   UNL     1      12.716  -1.239  -0.855  0.00  0.00    +0.027 A 
BRANCH  32  35
ATOM     35  O   UNL     1      15.102  -1.242   1.892  0.00  0.00    -0.495 OA
ATOM     36  C   UNL     1      16.294  -1.135   1.111  0.00  0.00    +0.277 C 
ENDBRANCH  32  35
ENDBRANCH  25  29
ENDBRANCH  21  22
ENDBRANCH   2  21
TORSDOF 8
