REMARK  Name = ZINC25586299
REMARK  7 active torsions:
REMARK  status: ('A' for Active; 'I' for Inactive)
REMARK    1  A    between atoms: C_1  and  C_2
REMARK    2  A    between atoms: C_6  and  N_9
REMARK    3  A    between atoms: C_7  and  C_8
REMARK    4  A    between atoms: N_9  and  C_10
REMARK    5  A    between atoms: C_10  and  C_12
REMARK    6  A    between atoms: C_13  and  C_30
REMARK    7  A    between atoms: C_17  and  C_24
REMARK                            x       y       z     vdW  Elec       q    Type
REMARK                         _______ _______ _______ _____ _____    ______ ____
ROOT
ATOM      1  C   UNL     1       1.222   3.349  -0.218  0.00  0.00    +0.086 A 
ATOM      2  C   UNL     1       1.619   2.285  -1.059  0.00  0.00    +0.015 A 
ATOM      3  C   UNL     1       0.662   1.287  -0.933  0.00  0.00    +0.005 A 
ATOM      4  C   UNL     1      -0.204   1.737   0.019  0.00  0.00    +0.140 A 
ATOM      5  N   UNL     1       0.036   3.001   0.406  0.00  0.00    -0.274 N 
ATOM      6  C   UNL     1      -1.010   3.318   1.254  0.00  0.00    +0.167 A 
ATOM      7  N   UNL     1      -1.753   2.247   1.471  0.00  0.00    -0.151 NA
ATOM      8  N   UNL     1      -1.212   1.188   0.769  0.00  0.00    -0.246 N 
ATOM      9  C   UNL     1      -1.417  -0.255   0.676  0.00  0.00    +0.146 C 
ATOM     10  C   UNL     1      -1.906  -0.648  -0.704  0.00  0.00    +0.024 C 
ATOM     11  C   UNL     1      -1.059  -0.143  -1.884  0.00  0.00    +0.007 C 
ATOM     12  C   UNL     1       0.455  -0.037  -1.645  0.00  0.00    +0.039 C 
ENDROOT
BRANCH   6  13
ATOM     13  C   UNL     1      -1.260   4.657   1.831  0.00  0.00    +0.020 A 
ATOM     14  C   UNL     1      -0.656   5.784   1.274  0.00  0.00    +0.011 A 
ATOM     15  C   UNL     1      -0.897   7.031   1.814  0.00  0.00    +0.001 A 
ATOM     16  C   UNL     1      -1.728   7.163   2.913  0.00  0.00    +0.000 A 
ATOM     17  C   UNL     1      -2.325   6.048   3.473  0.00  0.00    +0.001 A 
ATOM     18  C   UNL     1      -2.096   4.797   2.939  0.00  0.00    +0.011 A 
ENDBRANCH   6  13
BRANCH   2  19
ATOM     19  C   UNL     1       2.829   2.242  -1.913  0.00  0.00    -0.015 A 
ATOM     20  C   UNL     1       3.840   1.320  -1.649  0.00  0.00    +0.008 A 
ATOM     21  C   UNL     1       4.962   1.281  -2.451  0.00  0.00    +0.001 A 
ATOM     22  C   UNL     1       5.090   2.163  -3.510  0.00  0.00    +0.000 A 
ATOM     23  C   UNL     1       4.092   3.084  -3.774  0.00  0.00    +0.001 A 
ATOM     24  C   UNL     1       2.963   3.128  -2.982  0.00  0.00    +0.008 A 
ENDBRANCH   2  19
BRANCH   1  25
ATOM     25  C   UNL     1       1.918   4.563  -0.043  0.00  0.00    +0.101 C 
ATOM     26  S   UNL     1       3.089   4.707   1.198  0.00  0.00    -0.033 S 
BRANCH  25  27
ATOM     27  N   UNL     1       1.661   5.609  -0.853  0.00  0.00    -0.307 N 
ATOM     28  H   UNL     1       0.852   5.545  -1.595  0.00  0.00    +0.153 HD
BRANCH  27  34
ATOM     29  C   UNL     1       4.310   9.139  -3.018  0.00  0.00    +0.044 C 
ATOM     30  C   UNL     1       3.719   8.510  -1.782  0.00  0.00    -0.046 A 
ATOM     31  C   UNL     1       3.932   9.087  -0.544  0.00  0.00    +0.004 A 
ATOM     32  C   UNL     1       3.392   8.513   0.592  0.00  0.00    +0.002 A 
ATOM     33  C   UNL     1       2.639   7.359   0.493  0.00  0.00    +0.023 A 
ATOM     34  C   UNL     1       2.423   6.777  -0.749  0.00  0.00    +0.035 A 
ATOM     35  C   UNL     1       2.972   7.353  -1.888  0.00  0.00    -0.026 A 
ATOM     36  C   UNL     1       2.746   6.721  -3.237  0.00  0.00    +0.046 C 
ENDBRANCH  27  34
ENDBRANCH  25  27
ENDBRANCH   1  25
TORSDOF 5
