REMARK  Name = ZINC08762677
REMARK  13 active torsions:
REMARK  status: ('A' for Active; 'I' for Inactive)
REMARK    1  A    between atoms: C_1  and  C_2
REMARK    2  A    between atoms: C_2  and  C_3
REMARK    3  A    between atoms: C_2  and  C_4
REMARK    4  A    between atoms: C_2  and  O_11
REMARK    5  A    between atoms: C_4  and  C_5
REMARK    6  A    between atoms: O_11  and  C_12
REMARK    7  A    between atoms: N_14  and  C_15
REMARK    8  A    between atoms: C_15  and  C_17
REMARK    9  A    between atoms: C_15  and  C_24
REMARK   10  A    between atoms: C_17  and  C_18
REMARK   11  A    between atoms: C_24  and  O_26
REMARK   12  A    between atoms: O_26  and  C_27
REMARK   13  A    between atoms: C_27  and  C_28
REMARK                            x       y       z     vdW  Elec       q    Type
REMARK                         _______ _______ _______ _____ _____    ______ ____
ROOT
ATOM      1  C   UNL     1      -5.743   4.027  -2.259  0.00  0.00    +0.189 C 
ENDROOT
BRANCH   1   4
ATOM      2  C   UNL     1      -7.879   3.500  -3.307  0.00  0.00    +0.401 C 
ATOM      3  O   UNL     1      -7.431   3.912  -4.358  0.00  0.00    -0.226 OA
ATOM      4  N   UNL     1      -7.114   3.514  -2.197  0.00  0.00    -0.268 N 
ATOM      5  H   UNL     1      -7.471   3.185  -1.357  0.00  0.00    +0.153 HD
BRANCH   2   6
ATOM      6  O   UNL     1      -9.138   3.028  -3.250  0.00  0.00    -0.444 OA
BRANCH   6   8
ATOM      7  C   UNL     1     -10.026   4.481  -4.991  0.00  0.00    +0.056 C 
ATOM      8  C   UNL     1      -9.904   3.043  -4.483  0.00  0.00    +0.113 C 
ATOM      9  C   UNL     1      -9.193   2.189  -5.535  0.00  0.00    +0.056 C 
BRANCH   8  10
ATOM     10  C   UNL     1     -11.300   2.474  -4.224  0.00  0.00    +0.082 C 
BRANCH  10  11
ATOM     11  C   UNL     1     -12.046   3.382  -3.281  0.00  0.00    -0.044 A 
ATOM     12  C   UNL     1     -11.967   3.177  -1.916  0.00  0.00    +0.004 A 
ATOM     13  C   UNL     1     -12.647   4.014  -1.051  0.00  0.00    +0.000 A 
ATOM     14  C   UNL     1     -13.414   5.049  -1.551  0.00  0.00    +0.000 A 
ATOM     15  C   UNL     1     -13.498   5.251  -2.916  0.00  0.00    +0.000 A 
ATOM     16  C   UNL     1     -12.814   4.418  -3.781  0.00  0.00    +0.004 A 
ENDBRANCH  10  11
ENDBRANCH   8  10
ENDBRANCH   6   8
ENDBRANCH   2   6
ENDBRANCH   1   4
BRANCH   1  17
ATOM     17  C   UNL     1      -4.925   3.408  -1.155  0.00  0.00    +0.328 C 
ATOM     18  O   UNL     1      -5.434   2.619  -0.395  0.00  0.00    -0.249 OA
BRANCH  17  19
ATOM     19  O   UNL     1      -3.630   3.733  -1.017  0.00  0.00    -0.463 OA
BRANCH  19  20
ATOM     20  C   UNL     1      -2.903   3.098   0.068  0.00  0.00    +0.234 C 
BRANCH  20  21
ATOM     21  C   UNL     1      -1.454   3.589   0.067  0.00  0.00    +0.013 C 
ATOM     22  C   UNL     1      -0.760   3.122  -1.214  0.00  0.00    +0.003 C 
ATOM     23  C   UNL     1      -0.747   1.589  -1.234  0.00  0.00    -0.018 C 
ATOM     24  C   UNL     1      -0.013   1.086   0.008  0.00  0.00    -0.078 C 
ATOM     25  C   UNL     1      -0.724   3.023   1.290  0.00  0.00    -0.062 C 
ATOM     26  C   UNL     1      -1.476   3.477   2.545  0.00  0.00    -0.015 C 
ATOM     27  C   UNL     1      -0.807   2.896   3.791  0.00  0.00    -0.003 C 
ATOM     28  C   UNL     1      -0.794   1.368   3.674  0.00  0.00    -0.019 C 
ATOM     29  C   UNL     1      -0.036   0.978   2.405  0.00  0.00    -0.078 C 
ATOM     30  N   UNL     1      -0.714   1.539   1.224  0.00  0.00    +0.382 N 
ATOM     31  H   UNL     1      -1.683   1.201   1.199  0.00  0.00    -0.081 HD
ENDBRANCH  20  21
ENDBRANCH  19  20
ENDBRANCH  17  19
ENDBRANCH   1  17
BRANCH   1  32
ATOM     32  C   UNL     1      -5.760   5.548  -2.090  0.00  0.00    +0.069 C 
BRANCH  32  33
ATOM     33  C   UNL     1      -6.473   6.176  -3.259  0.00  0.00    -0.045 A 
ATOM     34  C   UNL     1      -5.762   6.546  -4.385  0.00  0.00    +0.004 A 
ATOM     35  C   UNL     1      -6.418   7.118  -5.460  0.00  0.00    +0.000 A 
ATOM     36  C   UNL     1      -7.783   7.328  -5.404  0.00  0.00    +0.000 A 
ATOM     37  C   UNL     1      -8.493   6.962  -4.276  0.00  0.00    +0.000 A 
ATOM     38  C   UNL     1      -7.838   6.386  -3.204  0.00  0.00    +0.004 A 
ENDBRANCH  32  33
ENDBRANCH   1  32
TORSDOF 11
