REMARK  Name = ZINC21223740
REMARK  8 active torsions:
REMARK  status: ('A' for Active; 'I' for Inactive)
REMARK    1  A    between atoms: C_1  and  C_2
REMARK    2  A    between atoms: C_2  and  C_3
REMARK    3  A    between atoms: C_3  and  O_4
REMARK    4  A    between atoms: O_4  and  C_5
REMARK    5  A    between atoms: C_6  and  C_13
REMARK    6  A    between atoms: C_10  and  O_11
REMARK    7  A    between atoms: O_11  and  C_12
REMARK    8  A    between atoms: C_18  and  C_23
REMARK                            x       y       z     vdW  Elec       q    Type
REMARK                         _______ _______ _______ _____ _____    ______ ____
ROOT
ATOM      1  C   UNL     1      -1.004  -1.141  -0.152  0.00  0.00    +0.140 C 
ATOM      2  C   UNL     1      -1.611  -1.267   1.226  0.00  0.00    +0.037 C 
ATOM      3  C   UNL     1      -1.540  -2.339   2.027  0.00  0.00    +0.017 C 
ATOM      4  C   UNL     1      -2.206  -2.329   3.393  0.00  0.00    +0.059 C 
ATOM      5  C   UNL     1      -2.200  -0.914   3.968  0.00  0.00    +0.032 C 
ATOM      6  C   UNL     1      -2.963  -0.010   2.992  0.00  0.00    +0.088 C 
ATOM      7  C   UNL     1      -2.308  -0.105   1.646  0.00  0.00    +0.163 C 
ATOM      8  O   UNL     1      -2.377   0.845   0.892  0.00  0.00    -0.292 OA
ATOM      9  N   UNL     1      -0.911  -3.501   1.714  0.00  0.00    -0.316 N 
ATOM     10  C   UNL     1       0.364  -3.594   1.163  0.00  0.00    +0.052 A 
ATOM     11  C   UNL     1       1.412  -4.213   1.820  0.00  0.00    +0.025 A 
ATOM     12  C   UNL     1       2.631  -4.345   1.177  0.00  0.00    +0.002 A 
ATOM     13  C   UNL     1       2.797  -3.861  -0.107  0.00  0.00    +0.002 A 
ATOM     14  C   UNL     1       1.756  -3.220  -0.756  0.00  0.00    +0.025 A 
ATOM     15  C   UNL     1       0.539  -3.069  -0.108  0.00  0.00    +0.049 A 
ATOM     16  N   UNL     1      -0.518  -2.387  -0.704  0.00  0.00    -0.331 N 
ATOM     17  H   UNL     1      -1.412  -4.463   1.893  0.00  0.00    +0.152 HD
ATOM     18  H   UNL     1      -0.986  -2.808  -1.607  0.00  0.00    +0.147 HD
ENDROOT
BRANCH   5  19
ATOM     19  C   UNL     1      -2.882  -0.906   5.312  0.00  0.00    -0.043 A 
ATOM     20  C   UNL     1      -4.205  -1.293   5.417  0.00  0.00    +0.007 A 
ATOM     21  C   UNL     1      -4.830  -1.292   6.650  0.00  0.00    +0.038 A 
ATOM     22  C   UNL     1      -4.134  -0.891   7.778  0.00  0.00    +0.123 A 
ATOM     23  C   UNL     1      -2.811  -0.498   7.670  0.00  0.00    +0.038 A 
ATOM     24  C   UNL     1      -2.186  -0.505   6.437  0.00  0.00    +0.007 A 
ATOM     25  F   UNL     1      -4.745  -0.884   8.982  0.00  0.00    -0.205 F 
ENDBRANCH   5  19
BRANCH   1  27
ATOM     26  C   UNL     1       0.583   0.471  -1.229  0.00  0.00    +0.167 A 
ATOM     27  C   UNL     1       0.145  -0.169  -0.081  0.00  0.00    +0.023 A 
ATOM     28  C   UNL     1       0.762   0.084   1.130  0.00  0.00    +0.009 A 
ATOM     29  C   UNL     1       1.817   0.975   1.198  0.00  0.00    +0.004 A 
ATOM     30  C   UNL     1       2.259   1.617   0.057  0.00  0.00    +0.049 A 
ATOM     31  C   UNL     1       1.644   1.368  -1.160  0.00  0.00    +0.162 A 
BRANCH  31  32
ATOM     32  O   UNL     1       2.078   1.998  -2.284  0.00  0.00    -0.491 OA
ATOM     33  C   UNL     1       3.172   2.906  -2.138  0.00  0.00    +0.277 C 
ENDBRANCH  31  32
BRANCH  26  34
ATOM     34  O   UNL     1      -0.019   0.218  -2.422  0.00  0.00    -0.488 OA
BRANCH  34  35
ATOM     35  C   UNL     1      -1.050   1.119  -2.832  0.00  0.00    +0.229 C 
BRANCH  35  37
ATOM     36  C   UNL     1      -2.872   1.506  -4.498  0.00  0.00    +0.007 C 
ATOM     37  C   UNL     1      -1.693   0.605  -4.122  0.00  0.00    +0.038 C 
ENDBRANCH  35  37
ENDBRANCH  34  35
ENDBRANCH  26  34
ENDBRANCH   1  27
TORSDOF 6
