REMARK  Name = ZINC04541965
REMARK  6 active torsions:
REMARK  status: ('A' for Active; 'I' for Inactive)
REMARK    1  A    between atoms: C_1  and  C_2
REMARK    2  A    between atoms: C_3  and  C_22
REMARK    3  A    between atoms: C_4  and  C_10
REMARK    4  A    between atoms: C_13  and  C_15
REMARK    5  A    between atoms: C_22  and  O_24
REMARK    6  A    between atoms: O_24  and  C_25
REMARK                            x       y       z     vdW  Elec       q    Type
REMARK                         _______ _______ _______ _____ _____    ______ ____
ROOT
ATOM      1  C   UNL     1      -1.251   6.754  -2.997  0.00  0.00    +0.061 C 
ATOM      2  C   UNL     1      -1.231   6.196  -1.598  0.00  0.00    +0.019 C 
ATOM      3  C   UNL     1      -1.864   5.031  -1.338  0.00  0.00    +0.081 C 
ATOM      4  C   UNL     1      -1.819   4.506   0.083  0.00  0.00    +0.177 C 
ATOM      5  N   UNL     1      -1.083   5.314   1.070  0.00  0.00    -0.312 N 
ATOM      6  C   UNL     1      -0.502   6.458   0.656  0.00  0.00    +0.135 C 
ATOM      7  S   UNL     1       0.356   7.408   1.793  0.00  0.00    -0.019 S 
ATOM      8  N   UNL     1      -0.574   6.875  -0.614  0.00  0.00    -0.300 N 
ATOM      9  H   UNL     1      -1.019   5.031   1.995  0.00  0.00    +0.149 HD
ATOM     10  H   UNL     1      -0.134   7.707  -0.847  0.00  0.00    +0.154 HD
ENDROOT
BRANCH   4  11
ATOM     11  C   UNL     1      -1.198   3.133   0.051  0.00  0.00    +0.131 A 
ATOM     12  C   UNL     1      -1.870   1.966   0.086  0.00  0.00    +0.047 A 
ATOM     13  C   UNL     1      -0.910   0.935   0.041  0.00  0.00    +0.050 A 
ATOM     14  C   UNL     1       0.307   1.537  -0.029  0.00  0.00    +0.136 A 
ATOM     15  O   UNL     1       0.117   2.870  -0.022  0.00  0.00    -0.457 OA
BRANCH  14  16
ATOM     16  C   UNL     1       1.613   0.847  -0.101  0.00  0.00    +0.031 A 
ATOM     17  C   UNL     1       2.541   1.204  -1.080  0.00  0.00    +0.012 A 
ATOM     18  C   UNL     1       3.757   0.557  -1.142  0.00  0.00    +0.001 A 
ATOM     19  C   UNL     1       4.059  -0.445  -0.236  0.00  0.00    +0.001 A 
ATOM     20  C   UNL     1       3.144  -0.804   0.737  0.00  0.00    +0.016 A 
ATOM     21  C   UNL     1       1.925  -0.160   0.814  0.00  0.00    +0.029 A 
ATOM     22 BR   UNL     1       0.679  -0.647   2.151  0.00  0.00    -0.050 Br
ENDBRANCH  14  16
ENDBRANCH   4  11
BRANCH   3  23
ATOM     23  C   UNL     1      -2.546   4.326  -2.357  0.00  0.00    +0.339 C 
ATOM     24  O   UNL     1      -2.667   4.820  -3.462  0.00  0.00    -0.245 OA
BRANCH  23  25
ATOM     25  O   UNL     1      -3.063   3.105  -2.103  0.00  0.00    -0.465 OA
ATOM     26  C   UNL     1      -3.739   2.451  -3.178  0.00  0.00    +0.280 C 
ENDBRANCH  23  25
ENDBRANCH   3  23
TORSDOF 4
