REMARK  Name = ZINC23074328
REMARK  8 active torsions:
REMARK  status: ('A' for Active; 'I' for Inactive)
REMARK    1  A    between atoms: C_1  and  C_2
REMARK    2  A    between atoms: C_2  and  C_3
REMARK    3  A    between atoms: C_2  and  C_4
REMARK    4  A    between atoms: C_7  and  C_10
REMARK    5  A    between atoms: C_12  and  C_15
REMARK    6  A    between atoms: N_23  and  C_24
REMARK    7  A    between atoms: C_24  and  C_25
REMARK    8  A    between atoms: C_24  and  C_26
REMARK                            x       y       z     vdW  Elec       q    Type
REMARK                         _______ _______ _______ _____ _____    ______ ____
ROOT
ATOM      1  C   UNL     1      -2.343   4.169  -0.191  0.00  0.00    +0.109 A 
ATOM      2  N   UNL     1      -1.190   3.529  -0.165  0.00  0.00    -0.234 NA
ATOM      3  C   UNL     1      -1.166   2.208  -0.064  0.00  0.00    +0.136 A 
ATOM      4  C   UNL     1      -2.366   1.523   0.007  0.00  0.00    +0.080 A 
ATOM      5  S   UNL     1      -3.513   2.825  -0.065  0.00  0.00    -0.075 S 
ENDROOT
BRANCH   3   6
ATOM      6  C   UNL     1       0.114   1.482  -0.035  0.00  0.00    +0.283 C 
ATOM      7  O   UNL     1       0.123   0.267  -0.016  0.00  0.00    -0.265 OA
ATOM      8  N   UNL     1       1.276   2.165  -0.034  0.00  0.00    -0.268 N 
ATOM      9  C   UNL     1       1.384   3.330  -0.744  0.00  0.00    +0.096 A 
ATOM     10  C   UNL     1       2.538   4.026  -0.754  0.00  0.00    +0.018 A 
ATOM     11  C   UNL     1       3.655   3.565  -0.033  0.00  0.00    +0.005 A 
ATOM     12  C   UNL     1       3.571   2.412   0.678  0.00  0.00    +0.044 A 
ATOM     13  C   UNL     1       2.353   1.690   0.687  0.00  0.00    +0.114 A 
ATOM     14  N   UNL     1       2.249   0.574   1.374  0.00  0.00    -0.368 N 
ATOM     15  H   UNL     1       1.336  -0.035   1.300  0.00  0.00    +0.161 HD
BRANCH  14  16
ATOM     16  C   UNL     1       3.351   0.140   2.237  0.00  0.00    +0.074 C 
ATOM     17  C   UNL     1       2.893   0.160   3.697  0.00  0.00    +0.030 C 
ATOM     18  C   UNL     1       3.770  -1.280   1.853  0.00  0.00    +0.030 C 
ENDBRANCH  14  16
ENDBRANCH   3   6
BRANCH   1  22
ATOM     19  C   UNL     1      -3.083   8.341  -0.494  0.00  0.00    -0.045 A 
ATOM     20  C   UNL     1      -4.144   7.458  -0.406  0.00  0.00    +0.004 A 
ATOM     21  C   UNL     1      -3.911   6.102  -0.308  0.00  0.00    +0.011 A 
ATOM     22  C   UNL     1      -2.601   5.622  -0.297  0.00  0.00    +0.007 A 
ATOM     23  C   UNL     1      -1.535   6.518  -0.380  0.00  0.00    +0.011 A 
ATOM     24  C   UNL     1      -1.782   7.871  -0.484  0.00  0.00    +0.004 A 
BRANCH  19  26
ATOM     25  C   UNL     1      -2.700  10.541   0.584  0.00  0.00    +0.012 C 
ATOM     26  C   UNL     1      -3.346   9.821  -0.602  0.00  0.00    +0.013 C 
ATOM     27  C   UNL     1      -2.749  10.351  -1.907  0.00  0.00    +0.012 C 
ENDBRANCH  19  26
ENDBRANCH   1  22
TORSDOF 4
