REMARK  Name = ZINC67224659
REMARK  9 active torsions:
REMARK  status: ('A' for Active; 'I' for Inactive)
REMARK    1  A    between atoms: C_3  and  O_8
REMARK    2  A    between atoms: O_8  and  C_9
REMARK    3  A    between atoms: C_9  and  C_10
REMARK    4  A    between atoms: C_10  and  C_12
REMARK    5  A    between atoms: C_10  and  O_25
REMARK    6  A    between atoms: C_12  and  N_13
REMARK    7  A    between atoms: N_13  and  C_14
REMARK    8  A    between atoms: C_14  and  C_15
REMARK    9  A    between atoms: C_19  and  N_21
REMARK                            x       y       z     vdW  Elec       q    Type
REMARK                         _______ _______ _______ _____ _____    ______ ____
ROOT
ATOM      1  N   UNL     1       8.400   2.396  -0.193  0.00  0.00    +0.383 N 
ATOM      2  H   UNL     1       8.318   3.037  -0.968  0.00  0.00    -0.085 HD
ATOM      3  H   UNL     1       8.422   2.916   0.672  0.00  0.00    -0.085 HD
ENDROOT
BRANCH   1   4
ATOM      4  C   UNL     1       7.247   1.485  -0.186  0.00  0.00    -0.047 C 
BRANCH   4   5
ATOM      5  C   UNL     1       5.957   2.295  -0.043  0.00  0.00    +0.135 C 
BRANCH   5   6
ATOM      6  O   UNL     1       5.990   3.031   1.181  0.00  0.00    -0.390 OA
ATOM      7  H   UNL     1       6.068   2.478   1.970  0.00  0.00    +0.210 HD
ENDBRANCH   5   6
BRANCH   5   8
ATOM      8  C   UNL     1       4.757   1.346  -0.037  0.00  0.00    +0.258 C 
BRANCH   8   9
ATOM      9  O   UNL     1       3.548   2.107  -0.021  0.00  0.00    -0.489 OA
BRANCH   9  12
ATOM     10  C   UNL     1      -0.017   1.378   0.010  0.00  0.00    +0.006 A 
ATOM     11  C   UNL     1       1.169   2.087   0.002  0.00  0.00    +0.046 A 
ATOM     12  C   UNL     1       2.381   1.411  -0.013  0.00  0.00    +0.123 A 
ATOM     13  C   UNL     1       2.400   0.024  -0.021  0.00  0.00    +0.084 A 
ATOM     14  C   UNL     1       1.210  -0.682  -0.013  0.00  0.00    +0.127 A 
ATOM     15  C   UNL     1       0.002  -0.004   0.002  0.00  0.00    +0.038 A 
ATOM     16  F   UNL     1       1.226  -2.033  -0.021  0.00  0.00    -0.205 F 
ENDBRANCH   9  12
ENDBRANCH   8   9
ENDBRANCH   5   8
ENDBRANCH   4   5
ENDBRANCH   1   4
BRANCH   1  17
ATOM     17  C   UNL     1       9.638   1.618  -0.329  0.00  0.00    -0.047 C 
BRANCH  17  18
ATOM     18  C   UNL     1      10.820   2.553  -0.336  0.00  0.00    -0.062 A 
ATOM     19  C   UNL     1      11.283   3.074  -1.530  0.00  0.00    +0.003 A 
ATOM     20  C   UNL     1      12.366   3.932  -1.537  0.00  0.00    +0.018 A 
ATOM     21  C   UNL     1      12.989   4.269  -0.348  0.00  0.00    +0.048 A 
ATOM     22  C   UNL     1      12.526   3.748   0.846  0.00  0.00    +0.140 A 
ATOM     23  C   UNL     1      11.439   2.894   0.852  0.00  0.00    +0.035 A 
ATOM     24 BR   UNL     1      14.472   5.442  -0.357  0.00  0.00    -0.048 Br
BRANCH  22  25
ATOM     25  N   UNL     1      13.192   4.108   2.118  0.00  0.00    +0.058 N 
ATOM     26  O   UNL     1      12.787   3.652   3.162  0.00  0.00    -0.126 OA
ATOM     27  O   UNL     1      14.140   4.858   2.113  0.00  0.00    -0.126 OA
ENDBRANCH  22  25
ENDBRANCH  17  18
ENDBRANCH   1  17
TORSDOF 9
