REMARK  Name = ZINC56683122
REMARK  7 active torsions:
REMARK  status: ('A' for Active; 'I' for Inactive)
REMARK    1  A    between atoms: C_1  and  C_2
REMARK    2  A    between atoms: C_2  and  C_3
REMARK    3  A    between atoms: N_12  and  C_13
REMARK    4  A    between atoms: C_15  and  C_20
REMARK    5  A    between atoms: N_22  and  C_23
REMARK    6  A    between atoms: C_23  and  C_24
REMARK    7  A    between atoms: C_23  and  C_25
REMARK                            x       y       z     vdW  Elec       q    Type
REMARK                         _______ _______ _______ _____ _____    ______ ____
ROOT
ATOM      1  C   UNL     1       5.151   0.336  -4.992  0.00  0.00    +0.054 A 
ATOM      2  C   UNL     1       5.312   1.682  -4.706  0.00  0.00    +0.038 A 
ATOM      3  C   UNL     1       6.135   2.468  -5.513  0.00  0.00    +0.039 A 
ATOM      4  C   UNL     1       6.791   1.893  -6.603  0.00  0.00    +0.014 A 
ATOM      5  C   UNL     1       6.625   0.552  -6.880  0.00  0.00    +0.022 A 
ATOM      6  C   UNL     1       5.813  -0.229  -6.077  0.00  0.00    +0.062 A 
ATOM      7 CL   UNL     1       5.615  -1.917  -6.428  0.00  0.00    -0.082 Cl
ENDROOT
BRANCH   1  16
ATOM      8  C   UNL     1       0.379  -0.622  -1.737  0.00  0.00    +0.006 C 
ATOM      9  C   UNL     1       0.477  -2.144  -1.616  0.00  0.00    +0.006 C 
ATOM     10  C   UNL     1       1.383  -2.689  -2.722  0.00  0.00    +0.019 C 
ATOM     11  C   UNL     1       2.788  -2.100  -2.562  0.00  0.00    +0.109 C 
ATOM     12  N   UNL     1       2.686  -0.635  -2.532  0.00  0.00    -0.285 N 
ATOM     13  C   UNL     1       1.772  -0.009  -1.567  0.00  0.00    +0.112 C 
ATOM     14  C   UNL     1       3.417   0.122  -3.375  0.00  0.00    +0.306 C 
ATOM     15  O   UNL     1       3.256   1.327  -3.406  0.00  0.00    -0.252 OA
ATOM     16  N   UNL     1       4.326  -0.457  -4.184  0.00  0.00    -0.268 N 
ATOM     17  H   UNL     1       4.409  -1.423  -4.207  0.00  0.00    +0.156 HD
BRANCH   8  19
ATOM     18  C   UNL     1      -0.748   1.423  -0.848  0.00  0.00    +0.004 C 
ATOM     19  C   UNL     1      -0.553  -0.081  -0.651  0.00  0.00    +0.002 C 
ENDBRANCH   8  19
ENDBRANCH   1  16
BRANCH   3  20
ATOM     20  C   UNL     1       6.311   3.905  -5.215  0.00  0.00    +0.244 C 
ATOM     21  O   UNL     1       5.738   4.404  -4.266  0.00  0.00    -0.270 OA
ATOM     22  N   UNL     1       7.107   4.662  -5.996  0.00  0.00    -0.309 N 
ATOM     23  H   UNL     1       7.564   4.264  -6.754  0.00  0.00    +0.149 HD
BRANCH  22  24
ATOM     24  C   UNL     1       7.282   6.087  -5.701  0.00  0.00    +0.067 C 
ATOM     25  C   UNL     1       8.388   6.259  -4.658  0.00  0.00    +0.027 C 
ATOM     26  C   UNL     1       7.667   6.829  -6.981  0.00  0.00    +0.027 C 
ENDBRANCH  22  24
ENDBRANCH   3  20
TORSDOF 4
