REMARK  Name = ZINC40416999
REMARK  5 active torsions:
REMARK  status: ('A' for Active; 'I' for Inactive)
REMARK    1  A    between atoms: C_3  and  C_8
REMARK    2  A    between atoms: C_13  and  C_15
REMARK    3  A    between atoms: C_15  and  N_16
REMARK    4  A    between atoms: N_19  and  C_22
REMARK    5  A    between atoms: C_29  and  C_31
REMARK                            x       y       z     vdW  Elec       q    Type
REMARK                         _______ _______ _______ _____ _____    ______ ____
ROOT
ATOM      1  C   UNL     1       3.701   2.110  -0.135  0.00  0.00    +0.039 C 
ATOM      2  C   UNL     1       4.545   1.771   1.112  0.00  0.00    +0.116 C 
ATOM      3  N   UNL     1       5.490   0.727   0.651  0.00  0.00    -0.296 N 
ATOM      4  C   UNL     1       5.885   1.164  -0.708  0.00  0.00    +0.110 C 
ATOM      5  C   UNL     1       4.583   1.712  -1.337  0.00  0.00    -0.001 C 
ATOM      6  C   UNL     1       5.897  -0.372   1.317  0.00  0.00    +0.253 C 
ATOM      7  O   UNL     1       6.602  -1.194   0.761  0.00  0.00    -0.269 OA
ENDROOT
BRANCH   1  10
ATOM      8  C   UNL     1       0.030   1.228  -0.186  0.00  0.00    +0.003 A 
ATOM      9  C   UNL     1       1.203   1.960  -0.185  0.00  0.00    +0.004 A 
ATOM     10  C   UNL     1       2.423   1.311  -0.136  0.00  0.00    -0.040 A 
ATOM     11  C   UNL     1       2.471  -0.069  -0.088  0.00  0.00    +0.042 A 
ATOM     12  C   UNL     1       1.297  -0.803  -0.089  0.00  0.00    +0.124 A 
ATOM     13  C   UNL     1       0.076  -0.152  -0.137  0.00  0.00    +0.038 A 
ATOM     14  F   UNL     1       1.343  -2.152  -0.042  0.00  0.00    -0.205 F 
ENDBRANCH   1  10
BRANCH   6  15
ATOM     15  C   UNL     1       5.492  -0.577   2.710  0.00  0.00    +0.074 A 
ATOM     16  C   UNL     1       5.873  -1.575   3.594  0.00  0.00    +0.021 A 
ATOM     17  C   UNL     1       5.320  -1.504   4.850  0.00  0.00    +0.008 A 
ATOM     18  C   UNL     1       4.463  -0.493   5.136  0.00  0.00    +0.046 A 
ATOM     19  S   UNL     1       4.386   0.398   3.714  0.00  0.00    -0.092 S 
ENDBRANCH   6  15
BRANCH   5  20
ATOM     20  C   UNL     1       4.883   2.936  -2.205  0.00  0.00    -0.073 C 
BRANCH  20  21
ATOM     21  N   UNL     1       5.621   2.517  -3.404  0.00  0.00    +0.382 N 
ATOM     22  C   UNL     1       4.767   1.647  -4.223  0.00  0.00    -0.060 C 
ATOM     23  C   UNL     1       5.572   1.118  -5.414  0.00  0.00    +0.086 C 
ATOM     24  N   UNL     1       6.143   2.264  -6.138  0.00  0.00    -0.333 N 
ATOM     25  C   UNL     1       6.879   3.276  -5.364  0.00  0.00    +0.086 C 
ATOM     26  C   UNL     1       6.012   3.704  -4.175  0.00  0.00    -0.060 C 
ATOM     27  H   UNL     1       6.448   2.009  -3.128  0.00  0.00    -0.082 HD
BRANCH  24  28
ATOM     28  C   UNL     1       5.990   2.389  -7.522  0.00  0.00    +0.030 A 
ATOM     29  C   UNL     1       6.631   3.416  -8.203  0.00  0.00    +0.026 A 
ATOM     30  C   UNL     1       6.479   3.537  -9.570  0.00  0.00    +0.040 A 
ATOM     31  C   UNL     1       5.687   2.636 -10.262  0.00  0.00    +0.124 A 
ATOM     32  C   UNL     1       5.047   1.611  -9.585  0.00  0.00    +0.040 A 
ATOM     33  C   UNL     1       5.201   1.483  -8.219  0.00  0.00    +0.026 A 
ATOM     34  F   UNL     1       5.539   2.756 -11.600  0.00  0.00    -0.205 F 
ENDBRANCH  24  28
ENDBRANCH  20  21
ENDBRANCH   5  20
TORSDOF 5
