REMARK  Name = ZINC20758605
REMARK  9 active torsions:
REMARK  status: ('A' for Active; 'I' for Inactive)
REMARK    1  A    between atoms: C_1  and  C_2
REMARK    2  A    between atoms: C_2  and  C_3
REMARK    3  A    between atoms: C_3  and  C_5
REMARK    4  A    between atoms: C_3  and  N_6
REMARK    5  A    between atoms: C_7  and  C_9
REMARK    6  A    between atoms: C_9  and  S_10
REMARK    7  A    between atoms: S_10  and  C_11
REMARK    8  A    between atoms: C_15  and  C_19
REMARK    9  A    between atoms: N_22  and  C_23
REMARK                            x       y       z     vdW  Elec       q    Type
REMARK                         _______ _______ _______ _____ _____    ______ ____
ROOT
ATOM      1  C   UNL     1       0.174   0.961   2.735  0.00  0.00    +0.177 A 
ATOM      2  N   UNL     1       1.209   0.250   2.358  0.00  0.00    -0.201 NA
ATOM      3  C   UNL     1       2.045  -0.323   3.236  0.00  0.00    +0.187 A 
ATOM      4  C   UNL     1       1.821  -0.167   4.611  0.00  0.00    +0.082 A 
ATOM      5  C   UNL     1       2.839  -0.865   5.284  0.00  0.00    +0.046 A 
ATOM      6  N   UNL     1       3.625  -1.406   4.394  0.00  0.00    -0.279 N 
ATOM      7  N   UNL     1       3.162  -1.091   3.110  0.00  0.00    -0.153 NA
ATOM      8  H   UNL     1       4.492  -2.001   4.715  0.00  0.00    +0.189 HD
ATOM      9  C   UNL     1       2.996  -0.970   6.779  0.00  0.00    +0.066 C 
ATOM     10  C   UNL     1       0.664   0.628   5.042  0.00  0.00    +0.124 A 
ATOM     11  N   UNL     1       0.398   0.813   6.312  0.00  0.00    -0.384 N 
ATOM     12  N   UNL     1      -0.133   1.180   4.051  0.00  0.00    -0.275 N 
ATOM     13  H   UNL     1      -0.474   1.413   6.609  0.00  0.00    +0.157 HD
ATOM     14  H   UNL     1       1.048   0.368   7.080  0.00  0.00    +0.157 HD
ENDROOT
BRANCH  12  15
ATOM     15  C   UNL     1      -1.249   1.954   4.394  0.00  0.00    +0.050 A 
ATOM     16  C   UNL     1      -1.081   3.162   5.057  0.00  0.00    +0.027 A 
ATOM     17  C   UNL     1      -2.183   3.925   5.390  0.00  0.00    +0.017 A 
ATOM     18  C   UNL     1      -3.455   3.481   5.072  0.00  0.00    +0.018 A 
ATOM     19  C   UNL     1      -3.626   2.275   4.416  0.00  0.00    +0.017 A 
ATOM     20  C   UNL     1      -2.526   1.510   4.076  0.00  0.00    +0.027 A 
ATOM     21 BR   UNL     1      -4.962   4.525   5.536  0.00  0.00    -0.050 Br
ENDBRANCH  12  15
BRANCH   1  22
ATOM     22  S   UNL     1      -0.860   1.670   1.497  0.00  0.00    -0.078 S 
BRANCH  22  23
ATOM     23  C   UNL     1      -0.013   1.086   0.008  0.00  0.00    +0.173 C 
BRANCH  23  25
ATOM     24  N   UNL     1      -0.288   1.273  -2.443  0.00  0.00    -0.312 N 
ATOM     25  C   UNL     1      -0.741   1.585  -1.213  0.00  0.00    +0.224 C 
ATOM     26  O   UNL     1      -1.736   2.268  -1.088  0.00  0.00    -0.275 OA
ATOM     27  H   UNL     1       0.614   0.653  -2.556  0.00  0.00    +0.149 HD
BRANCH  24  28
ATOM     28  C   UNL     1      -0.997   1.758  -3.630  0.00  0.00    +0.070 C 
ATOM     29  C   UNL     1      -0.514   3.169  -3.971  0.00  0.00    +0.028 C 
BRANCH  28  31
ATOM     30  C   UNL     1      -1.310  -0.556  -4.519  0.00  0.00    +0.005 C 
ATOM     31  C   UNL     1      -0.716   0.824  -4.809  0.00  0.00    +0.018 C 
ENDBRANCH  28  31
ENDBRANCH  24  28
ENDBRANCH  23  25
ENDBRANCH  22  23
ENDBRANCH   1  22
TORSDOF 6
