REMARK  Name = ZINC39916020
REMARK  16 active torsions:
REMARK  status: ('A' for Active; 'I' for Inactive)
REMARK    1  A    between atoms: C_1  and  C_2
REMARK    2  A    between atoms: C_2  and  C_3
REMARK    3  A    between atoms: C_2  and  C_4
REMARK    4  A    between atoms: C_2  and  C_5
REMARK    5  A    between atoms: C_8  and  O_11
REMARK    6  A    between atoms: O_11  and  C_12
REMARK    7  A    between atoms: C_12  and  C_13
REMARK    8  A    between atoms: C_13  and  C_14
REMARK    9  A    between atoms: C_14  and  N_15
REMARK   10  A    between atoms: C_23  and  S_24
REMARK   11  A    between atoms: S_24  and  C_25
REMARK   12  A    between atoms: C_27  and  O_40
REMARK   13  A    between atoms: C_29  and  O_39
REMARK   14  A    between atoms: C_31  and  O_38
REMARK   15  A    between atoms: C_33  and  C_36
REMARK   16  A    between atoms: C_36  and  O_37
REMARK                            x       y       z     vdW  Elec       q    Type
REMARK                         _______ _______ _______ _____ _____    ______ ____
ROOT
ATOM      1  N   UNL     1       6.523  -2.143  -7.537  0.00  0.00    -0.318 N 
ATOM      2  C   UNL     1       7.145  -3.371  -7.690  0.00  0.00    +0.069 A 
ATOM      3  C   UNL     1       7.466  -4.401  -6.819  0.00  0.00    +0.028 A 
ATOM      4  C   UNL     1       8.105  -5.528  -7.294  0.00  0.00    +0.002 A 
ATOM      5  C   UNL     1       8.428  -5.639  -8.638  0.00  0.00    +0.002 A 
ATOM      6  C   UNL     1       8.117  -4.626  -9.518  0.00  0.00    +0.030 A 
ATOM      7  C   UNL     1       7.470  -3.478  -9.053  0.00  0.00    +0.090 A 
ATOM      8  N   UNL     1       7.042  -2.339  -9.657  0.00  0.00    -0.222 NA
ATOM      9  C   UNL     1       6.480  -1.555  -8.770  0.00  0.00    +0.172 A 
ENDROOT
BRANCH   1  10
ATOM     10  C   UNL     1       6.002  -1.582  -6.288  0.00  0.00    +0.127 C 
BRANCH  10  11
ATOM     11  C   UNL     1       4.544  -2.009  -6.106  0.00  0.00    +0.063 C 
BRANCH  11  12
ATOM     12  C   UNL     1       4.000  -1.423  -4.801  0.00  0.00    +0.231 C 
BRANCH  12  13
ATOM     13  O   UNL     1       2.639  -1.822  -4.631  0.00  0.00    -0.492 OA
BRANCH  13  17
ATOM     14  C   UNL     1       0.707  -0.490  -1.238  0.00  0.00    -0.042 A 
ATOM     15  C   UNL     1       0.035  -1.284  -2.148  0.00  0.00    +0.008 A 
ATOM     16  C   UNL     1       0.679  -1.732  -3.285  0.00  0.00    +0.046 A 
ATOM     17  C   UNL     1       2.002  -1.383  -3.514  0.00  0.00    +0.121 A 
ATOM     18  C   UNL     1       2.675  -0.585  -2.599  0.00  0.00    +0.046 A 
ATOM     19  C   UNL     1       2.024  -0.136  -1.466  0.00  0.00    +0.008 A 
BRANCH  14  21
ATOM     20  C   UNL     1      -0.019   1.526   0.010  0.00  0.00    +0.015 C 
ATOM     21  C   UNL     1       0.002  -0.004   0.002  0.00  0.00    -0.013 C 
ATOM     22  C   UNL     1       0.742  -0.511   1.242  0.00  0.00    +0.015 C 
ATOM     23  C   UNL     1      -1.433  -0.534   0.013  0.00  0.00    +0.015 C 
ENDBRANCH  14  21
ENDBRANCH  13  17
ENDBRANCH  12  13
ENDBRANCH  11  12
ENDBRANCH  10  11
ENDBRANCH   1  10
BRANCH   9  24
ATOM     24  S   UNL     1       5.778   0.024  -9.114  0.00  0.00    -0.054 S 
BRANCH  24  25
ATOM     25  C   UNL     1       6.028   0.236 -10.899  0.00  0.00    +0.214 C 
ATOM     26  C   UNL     1       5.687   1.675 -11.295  0.00  0.00    +0.185 C 
ATOM     27  C   UNL     1       5.843   1.829 -12.811  0.00  0.00    +0.177 C 
ATOM     28  C   UNL     1       4.945   0.805 -13.512  0.00  0.00    +0.176 C 
ATOM     29  C   UNL     1       5.314  -0.600 -13.030  0.00  0.00    +0.176 C 
ATOM     30  O   UNL     1       5.178  -0.667 -11.609  0.00  0.00    -0.355 OA
BRANCH  28  31
ATOM     31  O   UNL     1       3.577   1.075 -13.198  0.00  0.00    -0.386 OA
ATOM     32  H   UNL     1       3.276   1.952 -13.471  0.00  0.00    +0.210 HD
ENDBRANCH  28  31
BRANCH  27  33
ATOM     33  O   UNL     1       5.458   3.150 -13.199  0.00  0.00    -0.386 OA
ATOM     34  H   UNL     1       5.983   3.849 -12.786  0.00  0.00    +0.210 HD
ENDBRANCH  27  33
BRANCH  26  35
ATOM     35  O   UNL     1       4.340   1.967 -10.919  0.00  0.00    -0.386 OA
ATOM     36  H   UNL     1       4.169   1.885  -9.971  0.00  0.00    +0.210 HD
ENDBRANCH  26  35
BRANCH  29  37
ATOM     37  C   UNL     1       4.382  -1.624 -13.681  0.00  0.00    +0.190 C 
BRANCH  37  38
ATOM     38  O   UNL     1       4.799  -2.943 -13.323  0.00  0.00    -0.392 OA
ATOM     39  H   UNL     1       4.252  -3.645 -13.701  0.00  0.00    +0.210 HD
ENDBRANCH  37  38
ENDBRANCH  29  37
ENDBRANCH  24  25
ENDBRANCH   9  24
TORSDOF 13
