REMARK  Name = ZINC33513641
REMARK  8 active torsions:
REMARK  status: ('A' for Active; 'I' for Inactive)
REMARK    1  A    between atoms: C_1  and  C_2
REMARK    2  A    between atoms: C_3  and  C_25
REMARK    3  A    between atoms: C_4  and  C_17
REMARK    4  A    between atoms: N_8  and  C_15
REMARK    5  A    between atoms: N_11  and  C_14
REMARK    6  A    between atoms: C_25  and  O_27
REMARK    7  A    between atoms: O_27  and  C_28
REMARK    8  A    between atoms: C_28  and  C_29
REMARK                            x       y       z     vdW  Elec       q    Type
REMARK                         _______ _______ _______ _____ _____    ______ ____
ROOT
ATOM      1  C   UNL     1      -6.551  -1.166   1.803  0.00  0.00    +0.061 C 
ATOM      2  C   UNL     1      -5.720  -0.830   3.014  0.00  0.00    +0.017 C 
ATOM      3  C   UNL     1      -4.496  -0.301   2.851  0.00  0.00    +0.065 C 
ATOM      4  C   UNL     1      -3.633   0.066   4.024  0.00  0.00    +0.096 C 
ATOM      5  C   UNL     1      -4.128  -0.592   5.281  0.00  0.00    +0.067 A 
ATOM      6  C   UNL     1      -5.382  -1.120   5.351  0.00  0.00    +0.116 A 
ATOM      7  N   UNL     1      -5.805  -1.709   6.518  0.00  0.00    -0.284 N 
ATOM      8  C   UNL     1      -4.987  -1.769   7.585  0.00  0.00    +0.333 A 
ATOM      9  O   UNL     1      -5.376  -2.293   8.610  0.00  0.00    -0.246 OA
ATOM     10  N   UNL     1      -3.744  -1.256   7.533  0.00  0.00    -0.264 N 
ATOM     11  C   UNL     1      -3.291  -0.668   6.409  0.00  0.00    +0.262 A 
ATOM     12  O   UNL     1      -2.164  -0.205   6.369  0.00  0.00    -0.267 OA
ATOM     13  C   UNL     1      -2.875  -1.338   8.710  0.00  0.00    +0.157 C 
ATOM     14  C   UNL     1      -7.154  -2.275   6.602  0.00  0.00    +0.155 C 
ATOM     15  N   UNL     1      -6.221  -1.071   4.264  0.00  0.00    -0.303 N 
ATOM     16  H   UNL     1      -7.301  -1.226   4.403  0.00  0.00    +0.153 HD
ENDROOT
BRANCH   4  17
ATOM     17  C   UNL     1      -3.656   1.562   4.206  0.00  0.00    -0.034 A 
ATOM     18  C   UNL     1      -2.480   2.285   4.129  0.00  0.00    +0.006 A 
ATOM     19  C   UNL     1      -2.500   3.657   4.297  0.00  0.00    +0.022 A 
ATOM     20  C   UNL     1      -3.697   4.307   4.541  0.00  0.00    +0.059 A 
ATOM     21  C   UNL     1      -4.874   3.583   4.618  0.00  0.00    +0.060 A 
ATOM     22  C   UNL     1      -4.853   2.210   4.445  0.00  0.00    +0.026 A 
ATOM     23 CL   UNL     1      -6.376   4.397   4.925  0.00  0.00    -0.082 Cl
ATOM     24 CL   UNL     1      -3.722   6.030   4.752  0.00  0.00    -0.082 Cl
ENDBRANCH   4  17
BRANCH   3  25
ATOM     25  C   UNL     1      -4.009  -0.080   1.542  0.00  0.00    +0.338 C 
ATOM     26  O   UNL     1      -3.243  -0.878   1.034  0.00  0.00    -0.245 OA
BRANCH  25  27
ATOM     27  O   UNL     1      -4.395   1.016   0.855  0.00  0.00    -0.457 OA
BRANCH  27  28
ATOM     28  C   UNL     1      -3.865   1.175  -0.463  0.00  0.00    +0.268 C 
BRANCH  28  29
ATOM     29  C   UNL     1      -4.402   2.445  -1.070  0.00  0.00    -0.010 A 
ATOM     30  C   UNL     1      -3.719   3.635  -0.901  0.00  0.00    +0.007 A 
ATOM     31  C   UNL     1      -4.210   4.799  -1.463  0.00  0.00    +0.000 A 
ATOM     32  C   UNL     1      -5.385   4.774  -2.189  0.00  0.00    +0.000 A 
ATOM     33  C   UNL     1      -6.071   3.585  -2.354  0.00  0.00    +0.000 A 
ATOM     34  C   UNL     1      -5.581   2.421  -1.792  0.00  0.00    +0.007 A 
ENDBRANCH  28  29
ENDBRANCH  27  28
ENDBRANCH  25  27
ENDBRANCH   3  25
TORSDOF 5
