REMARK  Name = ZINC13501126
REMARK  10 active torsions:
REMARK  status: ('A' for Active; 'I' for Inactive)
REMARK    1  A    between atoms: C_1  and  C_2
REMARK    2  A    between atoms: C_2  and  C_3
REMARK    3  A    between atoms: C_3  and  C_5
REMARK    4  A    between atoms: C_3  and  N_69
REMARK    5  A    between atoms: N_9  and  C_10
REMARK    6  A    between atoms: C_10  and  C_11
REMARK    7  A    between atoms: C_18  and  C_19
REMARK    8  A    between atoms: C_18  and  N_69
REMARK    9  A    between atoms: C_25  and  C_31
REMARK   10  A    between atoms: C_32  and  N_69
REMARK                            x       y       z     vdW  Elec       q    Type
REMARK                         _______ _______ _______ _____ _____    ______ ____
ROOT
ATOM      1  N   UNL     1       2.542  -2.855   5.684  0.00  0.00    +0.391 N 
ATOM      2  H   UNL     1       2.865  -1.881   5.677  0.00  0.00    -0.080 HD
ENDROOT
BRANCH   1   3
ATOM      3  C   UNL     1       3.399  -3.653   4.782  0.00  0.00    -0.067 C 
ATOM      4  C   UNL     1       4.627  -4.146   5.551  0.00  0.00    -0.015 C 
ATOM      5  C   UNL     1       5.529  -4.948   4.612  0.00  0.00    -0.002 C 
ATOM      6  C   UNL     1       5.978  -4.057   3.452  0.00  0.00    -0.000 C 
ATOM      7  C   UNL     1       4.751  -3.564   2.683  0.00  0.00    -0.002 C 
ATOM      8  C   UNL     1       3.848  -2.761   3.623  0.00  0.00    -0.015 C 
ENDBRANCH   1   3
BRANCH   1   9
ATOM      9  C   UNL     1       2.633  -3.381   7.063  0.00  0.00    +0.003 C 
BRANCH   9  10
ATOM     10  C   UNL     1       2.271  -2.277   8.023  0.00  0.00    +0.138 A 
ATOM     11  N   UNL     1       1.359  -1.352   7.845  0.00  0.00    -0.115 NA
ATOM     12  N   UNL     1       1.349  -0.597   8.889  0.00  0.00    -0.023 NA
ATOM     13  N   UNL     1       2.230  -1.016   9.728  0.00  0.00    -0.044 NA
ATOM     14  N   UNL     1       2.816  -2.054   9.233  0.00  0.00    -0.226 N 
BRANCH  14  15
ATOM     15  C   UNL     1       3.877  -2.839   9.868  0.00  0.00    +0.182 C 
BRANCH  15  16
ATOM     16  C   UNL     1       5.217  -2.231   9.540  0.00  0.00    -0.026 A 
ATOM     17  C   UNL     1       5.928  -2.676   8.441  0.00  0.00    +0.008 A 
ATOM     18  C   UNL     1       7.154  -2.116   8.137  0.00  0.00    +0.038 A 
ATOM     19  C   UNL     1       7.675  -1.115   8.939  0.00  0.00    +0.123 A 
ATOM     20  C   UNL     1       6.964  -0.672  10.042  0.00  0.00    +0.038 A 
ATOM     21  C   UNL     1       5.736  -1.231  10.341  0.00  0.00    +0.008 A 
ATOM     22  F   UNL     1       8.875  -0.569   8.645  0.00  0.00    -0.205 F 
ENDBRANCH  15  16
ENDBRANCH  14  15
ENDBRANCH   9  10
BRANCH   9  24
ATOM     23  C   UNL     1       2.119  -5.726   6.371  0.00  0.00    +0.002 C 
ATOM     24  C   UNL     1       1.672  -4.557   7.251  0.00  0.00    -0.011 C 
ENDBRANCH   9  24
ENDBRANCH   1   9
BRANCH   1  25
ATOM     25  C   UNL     1       1.140  -2.900   5.218  0.00  0.00    -0.036 C 
BRANCH  25  26
ATOM     26  C   UNL     1       1.023  -2.086   3.955  0.00  0.00    +0.001 A 
ATOM     27  C   UNL     1       0.992  -2.708   2.751  0.00  0.00    +0.017 A 
ATOM     28  C   UNL     1       0.878  -1.889   1.543  0.00  0.00    -0.001 A 
ATOM     29  C   UNL     1       0.842  -2.474   0.273  0.00  0.00    +0.010 A 
ATOM     30  C   UNL     1       0.735  -1.682  -0.835  0.00  0.00    +0.001 A 
ATOM     31  C   UNL     1       0.655  -0.301  -0.711  0.00  0.00    +0.005 A 
ATOM     32  C   UNL     1       0.695   0.297   0.530  0.00  0.00    -0.026 A 
ATOM     33  C   UNL     1       0.804  -0.490   1.672  0.00  0.00    +0.052 A 
ATOM     34  N   UNL     1       0.840   0.082   2.926  0.00  0.00    -0.322 N 
ATOM     35  H   UNL     1       0.788   1.046   3.014  0.00  0.00    +0.169 HD
ATOM     36  C   UNL     1       0.945  -0.679   4.030  0.00  0.00    +0.251 A 
ATOM     37  O   UNL     1       0.973  -0.139   5.123  0.00  0.00    -0.268 OA
ATOM     38  C   UNL     1       0.614   1.797   0.649  0.00  0.00    +0.046 C 
ENDBRANCH  25  26
ENDBRANCH   1  25
TORSDOF 8
