REMARK  Name = ZINC35784587
REMARK  11 active torsions:
REMARK  status: ('A' for Active; 'I' for Inactive)
REMARK    1  A    between atoms: C_1  and  C_2
REMARK    2  A    between atoms: C_5  and  C_9
REMARK    3  A    between atoms: C_7  and  C_8
REMARK    4  A    between atoms: C_12  and  C_15
REMARK    5  A    between atoms: N_19  and  C_20
REMARK    6  A    between atoms: C_21  and  C_23
REMARK    7  A    between atoms: C_23  and  N_24
REMARK    8  A    between atoms: N_24  and  C_25
REMARK    9  A    between atoms: N_24  and  C_26
REMARK   10  A    between atoms: C_26  and  C_27
REMARK   11  A    between atoms: C_26  and  C_28
REMARK                            x       y       z     vdW  Elec       q    Type
REMARK                         _______ _______ _______ _____ _____    ______ ____
ROOT
ATOM      1  C   UNL     1       0.058  -4.248  -0.021  0.00  0.00    +0.069 C 
ATOM      2  N   UNL     1       0.068  -4.997   1.026  0.00  0.00    -0.181 NA
ATOM      3  N   UNL     1       0.085  -6.363   0.750  0.00  0.00    -0.185 N 
ATOM      4  C   UNL     1       0.088  -6.553  -0.709  0.00  0.00    +0.153 C 
ATOM      5  C   UNL     1       0.063  -5.114  -1.261  0.00  0.00    +0.088 C 
ATOM      6  C   UNL     1       0.098  -7.348   1.669  0.00  0.00    +0.219 C 
ATOM      7  O   UNL     1       0.113  -8.508   1.315  0.00  0.00    -0.276 OA
ENDROOT
BRANCH   1  12
ATOM      8  C   UNL     1      -0.018   1.503   0.010  0.00  0.00    +0.044 C 
ATOM      9  C   UNL     1       0.002  -0.004   0.002  0.00  0.00    -0.048 A 
ATOM     10  C   UNL     1       0.006  -0.686  -1.202  0.00  0.00    +0.004 A 
ATOM     11  C   UNL     1       0.024  -2.065  -1.217  0.00  0.00    +0.010 A 
ATOM     12  C   UNL     1       0.039  -2.773  -0.013  0.00  0.00    -0.002 A 
ATOM     13  C   UNL     1       0.036  -2.078   1.198  0.00  0.00    +0.013 A 
ATOM     14  C   UNL     1       0.023  -0.699   1.198  0.00  0.00    -0.047 A 
ATOM     15  C   UNL     1       0.025   0.053   2.504  0.00  0.00    +0.044 C 
ENDBRANCH   1  12
BRANCH   4  16
ATOM     16  C   UNL     1       1.335  -7.277  -1.147  0.00  0.00    +0.041 A 
ATOM     17  C   UNL     1       2.553  -7.170  -0.577  0.00  0.00    +0.025 A 
ATOM     18  C   UNL     1       3.428  -8.011  -1.292  0.00  0.00    +0.019 A 
ATOM     19  C   UNL     1       2.713  -8.598  -2.273  0.00  0.00    +0.085 A 
ATOM     20  N   UNL     1       1.426  -8.156  -2.185  0.00  0.00    -0.352 N 
ATOM     21  C   UNL     1       0.324  -8.557  -3.063  0.00  0.00    +0.148 C 
ENDBRANCH   4  16
BRANCH   6  22
ATOM     22  C   UNL     1       0.093  -7.009   3.138  0.00  0.00    +0.021 C 
BRANCH  22  23
ATOM     23  N   UNL     1       0.109  -8.249   3.926  0.00  0.00    +0.385 N 
ATOM     24  C   UNL     1      -1.137  -8.992   3.695  0.00  0.00    -0.095 C 
ATOM     25  H   UNL     1       0.895  -8.815   3.647  0.00  0.00    -0.081 HD
BRANCH  23  26
ATOM     26  C   UNL     1       0.224  -7.920   5.353  0.00  0.00    -0.075 C 
ATOM     27  C   UNL     1       0.241  -9.210   6.175  0.00  0.00    -0.014 C 
ATOM     28  C   UNL     1       1.521  -7.145   5.595  0.00  0.00    -0.014 C 
ENDBRANCH  23  26
ENDBRANCH  22  23
ENDBRANCH   6  22
TORSDOF 5
