REMARK  Name = ZINC16130956
REMARK  7 active torsions:
REMARK  status: ('A' for Active; 'I' for Inactive)
REMARK    1  A    between atoms: C_6  and  S_11
REMARK    2  A    between atoms: S_11  and  N_14
REMARK    3  A    between atoms: N_14  and  C_15
REMARK    4  A    between atoms: C_17  and  S_22
REMARK    5  A    between atoms: C_20  and  O_21
REMARK    6  A    between atoms: S_22  and  N_25
REMARK    7  A    between atoms: N_25  and  C_26
REMARK                            x       y       z     vdW  Elec       q    Type
REMARK                         _______ _______ _______ _____ _____    ______ ____
ROOT
ATOM      1  C   UNL     1       1.415   2.692  -0.191  0.00  0.00    +0.091 A 
ATOM      2  C   UNL     1       0.201   3.345  -0.040  0.00  0.00    +0.057 A 
ATOM      3  C   UNL     1      -0.944   2.620   0.234  0.00  0.00    +0.111 A 
ATOM      4  C   UNL     1      -0.883   1.244   0.353  0.00  0.00    +0.032 A 
ATOM      5  C   UNL     1       0.325   0.587   0.209  0.00  0.00    +0.049 A 
ATOM      6  C   UNL     1       1.476   1.306  -0.065  0.00  0.00    +0.139 A 
ENDROOT
BRANCH   3   7
ATOM      7  S   UNL     1      -2.486   3.452   0.425  0.00  0.00    +0.072 S 
ATOM      8  O   UNL     1      -3.268   2.659   1.308  0.00  0.00    -0.150 OA
ATOM      9  O   UNL     1      -2.182   4.814   0.692  0.00  0.00    -0.150 OA
BRANCH   7  10
ATOM     10  N   UNL     1      -3.247   3.415  -1.045  0.00  0.00    -0.216 N 
ATOM     11  H   UNL     1      -3.424   4.242  -1.520  0.00  0.00    +0.174 HD
BRANCH  10  12
ATOM     12  C   UNL     1      -3.635   2.194  -1.600  0.00  0.00    +0.049 A 
ATOM     13  C   UNL     1      -4.747   1.525  -1.103  0.00  0.00    +0.024 A 
ATOM     14  C   UNL     1      -5.129   0.318  -1.655  0.00  0.00    +0.003 A 
ATOM     15  C   UNL     1      -4.406  -0.226  -2.701  0.00  0.00    +0.020 A 
ATOM     16  C   UNL     1      -3.298   0.437  -3.198  0.00  0.00    +0.043 A 
ATOM     17  C   UNL     1      -2.914   1.649  -2.654  0.00  0.00    +0.044 A 
ATOM     18 CL   UNL     1      -2.394  -0.249  -4.512  0.00  0.00    -0.083 Cl
ENDBRANCH  10  12
ENDBRANCH   7  10
ENDBRANCH   3   7
BRANCH   1  19
ATOM     19  N   UNL     1       2.576   3.424  -0.467  0.00  0.00    -0.213 N 
ATOM     20  H   UNL     1       3.257   3.051  -1.049  0.00  0.00    +0.174 HD
BRANCH  19  21
ATOM     21  S   UNL     1       2.787   4.925   0.199  0.00  0.00    +0.072 S 
ATOM     22  O   UNL     1       4.098   5.345  -0.154  0.00  0.00    -0.150 OA
ATOM     23  O   UNL     1       1.630   5.682  -0.131  0.00  0.00    -0.150 OA
BRANCH  21  29
ATOM     24  C   UNL     1       3.877   4.022   6.757  0.00  0.00    +0.001 A 
ATOM     25  C   UNL     1       5.083   3.936   6.064  0.00  0.00    +0.001 A 
ATOM     26  C   UNL     1       5.127   4.085   4.712  0.00  0.00    +0.008 A 
ATOM     27  C   UNL     1       3.940   4.329   4.000  0.00  0.00    -0.016 A 
ATOM     28  C   UNL     1       3.945   4.489   2.604  0.00  0.00    +0.037 A 
ATOM     29  C   UNL     1       2.776   4.725   1.949  0.00  0.00    +0.109 A 
ATOM     30  C   UNL     1       1.570   4.816   2.643  0.00  0.00    +0.029 A 
ATOM     31  C   UNL     1       1.526   4.661   3.994  0.00  0.00    +0.010 A 
ATOM     32  C   UNL     1       2.713   4.417   4.705  0.00  0.00    -0.018 A 
ATOM     33  C   UNL     1       2.708   4.258   6.101  0.00  0.00    +0.008 A 
ENDBRANCH  21  29
ENDBRANCH  19  21
ENDBRANCH   1  19
BRANCH   6  34
ATOM     34  O   UNL     1       2.665   0.660  -0.212  0.00  0.00    -0.505 OA
ATOM     35  H   UNL     1       2.855   0.388  -1.120  0.00  0.00    +0.292 HD
ENDBRANCH   6  34
TORSDOF 7
