REMARK  Name = ZINC67448561
REMARK  6 active torsions:
REMARK  status: ('A' for Active; 'I' for Inactive)
REMARK    1  A    between atoms: C_4  and  C_7
REMARK    2  A    between atoms: C_7  and  C_8
REMARK    3  A    between atoms: N_9  and  O_10
REMARK    4  A    between atoms: O_10  and  C_11
REMARK    5  A    between atoms: N_15  and  C_18
REMARK    6  A    between atoms: C_22  and  N_24
REMARK                            x       y       z     vdW  Elec       q    Type
REMARK                         _______ _______ _______ _____ _____    ______ ____
ROOT
ATOM      1  C   UNL     1       2.973  -0.290   4.693  0.00  0.00    +0.291 C 
ATOM      2  C   UNL     1       3.166  -1.050   6.027  0.00  0.00    +0.076 C 
ATOM      3  C   UNL     1       2.956   0.076   7.064  0.00  0.00    +0.118 C 
ATOM      4  N   UNL     1       3.297   1.321   6.365  0.00  0.00    -0.268 N 
ATOM      5  C   UNL     1       3.307   1.146   5.030  0.00  0.00    +0.263 C 
ATOM      6  O   UNL     1       3.549   2.012   4.216  0.00  0.00    -0.271 OA
ENDROOT
BRANCH   4   7
ATOM      7  C   UNL     1       3.575   2.534   7.004  0.00  0.00    +0.039 A 
ATOM      8  C   UNL     1       3.543   2.614   8.391  0.00  0.00    +0.023 A 
ATOM      9  C   UNL     1       3.818   3.812   9.018  0.00  0.00    +0.004 A 
ATOM     10  C   UNL     1       4.125   4.933   8.268  0.00  0.00    +0.033 A 
ATOM     11  C   UNL     1       4.158   4.857   6.888  0.00  0.00    +0.128 A 
ATOM     12  C   UNL     1       3.889   3.659   6.254  0.00  0.00    +0.056 A 
BRANCH  11  13
ATOM     13  N   UNL     1       4.487   6.059   6.089  0.00  0.00    +0.056 N 
ATOM     14  O   UNL     1       4.727   7.106   6.644  0.00  0.00    -0.126 OA
ATOM     15  O   UNL     1       4.516   5.993   4.882  0.00  0.00    -0.126 OA
ENDBRANCH  11  13
ENDBRANCH   4   7
BRANCH   1  16
ATOM     16  O   UNL     1       3.868  -0.792   3.698  0.00  0.00    -0.380 OA
BRANCH  16  18
ATOM     17  C   UNL     1       4.164  -0.959   1.377  0.00  0.00    +0.136 C 
ATOM     18  N   UNL     1       3.442  -0.554   2.369  0.00  0.00    -0.073 NA
ATOM     19  N   UNL     1       5.349  -1.622   1.613  0.00  0.00    -0.344 N 
ATOM     20  H   UNL     1       5.891  -1.926   0.869  0.00  0.00    +0.144 HD
ATOM     21  H   UNL     1       5.641  -1.784   2.524  0.00  0.00    +0.144 HD
BRANCH  17  22
ATOM     22  C   UNL     1       3.711  -0.707  -0.038  0.00  0.00    +0.109 C 
BRANCH  22  26
ATOM     23  C   UNL     1      -0.017   1.378   0.010  0.00  0.00    +0.000 A 
ATOM     24  C   UNL     1       1.171   2.086   0.002  0.00  0.00    +0.000 A 
ATOM     25  C   UNL     1       2.377   1.411  -0.013  0.00  0.00    +0.004 A 
ATOM     26  C   UNL     1       2.396   0.029  -0.020  0.00  0.00    -0.040 A 
ATOM     27  C   UNL     1       1.208  -0.679  -0.012  0.00  0.00    +0.004 A 
ATOM     28  C   UNL     1       0.002  -0.004   0.002  0.00  0.00    +0.000 A 
ENDBRANCH  22  26
ENDBRANCH  17  22
ENDBRANCH  16  18
ENDBRANCH   1  16
TORSDOF 6
