REMARK  Name = ZINC01271086
REMARK  6 active torsions:
REMARK  status: ('A' for Active; 'I' for Inactive)
REMARK    1  A    between atoms: C_1  and  C_2
REMARK    2  A    between atoms: N_5  and  C_10
REMARK    3  A    between atoms: C_7  and  C_9
REMARK    4  A    between atoms: C_12  and  N_27
REMARK    5  A    between atoms: N_17  and  C_24
REMARK    6  A    between atoms: C_19  and  C_22
REMARK                            x       y       z     vdW  Elec       q    Type
REMARK                         _______ _______ _______ _____ _____    ______ ____
ROOT
ATOM      1  C   UNL     1      -3.521   3.418   0.603  0.00  0.00    +0.105 A 
ATOM      2  C   UNL     1      -3.568   2.026   0.606  0.00  0.00    +0.168 A 
ATOM      3  C   UNL     1      -2.396   1.291   0.658  0.00  0.00    +0.075 A 
ATOM      4  C   UNL     1      -1.162   1.959   0.709  0.00  0.00    +0.072 A 
ATOM      5  C   UNL     1      -1.117   3.366   0.712  0.00  0.00    +0.092 A 
ATOM      6  C   UNL     1      -2.305   4.085   0.666  0.00  0.00    +0.171 A 
ATOM      7  F   UNL     1      -2.276   5.436   0.662  0.00  0.00    -0.201 F 
ATOM      8  N   UNL     1       0.097   4.023   0.756  0.00  0.00    -0.340 N 
ATOM      9  C   UNL     1       1.269   3.376   0.802  0.00  0.00    +0.105 A 
ATOM     10  C   UNL     1       1.348   1.999   0.809  0.00  0.00    +0.126 A 
ATOM     11  C   UNL     1       0.102   1.213   0.765  0.00  0.00    +0.205 A 
ATOM     12  O   UNL     1       0.120  -0.006   0.769  0.00  0.00    -0.286 OA
ATOM     13  F   UNL     1      -4.760   1.391   0.556  0.00  0.00    -0.201 F 
ENDROOT
BRANCH   1  17
ATOM     14  C   UNL     1      -7.566   4.305  -1.940  0.00  0.00    -0.012 C 
ATOM     15  C   UNL     1      -6.793   4.597  -0.652  0.00  0.00    -0.057 C 
ATOM     16  C   UNL     1      -5.465   3.837  -0.671  0.00  0.00    +0.089 C 
ATOM     17  N   UNL     1      -4.708   4.149   0.550  0.00  0.00    -0.328 N 
ATOM     18  C   UNL     1      -4.443   5.591   0.647  0.00  0.00    +0.089 C 
ATOM     19  C   UNL     1      -5.771   6.351   0.665  0.00  0.00    -0.057 C 
ATOM     20  C   UNL     1      -6.584   5.930   1.891  0.00  0.00    -0.012 C 
ATOM     21  N   UNL     1      -6.531   6.046  -0.562  0.00  0.00    +0.384 N 
ATOM     22  H   UNL     1      -7.425   6.551  -0.542  0.00  0.00    -0.085 HD
ATOM     23  H   UNL     1      -5.987   6.344  -1.380  0.00  0.00    -0.085 HD
ENDBRANCH   1  17
BRANCH  10  24
ATOM     24  C   UNL     1       2.653   1.326   0.860  0.00  0.00    +0.392 C 
ATOM     25  O   UNL     1       2.711   0.112   0.867  0.00  0.00    -0.240 OA
ATOM     26  O   UNL     1       3.786   2.056   0.901  0.00  0.00    -0.240 OA
ENDBRANCH  10  24
BRANCH   8  27
ATOM     27  C   UNL     1       0.103   5.488   0.752  0.00  0.00    +0.088 C 
ATOM     28  C   UNL     1       1.424   6.190   1.075  0.00  0.00    +0.027 C 
ATOM     29  C   UNL     1       0.285   6.197   2.096  0.00  0.00    +0.027 C 
ENDBRANCH   8  27
BRANCH   3  30
ATOM     30  N   UNL     1      -2.440  -0.102   0.660  0.00  0.00    -0.355 N 
ATOM     31  H   UNL     1      -1.663  -0.611   0.940  0.00  0.00    +0.142 HD
ATOM     32  H   UNL     1      -3.247  -0.562   0.381  0.00  0.00    +0.142 HD
ENDBRANCH   3  30
TORSDOF 4
