REMARK  Name = ZINC09412163
REMARK  10 active torsions:
REMARK  status: ('A' for Active; 'I' for Inactive)
REMARK    1  A    between atoms: C_1  and  C_2
REMARK    2  A    between atoms: C_2  and  C_4
REMARK    3  A    between atoms: C_2  and  O_24
REMARK    4  A    between atoms: C_4  and  O_6
REMARK    5  A    between atoms: O_6  and  C_7
REMARK    6  A    between atoms: C_7  and  C_8
REMARK    7  A    between atoms: N_10  and  C_11
REMARK    8  A    between atoms: C_11  and  C_12
REMARK    9  A    between atoms: N_14  and  C_15
REMARK   10  A    between atoms: O_24  and  C_25
REMARK                            x       y       z     vdW  Elec       q    Type
REMARK                         _______ _______ _______ _____ _____    ______ ____
ROOT
ATOM      1  C   UNL     1       3.902   7.500   0.435  0.00  0.00    +0.251 C 
ATOM      2  O   UNL     1       2.968   8.273   0.458  0.00  0.00    -0.272 OA
ATOM      3  N   UNL     1       3.678   6.175   0.326  0.00  0.00    -0.304 N 
ATOM      4  H   UNL     1       4.426   5.557   0.308  0.00  0.00    +0.149 HD
ENDROOT
BRANCH   1   5
ATOM      5  C   UNL     1       5.314   8.020   0.528  0.00  0.00    +0.327 C 
BRANCH   5   6
ATOM      6  O   UNL     1       5.289   9.468   0.636  0.00  0.00    -0.453 OA
BRANCH   6   7
ATOM      7  C   UNL     1       6.474  10.092   0.728  0.00  0.00    +0.348 C 
ATOM      8  O   UNL     1       7.497   9.450   0.719  0.00  0.00    -0.247 OA
BRANCH   7  10
ATOM      9  C   UNL     1       5.888  12.027   2.163  0.00  0.00    +0.064 C 
ATOM     10  C   UNL     1       6.528  11.594   0.843  0.00  0.00    +0.278 C 
BRANCH  10  11
ATOM     11  O   UNL     1       7.889  12.026   0.810  0.00  0.00    -0.478 OA
BRANCH  11  12
ATOM     12  C   UNL     1       8.123  13.297   0.390  0.00  0.00    +0.122 A 
ATOM     13  C   UNL     1       7.077  14.077  -0.081  0.00  0.00    +0.047 A 
ATOM     14  C   UNL     1       7.316  15.371  -0.501  0.00  0.00    +0.019 A 
ATOM     15  C   UNL     1       8.599  15.886  -0.463  0.00  0.00    +0.018 A 
ATOM     16  C   UNL     1       9.645  15.108   0.001  0.00  0.00    +0.019 A 
ATOM     17  C   UNL     1       9.410  13.816   0.427  0.00  0.00    +0.047 A 
ATOM     18 BR   UNL     1       8.925  17.655  -1.046  0.00  0.00    -0.050 Br
ENDBRANCH  11  12
ENDBRANCH  10  11
ENDBRANCH   7  10
ENDBRANCH   6   7
ENDBRANCH   5   6
ENDBRANCH   1   5
BRANCH   3  19
ATOM     19  C   UNL     1       2.307   5.669   0.236  0.00  0.00    +0.200 C 
BRANCH  19  20
ATOM     20  C   UNL     1       2.332   4.167   0.124  0.00  0.00    +0.234 C 
ATOM     21  O   UNL     1       3.391   3.576   0.119  0.00  0.00    -0.274 OA
ATOM     22  N   UNL     1       1.177   3.479   0.028  0.00  0.00    -0.282 N 
ATOM     23  H   UNL     1       0.335   3.953  -0.051  0.00  0.00    +0.155 HD
BRANCH  22  24
ATOM     24  C   UNL     1       1.193   2.077   0.042  0.00  0.00    +0.072 A 
ATOM     25  C   UNL     1       2.243   1.401   0.647  0.00  0.00    +0.029 A 
ATOM     26  C   UNL     1       2.258   0.019   0.661  0.00  0.00    +0.043 A 
ATOM     27  C   UNL     1       1.227  -0.693   0.072  0.00  0.00    +0.161 A 
ATOM     28  C   UNL     1       0.176  -0.021  -0.534  0.00  0.00    +0.195 A 
ATOM     29  C   UNL     1       0.157   1.364  -0.550  0.00  0.00    +0.182 A 
ATOM     30  F   UNL     1      -0.863   2.019  -1.144  0.00  0.00    -0.200 F 
ATOM     31  F   UNL     1      -0.829  -0.717  -1.109  0.00  0.00    -0.199 F 
ATOM     32  F   UNL     1       1.245  -2.043   0.086  0.00  0.00    -0.202 F 
ENDBRANCH  22  24
ENDBRANCH  19  20
ENDBRANCH   3  19
TORSDOF 9
