REMARK  Name = ZINC25068691
REMARK  6 active torsions:
REMARK  status: ('A' for Active; 'I' for Inactive)
REMARK    1  A    between atoms: C_1  and  C_2
REMARK    2  A    between atoms: C_5  and  C_8
REMARK    3  A    between atoms: C_8  and  C_10
REMARK    4  A    between atoms: C_8  and  N_15
REMARK    5  A    between atoms: C_16  and  C_18
REMARK    6  A    between atoms: N_27  and  C_28
REMARK                            x       y       z     vdW  Elec       q    Type
REMARK                         _______ _______ _______ _____ _____    ______ ____
ROOT
ATOM      1  N   UNL     1      -8.357   1.519  -1.280  0.00  0.00    -0.304 N 
ATOM      2  C   UNL     1      -8.238   2.862  -1.304  0.00  0.00    +0.218 C 
ATOM      3  O   UNL     1      -9.230   3.559  -1.277  0.00  0.00    -0.275 OA
ATOM      4  H   UNL     1      -7.457   0.887  -1.304  0.00  0.00    +0.150 HD
ENDROOT
BRANCH   2   5
ATOM      5  C   UNL     1      -6.872   3.496  -1.363  0.00  0.00    +0.092 C 
ATOM      6  C   UNL     1      -7.017   5.019  -1.379  0.00  0.00    +0.016 C 
ATOM      7  C   UNL     1      -5.632   5.664  -1.472  0.00  0.00    +0.020 C 
ATOM      8  C   UNL     1      -4.806   5.270  -0.244  0.00  0.00    +0.109 C 
ATOM      9  N   UNL     1      -4.784   3.804  -0.139  0.00  0.00    -0.285 N 
ATOM     10  C   UNL     1      -6.060   3.077  -0.139  0.00  0.00    +0.122 C 
ATOM     11  C   UNL     1      -3.614   3.140  -0.051  0.00  0.00    +0.306 C 
ATOM     12  O   UNL     1      -3.599   1.926  -0.109  0.00  0.00    -0.252 OA
ATOM     13  N   UNL     1      -2.462   3.822   0.102  0.00  0.00    -0.269 N 
ATOM     14  H   UNL     1      -2.485   4.903   0.301  0.00  0.00    +0.156 HD
BRANCH  13  15
ATOM     15  C   UNL     1      -1.236   3.153   0.007  0.00  0.00    +0.035 A 
ATOM     16  C   UNL     1      -1.159   1.796   0.291  0.00  0.00    +0.023 A 
ATOM     17  C   UNL     1       0.053   1.141   0.201  0.00  0.00    +0.002 A 
ATOM     18  C   UNL     1       1.188   1.832  -0.182  0.00  0.00    +0.000 A 
ATOM     19  C   UNL     1       1.114   3.182  -0.471  0.00  0.00    +0.002 A 
ATOM     20  C   UNL     1      -0.094   3.845  -0.378  0.00  0.00    +0.023 A 
ENDBRANCH  13  15
ENDBRANCH   2   5
BRANCH   1  21
ATOM     21  C   UNL     1      -9.685   0.903  -1.223  0.00  0.00    +0.140 C 
BRANCH  21  26
ATOM     22  C   UNL     1      -9.435  -4.419  -3.461  0.00  0.00    +0.044 C 
ATOM     23  C   UNL     1      -9.500  -3.031  -2.877  0.00  0.00    -0.050 A 
ATOM     24  C   UNL     1     -10.588  -2.220  -3.142  0.00  0.00    +0.004 A 
ATOM     25  C   UNL     1     -10.648  -0.947  -2.606  0.00  0.00    +0.006 A 
ATOM     26  C   UNL     1      -9.620  -0.485  -1.806  0.00  0.00    -0.022 A 
ATOM     27  C   UNL     1      -8.529  -1.294  -1.546  0.00  0.00    +0.006 A 
ATOM     28  C   UNL     1      -8.472  -2.569  -2.078  0.00  0.00    +0.004 A 
ENDBRANCH  21  26
BRANCH  21  29
ATOM     29  C   UNL     1     -10.140   0.824   0.212  0.00  0.00    +0.014 A 
ATOM     30  C   UNL     1     -11.373   1.044   0.729  0.00  0.00    +0.013 A 
ATOM     31  C   UNL     1     -11.562   0.912   2.092  0.00  0.00    +0.008 A 
ATOM     32  C   UNL     1     -10.508   0.564   2.871  0.00  0.00    +0.045 A 
ATOM     33  S   UNL     1      -9.197   0.407   1.669  0.00  0.00    -0.099 S 
ENDBRANCH  21  29
ENDBRANCH   1  21
TORSDOF 5
