REMARK  Name = ZINC06565061
REMARK  6 active torsions:
REMARK  status: ('A' for Active; 'I' for Inactive)
REMARK    1  A    between atoms: C_1  and  C_2
REMARK    2  A    between atoms: C_7  and  C_12
REMARK    3  A    between atoms: C_12  and  C_13
REMARK    4  A    between atoms: C_14  and  C_27
REMARK    5  A    between atoms: N_16  and  C_21
REMARK    6  A    between atoms: C_21  and  C_22
REMARK                            x       y       z     vdW  Elec       q    Type
REMARK                         _______ _______ _______ _____ _____    ______ ____
ROOT
ATOM      1  C   UNL     1      -1.865  -6.115   3.153  0.00  0.00    +0.076 C 
ATOM      2  C   UNL     1      -0.537  -6.065   3.872  0.00  0.00    +0.145 C 
ATOM      3  N   UNL     1      -0.417  -7.334   4.599  0.00  0.00    -0.276 N 
ATOM      4  C   UNL     1      -1.525  -8.058   4.353  0.00  0.00    +0.288 C 
ATOM      5  O   UNL     1      -1.749  -9.164   4.803  0.00  0.00    -0.266 OA
ATOM      6  C   UNL     1      -2.432  -7.305   3.461  0.00  0.00    +0.249 C 
ATOM      7  O   UNL     1      -3.635  -7.738   3.021  0.00  0.00    -0.282 OA
ENDROOT
BRANCH   2   8
ATOM      8  C   UNL     1       0.586  -5.930   2.876  0.00  0.00    -0.022 A 
ATOM      9  C   UNL     1       0.958  -7.013   2.103  0.00  0.00    +0.006 A 
ATOM     10  C   UNL     1       1.988  -6.889   1.189  0.00  0.00    +0.000 A 
ATOM     11  C   UNL     1       2.646  -5.682   1.050  0.00  0.00    +0.000 A 
ATOM     12  C   UNL     1       2.273  -4.598   1.822  0.00  0.00    +0.000 A 
ATOM     13  C   UNL     1       1.240  -4.721   2.733  0.00  0.00    +0.006 A 
ENDBRANCH   2   8
BRANCH   1  14
ATOM     14  C   UNL     1      -2.434  -5.073   2.292  0.00  0.00    +0.195 C 
ATOM     15  O   UNL     1      -2.593  -5.285   1.105  0.00  0.00    -0.287 OA
BRANCH  14  21
ATOM     16  C   UNL     1      -5.080   1.792   3.138  0.00  0.00    +0.052 C 
ATOM     17  C   UNL     1      -3.941   0.770   3.099  0.00  0.00    +0.175 C 
ATOM     18  C   UNL     1      -4.162  -0.253   1.960  0.00  0.00    +0.083 C 
ATOM     19  C   UNL     1      -3.636  -1.532   2.583  0.00  0.00    -0.002 A 
ATOM     20  C   UNL     1      -3.286  -2.743   2.039  0.00  0.00    +0.019 A 
ATOM     21  C   UNL     1      -2.813  -3.767   2.867  0.00  0.00    +0.023 A 
ATOM     22  C   UNL     1      -2.704  -3.544   4.243  0.00  0.00    +0.015 A 
ATOM     23  C   UNL     1      -3.061  -2.329   4.777  0.00  0.00    +0.046 A 
ATOM     24  C   UNL     1      -3.536  -1.307   3.953  0.00  0.00    +0.124 A 
ATOM     25  O   UNL     1      -3.953  -0.051   4.278  0.00  0.00    -0.488 OA
ENDBRANCH  14  21
ENDBRANCH   1  14
BRANCH   3  26
ATOM     26  C   UNL     1       0.709  -7.742   5.442  0.00  0.00    +0.183 C 
BRANCH  26  27
ATOM     27  C   UNL     1       0.462  -7.295   6.860  0.00  0.00    +0.122 A 
ATOM     28  C   UNL     1      -0.162  -8.010   7.813  0.00  0.00    +0.046 A 
ATOM     29  C   UNL     1      -0.173  -7.214   8.982  0.00  0.00    +0.041 A 
ATOM     30  C   UNL     1       0.446  -6.061   8.673  0.00  0.00    +0.195 A 
ATOM     31  O   UNL     1       0.834  -6.117   7.388  0.00  0.00    -0.466 OA
ENDBRANCH  26  27
ENDBRANCH   3  26
TORSDOF 5
