REMARK  Name = ZINC10050860
REMARK  16 active torsions:
REMARK  status: ('A' for Active; 'I' for Inactive)
REMARK    1  A    between atoms: C_1  and  C_2
REMARK    2  A    between atoms: C_2  and  O_3
REMARK    3  A    between atoms: O_3  and  C_4
REMARK    4  A    between atoms: C_4  and  C_6
REMARK    5  A    between atoms: C_7  and  C_34
REMARK    6  A    between atoms: C_8  and  C_30
REMARK    7  A    between atoms: C_10  and  N_11
REMARK    8  A    between atoms: C_12  and  C_14
REMARK    9  A    between atoms: C_14  and  O_15
REMARK   10  A    between atoms: O_15  and  C_16
REMARK   11  A    between atoms: C_16  and  C_18
REMARK   12  A    between atoms: C_20  and  N_27
REMARK   13  A    between atoms: C_23  and  N_24
REMARK   14  A    between atoms: N_24  and  C_25
REMARK   15  A    between atoms: N_24  and  C_26
REMARK   16  A    between atoms: N_32  and  C_33
REMARK                            x       y       z     vdW  Elec       q    Type
REMARK                         _______ _______ _______ _____ _____    ______ ____
ROOT
ATOM      1  N   UNL     1       1.143   1.898   0.001  0.00  0.00    -0.277 N 
ATOM      2  C   UNL     1      -0.014   1.208   0.009  0.00  0.00    +0.255 C 
ATOM      3  O   UNL     1       0.002  -0.004   0.002  0.00  0.00    -0.272 OA
ATOM      4  H   UNL     1       1.130   2.868   0.007  0.00  0.00    +0.155 HD
ENDROOT
BRANCH   1   9
ATOM      5  C   UNL     1       3.644   1.753  -0.023  0.00  0.00    +0.091 A 
ATOM      6  C   UNL     1       4.705   0.861  -0.038  0.00  0.00    -0.015 A 
ATOM      7  C   UNL     1       4.412  -0.476  -0.042  0.00  0.00    +0.079 A 
ATOM      8  S   UNL     1       2.630  -0.486  -0.018  0.00  0.00    -0.068 S 
ATOM      9  C   UNL     1       2.349   1.224  -0.014  0.00  0.00    +0.087 A 
ATOM     10  C   UNL     1       6.132   1.346  -0.049  0.00  0.00    +0.046 C 
BRANCH   7  11
ATOM     11  C   UNL     1       5.334  -1.614  -0.056  0.00  0.00    +0.251 C 
ATOM     12  O   UNL     1       6.536  -1.423  -0.067  0.00  0.00    -0.270 OA
ATOM     13  N   UNL     1       4.850  -2.872  -0.058  0.00  0.00    -0.314 N 
ATOM     14  C   UNL     1       5.772  -4.011  -0.072  0.00  0.00    +0.128 C 
ATOM     15  H   UNL     1       3.892  -3.023  -0.050  0.00  0.00    +0.149 HD
ENDBRANCH   7  11
BRANCH   5  16
ATOM     16  C   UNL     1       3.871   3.203  -0.019  0.00  0.00    +0.342 C 
ATOM     17  O   UNL     1       3.975   3.798   1.036  0.00  0.00    -0.245 OA
BRANCH  16  18
ATOM     18  O   UNL     1       3.964   3.874  -1.184  0.00  0.00    -0.461 OA
BRANCH  18  20
ATOM     19  C   UNL     1       4.266   5.891  -2.515  0.00  0.00    +0.048 C 
ATOM     20  C   UNL     1       4.189   5.306  -1.104  0.00  0.00    +0.229 C 
ENDBRANCH  18  20
ENDBRANCH  16  18
ENDBRANCH   5  16
ENDBRANCH   1   9
BRANCH   2  21
ATOM     21  C   UNL     1      -1.330   1.944   0.019  0.00  0.00    +0.328 C 
BRANCH  21  22
ATOM     22  O   UNL     1      -2.420   0.986   0.019  0.00  0.00    -0.452 OA
BRANCH  22  23
ATOM     23  C   UNL     1      -3.672   1.484   0.028  0.00  0.00    +0.342 C 
ATOM     24  O   UNL     1      -3.848   2.686   0.035  0.00  0.00    -0.245 OA
BRANCH  23  25
ATOM     25  C   UNL     1      -4.828   0.571   0.028  0.00  0.00    +0.082 A 
ATOM     26  C   UNL     1      -4.631  -0.813   0.014  0.00  0.00    +0.049 A 
ATOM     27  C   UNL     1      -5.716  -1.661   0.019  0.00  0.00    +0.127 A 
ATOM     28  C   UNL     1      -7.005  -1.151   0.029  0.00  0.00    +0.034 A 
ATOM     29  C   UNL     1      -7.216   0.213   0.037  0.00  0.00    +0.026 A 
ATOM     30  C   UNL     1      -6.135   1.085   0.037  0.00  0.00    +0.043 A 
BRANCH  30  31
ATOM     31  N   UNL     1      -6.345   2.457   0.046  0.00  0.00    -0.335 N 
ATOM     32  C   UNL     1      -7.108   2.881  -1.136  0.00  0.00    +0.129 C 
ATOM     33  C   UNL     1      -7.014   2.879   1.284  0.00  0.00    +0.129 C 
ENDBRANCH  30  31
BRANCH  27  34
ATOM     34  N   UNL     1      -5.506  -3.127   0.009  0.00  0.00    +0.056 N 
ATOM     35  O   UNL     1      -6.463  -3.880   0.009  0.00  0.00    -0.126 OA
ATOM     36  O   UNL     1      -4.375  -3.579   0.001  0.00  0.00    -0.126 OA
ENDBRANCH  27  34
ENDBRANCH  23  25
ENDBRANCH  22  23
ENDBRANCH  21  22
ENDBRANCH   2  21
TORSDOF 11
