REMARK  Name = ZINC05641056
REMARK  8 active torsions:
REMARK  status: ('A' for Active; 'I' for Inactive)
REMARK    1  A    between atoms: C_1  and  C_2
REMARK    2  A    between atoms: C_2  and  N_23
REMARK    3  A    between atoms: C_3  and  C_4
REMARK    4  A    between atoms: C_3  and  C_6
REMARK    5  A    between atoms: C_6  and  C_8
REMARK    6  A    between atoms: C_8  and  O_9
REMARK    7  A    between atoms: O_9  and  C_10
REMARK    8  A    between atoms: C_10  and  C_12
REMARK                            x       y       z     vdW  Elec       q    Type
REMARK                         _______ _______ _______ _____ _____    ______ ____
ROOT
ATOM      1  C   UNL     1      -0.193   1.634   1.656  0.00  0.00    +0.348 C 
ATOM      2  O   UNL     1       0.874   2.186   1.467  0.00  0.00    -0.244 OA
ENDROOT
BRANCH   1   3
ATOM      3  C   UNL     1      -0.227   0.250   2.139  0.00  0.00    +0.116 A 
ATOM      4  C   UNL     1       0.819  -0.575   2.424  0.00  0.00    +0.070 A 
ATOM      5  C   UNL     1       0.574  -1.882   2.885  0.00  0.00    +0.008 A 
ATOM      6  C   UNL     1       1.519  -2.880   3.236  0.00  0.00    +0.012 A 
ATOM      7  C   UNL     1       1.112  -4.103   3.662  0.00  0.00    +0.021 A 
ATOM      8  C   UNL     1      -0.236  -4.427   3.769  0.00  0.00    +0.042 A 
ATOM      9  C   UNL     1      -1.190  -3.484   3.437  0.00  0.00    +0.035 A 
ATOM     10  C   UNL     1      -0.791  -2.238   3.004  0.00  0.00    +0.023 A 
ATOM     11  S   UNL     1      -1.648  -0.771   2.489  0.00  0.00    -0.080 S 
ATOM     12 CL   UNL     1      -0.718  -6.002   4.317  0.00  0.00    -0.084 Cl
ATOM     13 CL   UNL     1       2.449  -0.014   2.226  0.00  0.00    -0.082 Cl
ENDBRANCH   1   3
BRANCH   1  14
ATOM     14  O   UNL     1      -1.345   2.293   1.416  0.00  0.00    -0.453 OA
BRANCH  14  15
ATOM     15  C   UNL     1      -1.235   3.660   0.939  0.00  0.00    +0.312 C 
BRANCH  15  16
ATOM     16  C   UNL     1      -2.614   4.231   0.728  0.00  0.00    +0.212 C 
ATOM     17  O   UNL     1      -3.594   3.551   0.957  0.00  0.00    -0.288 OA
BRANCH  16  20
ATOM     18  C   UNL     1      -5.210   5.112  -0.050  0.00  0.00    +0.061 C 
ATOM     19  C   UNL     1      -4.025   6.042  -0.050  0.00  0.00    +0.019 C 
ATOM     20  C   UNL     1      -2.767   5.559   0.263  0.00  0.00    +0.114 C 
BRANCH  19  21
ATOM     21  N   UNL     1      -4.190   7.345  -0.356  0.00  0.00    -0.360 N 
ATOM     22  H   UNL     1      -3.325   8.024  -0.356  0.00  0.00    +0.142 HD
ATOM     23  H   UNL     1      -5.191   7.729  -0.606  0.00  0.00    +0.142 HD
ENDBRANCH  19  21
BRANCH  20  24
ATOM     24  C   UNL     1      -1.619   6.403   0.117  0.00  0.00    +0.104 C 
ATOM     25  N   UNL     1      -0.709   7.072   0.001  0.00  0.00    -0.191 NA
ENDBRANCH  20  24
ENDBRANCH  16  20
ENDBRANCH  15  16
ENDBRANCH  14  15
ENDBRANCH   1  14
TORSDOF 7
