REMARK  Name = ZINC37944144
REMARK  4 active torsions:
REMARK  status: ('A' for Active; 'I' for Inactive)
REMARK    1  A    between atoms: C_5  and  N_7
REMARK    2  A    between atoms: N_7  and  C_8
REMARK    3  A    between atoms: C_8  and  C_10
REMARK    4  A    between atoms: C_8  and  C_18
REMARK                            x       y       z     vdW  Elec       q    Type
REMARK                         _______ _______ _______ _____ _____    ______ ____
ROOT
ATOM      1  C   UNL     1      -0.019  -2.831  -0.013  0.00  0.00    +0.190 C 
ENDROOT
BRANCH   1   2
ATOM      2  C   UNL     1       0.241  -4.237   0.462  0.00  0.00    +0.017 A 
ATOM      3  C   UNL     1       1.534  -4.722   0.510  0.00  0.00    +0.010 A 
ATOM      4  C   UNL     1       1.773  -6.012   0.946  0.00  0.00    +0.016 A 
ATOM      5  C   UNL     1       0.719  -6.818   1.335  0.00  0.00    +0.021 A 
ATOM      6  C   UNL     1      -0.576  -6.335   1.288  0.00  0.00    +0.054 A 
ATOM      7  C   UNL     1      -0.815  -5.041   0.857  0.00  0.00    +0.130 A 
ATOM      8  F   UNL     1      -2.079  -4.565   0.815  0.00  0.00    -0.205 F 
ATOM      9 BR   UNL     1       1.047  -8.582   1.931  0.00  0.00    -0.050 Br
ENDBRANCH   1   2
BRANCH   1  10
ATOM     10  C   UNL     1      -0.288  -2.843  -1.496  0.00  0.00    +0.235 C 
ATOM     11  O   UNL     1       0.429  -2.217  -2.247  0.00  0.00    -0.274 OA
ATOM     12  N   UNL     1      -1.325  -3.550  -1.987  0.00  0.00    -0.328 N 
ATOM     13  H   UNL     1      -1.899  -4.050  -1.386  0.00  0.00    +0.145 HD
ATOM     14  H   UNL     1      -1.498  -3.558  -2.941  0.00  0.00    +0.145 HD
ENDBRANCH   1  10
BRANCH   1  15
ATOM     15  N   UNL     1       1.153  -1.997   0.264  0.00  0.00    -0.328 N 
ATOM     16  H   UNL     1       2.032  -2.402   0.330  0.00  0.00    +0.147 HD
BRANCH  15  21
ATOM     17  C   UNL     1      -0.395   1.328   0.507  0.00  0.00    +0.002 A 
ATOM     18  C   UNL     1       0.713   2.114   0.769  0.00  0.00    +0.001 A 
ATOM     19  C   UNL     1       1.966   1.538   0.864  0.00  0.00    +0.017 A 
ATOM     20  C   UNL     1       2.116   0.174   0.697  0.00  0.00    +0.039 A 
ATOM     21  C   UNL     1       1.005  -0.618   0.434  0.00  0.00    +0.042 A 
ATOM     22  C   UNL     1      -0.252  -0.036   0.340  0.00  0.00    +0.024 A 
ATOM     23 BR   UNL     1       3.831  -0.612   0.825  0.00  0.00    -0.048 Br
ENDBRANCH  15  21
ENDBRANCH   1  15
TORSDOF 4
