REMARK  Name = ZINC36579633
REMARK  15 active torsions:
REMARK  status: ('A' for Active; 'I' for Inactive)
REMARK    1  A    between atoms: C_1  and  C_2
REMARK    2  A    between atoms: C_5  and  S_8
REMARK    3  A    between atoms: S_8  and  C_11
REMARK    4  A    between atoms: C_11  and  N_12
REMARK    5  A    between atoms: C_13  and  C_15
REMARK    6  A    between atoms: C_15  and  C_17
REMARK    7  A    between atoms: C_15  and  N_24
REMARK    8  A    between atoms: C_21  and  O_23
REMARK    9  A    between atoms: N_24  and  C_35
REMARK   10  A    between atoms: C_25  and  C_27
REMARK   11  A    between atoms: C_32  and  O_33
REMARK   12  A    between atoms: O_33  and  C_34
REMARK   13  A    between atoms: C_35  and  C_36
REMARK   14  A    between atoms: C_35  and  C_37
REMARK   15  A    between atoms: C_35  and  C_38
REMARK                            x       y       z     vdW  Elec       q    Type
REMARK                         _______ _______ _______ _____ _____    ______ ____
ROOT
ATOM      1  C   UNL     1       4.587  -9.699   4.429  0.00  0.00    +0.193 C 
ENDROOT
BRANCH   1   2
ATOM      2  C   UNL     1       4.694 -11.198   4.533  0.00  0.00    -0.015 A 
ATOM      3  C   UNL     1       3.646 -11.931   5.059  0.00  0.00    +0.006 A 
ATOM      4  C   UNL     1       3.741 -13.307   5.156  0.00  0.00    +0.004 A 
ATOM      5  C   UNL     1       4.884 -13.953   4.727  0.00  0.00    +0.045 A 
ATOM      6  C   UNL     1       5.937 -13.221   4.199  0.00  0.00    +0.117 A 
ATOM      7  C   UNL     1       5.837 -11.840   4.097  0.00  0.00    +0.051 A 
BRANCH   6   8
ATOM      8  O   UNL     1       7.063 -13.854   3.777  0.00  0.00    -0.507 OA
ATOM      9  H   UNL     1       7.040 -14.119   2.847  0.00  0.00    +0.292 HD
ENDBRANCH   6   8
ENDBRANCH   1   2
BRANCH   1  11
ATOM     10  N   UNL     1       5.739  -9.496   2.249  0.00  0.00    -0.294 N 
ATOM     11  C   UNL     1       4.623  -9.292   2.978  0.00  0.00    +0.239 C 
ATOM     12  O   UNL     1       3.650  -8.781   2.466  0.00  0.00    -0.273 OA
ATOM     13  H   UNL     1       6.518  -9.904   2.658  0.00  0.00    +0.150 HD
BRANCH  10  14
ATOM     14  C   UNL     1       5.774  -9.101   0.839  0.00  0.00    +0.278 C 
BRANCH  14  15
ATOM     15  S   UNL     1       6.503  -7.446   0.693  0.00  0.00    +0.013 S 
ATOM     16  O   UNL     1       5.914  -6.566   1.642  0.00  0.00    -0.168 OA
ATOM     17  O   UNL     1       6.603  -7.073  -0.675  0.00  0.00    -0.168 OA
BRANCH  15  22
ATOM     18  C   UNL     1      12.213  -8.094   2.531  0.00  0.00    +0.044 C 
ATOM     19  C   UNL     1      10.787  -7.932   2.072  0.00  0.00    -0.050 A 
ATOM     20  C   UNL     1      10.466  -8.105   0.739  0.00  0.00    +0.005 A 
ATOM     21  C   UNL     1       9.158  -7.956   0.318  0.00  0.00    +0.027 A 
ATOM     22  C   UNL     1       8.170  -7.636   1.230  0.00  0.00    +0.090 A 
ATOM     23  C   UNL     1       8.491  -7.464   2.564  0.00  0.00    +0.027 A 
ATOM     24  C   UNL     1       9.798  -7.617   2.986  0.00  0.00    +0.005 A 
ENDBRANCH  15  22
ENDBRANCH  14  15
ENDBRANCH  10  14
ENDBRANCH   1  11
BRANCH   1  25
ATOM     25  N   UNL     1       3.325  -9.257   5.028  0.00  0.00    -0.277 N 
ATOM     26  C   UNL     1       2.167  -9.849   4.675  0.00  0.00    +0.251 C 
ATOM     27  O   UNL     1       2.090 -10.454   3.623  0.00  0.00    -0.270 OA
BRANCH  26  28
ATOM     28  C   UNL     1       0.993  -9.762   5.564  0.00  0.00    +0.078 A 
ATOM     29  C   UNL     1       0.501  -8.516   5.959  0.00  0.00    +0.017 A 
ATOM     30  C   UNL     1      -0.596  -8.442   6.790  0.00  0.00    +0.001 A 
ATOM     31  C   UNL     1      -1.214  -9.599   7.235  0.00  0.00    +0.004 A 
ATOM     32  C   UNL     1      -0.739 -10.837   6.852  0.00  0.00    +0.046 A 
ATOM     33  C   UNL     1       0.361 -10.930   6.013  0.00  0.00    +0.132 A 
BRANCH  33  34
ATOM     34  O   UNL     1       0.827 -12.146   5.631  0.00  0.00    -0.494 OA
ATOM     35  C   UNL     1       0.132 -13.292   6.128  0.00  0.00    +0.277 C 
ENDBRANCH  33  34
ENDBRANCH  26  28
BRANCH  25  36
ATOM     36  C   UNL     1       3.322  -8.171   6.011  0.00  0.00    +0.030 C 
ATOM     37  C   UNL     1       4.733  -7.989   6.575  0.00  0.00    +0.031 C 
ATOM     38  C   UNL     1       2.872  -6.873   5.337  0.00  0.00    +0.031 C 
ATOM     39  C   UNL     1       2.359  -8.515   7.149  0.00  0.00    +0.031 C 
ENDBRANCH  25  36
ENDBRANCH   1  25
TORSDOF 10
