REMARK  Name = ZINC44853039
REMARK  9 active torsions:
REMARK  status: ('A' for Active; 'I' for Inactive)
REMARK    1  A    between atoms: C_1  and  C_2
REMARK    2  A    between atoms: C_5  and  O_8
REMARK    3  A    between atoms: O_8  and  C_9
REMARK    4  A    between atoms: C_9  and  C_10
REMARK    5  A    between atoms: C_10  and  C_12
REMARK    6  A    between atoms: C_10  and  N_13
REMARK    7  A    between atoms: C_14  and  C_16
REMARK    8  A    between atoms: N_21  and  C_23
REMARK    9  A    between atoms: C_23  and  C_24
REMARK                            x       y       z     vdW  Elec       q    Type
REMARK                         _______ _______ _______ _____ _____    ______ ____
ROOT
ATOM      1  C   UNL     1       3.391  -8.216   0.207  0.00  0.00    +0.058 C 
ATOM      2  C   UNL     1       4.610  -7.458   0.739  0.00  0.00    +0.009 C 
ATOM      3  C   UNL     1       5.867  -7.970   0.031  0.00  0.00    -0.018 C 
ATOM      4  C   UNL     1       5.986  -9.481   0.243  0.00  0.00    -0.078 C 
ATOM      5  N   UNL     1       4.803 -10.151  -0.311  0.00  0.00    +0.383 N 
ATOM      6  C   UNL     1       3.601  -9.718   0.412  0.00  0.00    -0.066 C 
ATOM      7  H   UNL     1       4.710  -9.914  -1.287  0.00  0.00    -0.081 HD
ENDROOT
BRANCH   1   9
ATOM      8  N   UNL     1       1.776  -6.483   0.917  0.00  0.00    -0.309 N 
ATOM      9  C   UNL     1       2.158  -7.775   0.952  0.00  0.00    +0.215 C 
ATOM     10  O   UNL     1       1.510  -8.582   1.584  0.00  0.00    -0.276 OA
ATOM     11  H   UNL     1       2.295  -5.837   0.411  0.00  0.00    +0.149 HD
BRANCH   8  12
ATOM     12  C   UNL     1       0.577  -6.053   1.641  0.00  0.00    +0.107 C 
ATOM     13  C   UNL     1      -0.658  -6.290   0.770  0.00  0.00    +0.031 C 
BRANCH  12  14
ATOM     14  C   UNL     1       0.689  -4.564   1.974  0.00  0.00    +0.251 C 
BRANCH  14  15
ATOM     15  O   UNL     1       0.692  -3.804   0.764  0.00  0.00    -0.490 OA
BRANCH  15  20
ATOM     16  C   UNL     1       1.079   1.793   1.259  0.00  0.00    +0.044 C 
ATOM     17  C   UNL     1       0.976   0.295   1.126  0.00  0.00    -0.050 A 
ATOM     18  C   UNL     1       0.889  -0.282  -0.127  0.00  0.00    +0.007 A 
ATOM     19  C   UNL     1       0.794  -1.655  -0.251  0.00  0.00    +0.046 A 
ATOM     20  C   UNL     1       0.785  -2.454   0.883  0.00  0.00    +0.121 A 
ATOM     21  C   UNL     1       0.873  -1.872   2.139  0.00  0.00    +0.046 A 
ATOM     22  C   UNL     1       0.973  -0.499   2.258  0.00  0.00    +0.007 A 
ENDBRANCH  15  20
ENDBRANCH  14  15
ENDBRANCH  12  14
ENDBRANCH   8  12
ENDBRANCH   1   9
BRANCH   5  23
ATOM     23  C   UNL     1       4.958 -11.605  -0.174  0.00  0.00    -0.042 C 
BRANCH  23  24
ATOM     24  C   UNL     1       6.100 -12.072  -1.040  0.00  0.00    -0.056 A 
ATOM     25  C   UNL     1       7.304 -12.373  -0.481  0.00  0.00    +0.002 A 
ATOM     26  C   UNL     1       8.371 -12.806  -1.265  0.00  0.00    +0.001 A 
ATOM     27  C   UNL     1       8.241 -12.941  -2.613  0.00  0.00    +0.008 A 
ATOM     28  C   UNL     1       7.013 -12.640  -3.226  0.00  0.00    -0.018 A 
ATOM     29  C   UNL     1       5.926 -12.205  -2.428  0.00  0.00    -0.017 A 
ATOM     30  C   UNL     1       4.696 -11.910  -3.041  0.00  0.00    +0.009 A 
ATOM     31  C   UNL     1       4.564 -12.050  -4.388  0.00  0.00    +0.001 A 
ATOM     32  C   UNL     1       5.631 -12.484  -5.172  0.00  0.00    +0.001 A 
ATOM     33  C   UNL     1       6.840 -12.767  -4.615  0.00  0.00    +0.008 A 
ENDBRANCH  23  24
ENDBRANCH   5  23
TORSDOF 7
