REMARK  Name = ZINC16930751
REMARK  8 active torsions:
REMARK  status: ('A' for Active; 'I' for Inactive)
REMARK    1  A    between atoms: C_1  and  C_2
REMARK    2  A    between atoms: C_3  and  N_10
REMARK    3  A    between atoms: C_4  and  C_9
REMARK    4  A    between atoms: N_11  and  C_12
REMARK    5  A    between atoms: C_14  and  O_21
REMARK    6  A    between atoms: C_17  and  O_18
REMARK    7  A    between atoms: O_18  and  C_19
REMARK    8  A    between atoms: O_21  and  C_22
REMARK                            x       y       z     vdW  Elec       q    Type
REMARK                         _______ _______ _______ _____ _____    ______ ____
ROOT
ATOM      1  N   UNL     1       3.614  -0.326  -0.562  0.00  0.00    -0.146 NA
ATOM      2  N   UNL     1       4.627   0.462  -0.685  0.00  0.00    -0.145 NA
ENDROOT
BRANCH   1   5
ATOM      3  C   UNL     1       3.397   2.482  -0.010  0.00  0.00    +0.068 C 
ATOM      4  C   UNL     1       2.212   1.551  -0.007  0.00  0.00    +0.071 A 
ATOM      5  C   UNL     1       2.379   0.187  -0.285  0.00  0.00    +0.128 A 
ATOM      6  C   UNL     1       1.244  -0.637  -0.270  0.00  0.00    +0.071 A 
ATOM      7  N   UNL     1       0.069  -0.101   0.004  0.00  0.00    -0.218 NA
ATOM      8  C   UNL     1      -0.046   1.194   0.261  0.00  0.00    +0.213 A 
ATOM      9  N   UNL     1       1.002   2.007   0.256  0.00  0.00    -0.218 NA
ATOM     10  N   UNL     1      -1.296   1.715   0.536  0.00  0.00    -0.327 N 
ATOM     11  C   UNL     1       1.365  -2.110  -0.561  0.00  0.00    +0.068 C 
ATOM     12  H   UNL     1      -1.411   2.787   0.752  0.00  0.00    +0.145 HD
ATOM     13  H   UNL     1      -2.178   1.056   0.540  0.00  0.00    +0.145 HD
ENDBRANCH   1   5
BRANCH   2  14
ATOM     14  C   UNL     1       5.862  -0.051  -0.962  0.00  0.00    +0.131 A 
ATOM     15  C   UNL     1       6.031  -1.430  -1.114  0.00  0.00    +0.080 A 
ATOM     16  C   UNL     1       7.283  -1.942  -1.395  0.00  0.00    +0.141 A 
ATOM     17  C   UNL     1       8.374  -1.089  -1.527  0.00  0.00    +0.086 A 
ATOM     18  C   UNL     1       8.215   0.276  -1.377  0.00  0.00    +0.071 A 
ATOM     19  C   UNL     1       6.965   0.804  -1.101  0.00  0.00    +0.149 A 
ATOM     20 CL   UNL     1       9.943  -1.742  -1.880  0.00  0.00    -0.080 Cl
BRANCH  19  21
ATOM     21  O   UNL     1       6.809   2.146  -0.960  0.00  0.00    -0.493 OA
ATOM     22  C   UNL     1       7.976   2.955  -1.115  0.00  0.00    +0.277 C 
ENDBRANCH  19  21
BRANCH  16  23
ATOM     23  O   UNL     1       7.450  -3.284  -1.544  0.00  0.00    -0.494 OA
ATOM     24  C   UNL     1       6.287  -4.102  -1.396  0.00  0.00    +0.277 C 
ENDBRANCH  16  23
ENDBRANCH   2  14
TORSDOF 4
