REMARK  Name = ZINC62843529
REMARK  6 active torsions:
REMARK  status: ('A' for Active; 'I' for Inactive)
REMARK    1  A    between atoms: C_1  and  C_2
REMARK    2  A    between atoms: C_2  and  C_4
REMARK    3  A    between atoms: C_2  and  N_8
REMARK    4  A    between atoms: N_6  and  C_7
REMARK    5  A    between atoms: C_14  and  C_17
REMARK    6  A    between atoms: C_14  and  C_18
REMARK                            x       y       z     vdW  Elec       q    Type
REMARK                         _______ _______ _______ _____ _____    ______ ____
ROOT
ATOM      1  N   UNL     1       2.745  -0.264   0.066  0.00  0.00    -0.288 N 
ATOM      2  C   UNL     1       2.054  -0.600   1.174  0.00  0.00    +0.303 C 
ATOM      3  O   UNL     1       0.853  -0.414   1.220  0.00  0.00    -0.253 OA
ATOM      4  N   UNL     1       2.694  -1.141   2.229  0.00  0.00    -0.286 N 
ATOM      5  C   UNL     1       1.940  -1.618   3.397  0.00  0.00    +0.110 C 
ATOM      6  C   UNL     1       2.336  -3.071   3.679  0.00  0.00    +0.037 C 
ATOM      7  C   UNL     1       3.856  -3.161   3.832  0.00  0.00    +0.072 C 
ATOM      8  C   UNL     1       4.529  -2.721   2.529  0.00  0.00    +0.037 C 
ATOM      9  C   UNL     1       4.157  -1.270   2.232  0.00  0.00    +0.110 C 
ATOM     10  C   UNL     1       4.309  -2.247   4.973  0.00  0.00    +0.023 C 
ATOM     11  H   UNL     1       3.712  -0.343   0.056  0.00  0.00    +0.151 HD
ENDROOT
BRANCH   7  12
ATOM     12  C   UNL     1       4.246  -4.583   4.143  0.00  0.00    +0.362 C 
ATOM     13  O   UNL     1       5.330  -5.010   3.783  0.00  0.00    -0.246 OA
ATOM     14  O   UNL     1       3.478  -5.306   4.755  0.00  0.00    -0.246 OA
ENDBRANCH   7  12
BRANCH   1  16
ATOM     15  C   UNL     1       1.565  -0.974  -1.955  0.00  0.00    +0.038 C 
ATOM     16  C   UNL     1       2.036   0.219  -1.121  0.00  0.00    +0.157 C 
BRANCH  16  17
ATOM     17  C   UNL     1       2.964   1.073  -1.946  0.00  0.00    +0.233 C 
ATOM     18  O   UNL     1       4.104   1.260  -1.579  0.00  0.00    -0.274 OA
ATOM     19  N   UNL     1       2.525   1.630  -3.093  0.00  0.00    -0.317 N 
ATOM     20  C   UNL     1       3.427   2.461  -3.895  0.00  0.00    +0.128 C 
ATOM     21  H   UNL     1       1.613   1.481  -3.387  0.00  0.00    +0.148 HD
ENDBRANCH  16  17
ENDBRANCH   1  16
TORSDOF 3
