REMARK  Name = ZINC23822887
REMARK  13 active torsions:
REMARK  status: ('A' for Active; 'I' for Inactive)
REMARK    1  A    between atoms: C_1  and  C_2
REMARK    2  A    between atoms: C_2  and  O_3
REMARK    3  A    between atoms: O_3  and  C_4
REMARK    4  A    between atoms: C_4  and  C_6
REMARK    5  A    between atoms: C_7  and  C_32
REMARK    6  A    between atoms: C_13  and  C_17
REMARK    7  A    between atoms: C_17  and  C_19
REMARK    8  A    between atoms: C_17  and  N_20
REMARK    9  A    between atoms: N_20  and  C_21
REMARK   10  A    between atoms: N_20  and  C_22
REMARK   11  A    between atoms: C_22  and  C_23
REMARK   12  A    between atoms: C_23  and  O_24
REMARK   13  A    between atoms: O_24  and  C_25
REMARK                            x       y       z     vdW  Elec       q    Type
REMARK                         _______ _______ _______ _____ _____    ______ ____
ROOT
ATOM      1  C   UNL     1       1.738  -2.087  -2.393  0.00  0.00    +0.102 A 
ATOM      2  C   UNL     1       1.767  -3.400  -2.766  0.00  0.00    -0.015 A 
ATOM      3  C   UNL     1       2.331  -3.762  -3.991  0.00  0.00    +0.076 A 
ATOM      4  C   UNL     1       2.472  -5.106  -4.596  0.00  0.00    +0.260 A 
ATOM      5  O   UNL     1       2.066  -6.098  -4.017  0.00  0.00    -0.267 OA
ATOM      6  N   UNL     1       3.060  -5.204  -5.804  0.00  0.00    -0.309 N 
ATOM      7  H   UNL     1       3.160  -6.077  -6.215  0.00  0.00    +0.170 HD
ATOM      8  C   UNL     1       3.515  -4.107  -6.459  0.00  0.00    +0.128 A 
ATOM      9  N   UNL     1       3.407  -2.908  -5.954  0.00  0.00    -0.225 NA
ATOM     10  C   UNL     1       2.845  -2.699  -4.771  0.00  0.00    +0.116 A 
ATOM     11  S   UNL     1       2.513  -1.267  -3.776  0.00  0.00    -0.062 S 
ATOM     12  C   UNL     1       1.191  -4.456  -1.859  0.00  0.00    +0.046 C 
ENDROOT
BRANCH   1  13
ATOM     13  C   UNL     1       1.199  -1.498  -1.166  0.00  0.00    +0.346 C 
ATOM     14  O   UNL     1       0.699  -2.211  -0.317  0.00  0.00    -0.244 OA
BRANCH  13  15
ATOM     15  O   UNL     1       1.257  -0.163  -0.976  0.00  0.00    -0.461 OA
BRANCH  15  17
ATOM     16  C   UNL     1       0.868   1.865   0.279  0.00  0.00    +0.048 C 
ATOM     17  C   UNL     1       0.713   0.343   0.244  0.00  0.00    +0.229 C 
ENDBRANCH  15  17
ENDBRANCH  13  15
ENDBRANCH   1  13
BRANCH   8  18
ATOM     18  C   UNL     1       4.164  -4.277  -7.808  0.00  0.00    +0.120 C 
ATOM     19  C   UNL     1       5.297  -5.300  -7.703  0.00  0.00    +0.032 C 
BRANCH  18  20
ATOM     20  N   UNL     1       4.709  -2.988  -8.255  0.00  0.00    -0.293 NA
ATOM     21  C   UNL     1       5.104  -3.045  -9.669  0.00  0.00    +0.105 C 
BRANCH  20  22
ATOM     22  C   UNL     1       5.836  -2.571  -7.410  0.00  0.00    +0.125 C 
BRANCH  22  23
ATOM     23  C   UNL     1       6.214  -1.125  -7.742  0.00  0.00    +0.244 C 
BRANCH  23  24
ATOM     24  O   UNL     1       5.135  -0.258  -7.388  0.00  0.00    -0.491 OA
BRANCH  24  25
ATOM     25  C   UNL     1       5.309   1.070  -7.620  0.00  0.00    +0.121 A 
ATOM     26  C   UNL     1       6.493   1.527  -8.181  0.00  0.00    +0.047 A 
ATOM     27  C   UNL     1       6.668   2.877  -8.415  0.00  0.00    +0.023 A 
ATOM     28  C   UNL     1       5.665   3.773  -8.090  0.00  0.00    +0.041 A 
ATOM     29  C   UNL     1       4.484   3.319  -7.530  0.00  0.00    +0.023 A 
ATOM     30  C   UNL     1       4.302   1.969  -7.301  0.00  0.00    +0.047 A 
ATOM     31 CL   UNL     1       5.889   5.469  -8.386  0.00  0.00    -0.084 Cl
ENDBRANCH  24  25
ENDBRANCH  23  24
ENDBRANCH  22  23
ENDBRANCH  20  22
ENDBRANCH  18  20
ENDBRANCH   8  18
TORSDOF 9
