REMARK  Name = ZINC08739850
REMARK  18 active torsions:
REMARK  status: ('A' for Active; 'I' for Inactive)
REMARK    1  A    between atoms: C_1  and  C_2
REMARK    2  A    between atoms: C_2  and  N_72
REMARK    3  A    between atoms: C_3  and  C_4
REMARK    4  A    between atoms: C_3  and  N_72
REMARK    5  A    between atoms: C_5  and  C_6
REMARK    6  A    between atoms: C_5  and  N_72
REMARK    7  A    between atoms: C_6  and  N_7
REMARK    8  A    between atoms: C_8  and  C_28
REMARK    9  A    between atoms: C_11  and  C_12
REMARK   10  A    between atoms: C_11  and  O_23
REMARK   11  A    between atoms: C_15  and  O_19
REMARK   12  A    between atoms: C_16  and  C_18
REMARK   13  A    between atoms: O_19  and  C_20
REMARK   14  A    between atoms: C_20  and  C_21
REMARK   15  A    between atoms: C_20  and  C_22
REMARK   16  A    between atoms: C_31  and  O_36
REMARK   17  A    between atoms: C_32  and  O_34
REMARK   18  A    between atoms: O_34  and  C_35
REMARK                            x       y       z     vdW  Elec       q    Type
REMARK                         _______ _______ _______ _____ _____    ______ ____
ROOT
ATOM      1  N   UNL     1      -2.679  -4.121  -0.664  0.00  0.00    -0.285 N 
ATOM      2  C   UNL     1      -3.162  -2.849  -0.119  0.00  0.00    +0.144 C 
ATOM      3  C   UNL     1      -1.982  -1.904  -0.118  0.00  0.00    +0.071 C 
ATOM      4  C   UNL     1      -1.972  -0.591   0.311  0.00  0.00    +0.133 C 
ATOM      5  C   UNL     1      -0.902  -2.627  -0.645  0.00  0.00    +0.249 C 
ATOM      6  O   UNL     1       0.228  -2.204  -0.810  0.00  0.00    -0.282 OA
ATOM      7  C   UNL     1      -1.375  -4.000  -0.966  0.00  0.00    +0.288 C 
ATOM      8  O   UNL     1      -0.686  -4.882  -1.437  0.00  0.00    -0.266 OA
ENDROOT
BRANCH   4   9
ATOM      9  C   UNL     1      -0.701   0.144   0.400  0.00  0.00    +0.017 A 
ATOM     10  C   UNL     1      -0.536   1.351  -0.291  0.00  0.00    +0.015 A 
ATOM     11  C   UNL     1       0.655   2.034  -0.204  0.00  0.00    +0.046 A 
ATOM     12  C   UNL     1       1.695   1.528   0.569  0.00  0.00    +0.124 A 
ATOM     13  C   UNL     1       1.537   0.330   1.258  0.00  0.00    -0.008 A 
ATOM     14  C   UNL     1       0.349  -0.361   1.177  0.00  0.00    +0.018 A 
ATOM     15  C   UNL     1       2.667  -0.212   2.093  0.00  0.00    +0.047 C 
BRANCH  12  16
ATOM     16  O   UNL     1       2.867   2.206   0.652  0.00  0.00    -0.489 OA
BRANCH  16  17
ATOM     17  C   UNL     1       3.007   3.364  -0.173  0.00  0.00    +0.167 C 
ATOM     18  C   UNL     1       2.393   4.572   0.537  0.00  0.00    +0.051 C 
ATOM     19  C   UNL     1       4.491   3.627  -0.436  0.00  0.00    +0.051 C 
ENDBRANCH  16  17
ENDBRANCH  12  16
ENDBRANCH   4   9
BRANCH   2  20
ATOM     20  C   UNL     1      -3.666  -3.047   1.287  0.00  0.00    -0.019 A 
ATOM     21  C   UNL     1      -2.999  -3.901   2.146  0.00  0.00    +0.009 A 
ATOM     22  C   UNL     1      -3.458  -4.085   3.437  0.00  0.00    +0.049 A 
ATOM     23  C   UNL     1      -4.588  -3.414   3.873  0.00  0.00    +0.158 A 
ATOM     24  C   UNL     1      -5.260  -2.554   3.009  0.00  0.00    +0.162 A 
ATOM     25  C   UNL     1      -4.792  -2.369   1.718  0.00  0.00    +0.055 A 
BRANCH  24  26
ATOM     26  O   UNL     1      -6.370  -1.892   3.433  0.00  0.00    -0.491 OA
ATOM     27  C   UNL     1      -7.007  -1.026   2.492  0.00  0.00    +0.277 C 
ENDBRANCH  24  26
BRANCH  23  28
ATOM     28  O   UNL     1      -5.040  -3.594   5.143  0.00  0.00    -0.503 OA
ATOM     29  H   UNL     1      -4.667  -2.975   5.785  0.00  0.00    +0.292 HD
ENDBRANCH  23  28
ENDBRANCH   2  20
BRANCH   4  30
ATOM     30  O   UNL     1      -3.129   0.019   0.648  0.00  0.00    -0.506 OA
ATOM     31  H   UNL     1      -2.939   0.958   0.934  0.00  0.00    +0.292 HD
ENDBRANCH   4  30
BRANCH   1  32
ATOM     32  C   UNL     1      -3.487  -5.329  -0.849  0.00  0.00    +0.090 C 
BRANCH  32  33
ATOM     33  C   UNL     1      -4.117  -5.313  -2.243  0.00  0.00    -0.060 C 
BRANCH  33  34
ATOM     34  N   UNL     1      -4.911  -6.546  -2.422  0.00  0.00    +0.380 N 
ATOM     35  H   UNL     1      -4.325  -7.357  -2.189  0.00  0.00    -0.082 HD
BRANCH  34  37
ATOM     36  C   UNL     1      -7.006  -5.356  -1.867  0.00  0.00    -0.017 C 
ATOM     37  C   UNL     1      -6.084  -6.527  -1.522  0.00  0.00    -0.082 C 
ENDBRANCH  34  37
BRANCH  34  38
ATOM     38  C   UNL     1      -5.355  -6.663  -3.827  0.00  0.00    -0.082 C 
ATOM     39  C   UNL     1      -5.851  -8.089  -4.070  0.00  0.00    -0.017 C 
ENDBRANCH  34  38
ENDBRANCH  33  34
ENDBRANCH  32  33
ENDBRANCH   1  32
TORSDOF 12
