REMARK  Name = ZINC39560906
REMARK  13 active torsions:
REMARK  status: ('A' for Active; 'I' for Inactive)
REMARK    1  A    between atoms: C_1  and  C_2
REMARK    2  A    between atoms: C_2  and  C_3
REMARK    3  A    between atoms: C_2  and  C_4
REMARK    4  A    between atoms: C_7  and  C_10
REMARK    5  A    between atoms: C_13  and  N_35
REMARK    6  A    between atoms: C_19  and  C_31
REMARK    7  A    between atoms: C_31  and  O_33
REMARK    8  A    between atoms: O_33  and  C_34
REMARK    9  A    between atoms: N_35  and  C_36
REMARK   10  A    between atoms: C_36  and  C_37
REMARK   11  A    between atoms: C_37  and  N_38
REMARK   12  A    between atoms: N_38  and  C_39
REMARK   13  A    between atoms: N_38  and  C_40
REMARK                            x       y       z     vdW  Elec       q    Type
REMARK                         _______ _______ _______ _____ _____    ______ ____
ROOT
ATOM      1  C   UNL     1       2.819  -2.177   5.055  0.00  0.00    -0.034 C 
ATOM      2  C   UNL     1       3.189  -3.662   5.061  0.00  0.00    +0.008 C 
ATOM      3  C   UNL     1       3.737  -4.046   6.438  0.00  0.00    +0.051 C 
ATOM      4  C   UNL     1       2.701  -3.695   7.511  0.00  0.00    +0.009 C 
ATOM      5  C   UNL     1       2.367  -2.206   7.411  0.00  0.00    -0.015 C 
ATOM      6  N   UNL     1       1.802  -1.924   6.082  0.00  0.00    +0.399 N 
ATOM      7  C   UNL     1       1.331  -0.538   6.003  0.00  0.00    +0.049 C 
ATOM      8  C   UNL     1       0.026  -0.384   6.798  0.00  0.00    +0.033 C 
ATOM      9  C   UNL     1       0.245  -0.989   8.162  0.00  0.00    -0.023 C 
ATOM     10  C   UNL     1      -0.473  -0.867   9.288  0.00  0.00    -0.014 C 
ATOM     11  C   UNL     1      -1.731  -0.096   9.575  0.00  0.00    +0.064 C 
ATOM     12  C   UNL     1      -2.131  -0.293  11.009  0.00  0.00    -0.022 C 
ATOM     13  C   UNL     1      -1.469  -1.038  11.888  0.00  0.00    -0.002 C 
ATOM     14  C   UNL     1      -0.289  -1.748  11.579  0.00  0.00    +0.028 C 
ATOM     15  C   UNL     1       0.196  -1.653  10.275  0.00  0.00    +0.068 C 
ATOM     16  N   UNL     1       1.275  -2.207   9.704  0.00  0.00    -0.253 NA
ATOM     17  C   UNL     1       1.348  -1.836   8.460  0.00  0.00    +0.032 C 
ATOM     18  H   UNL     1       1.017  -2.537   5.924  0.00  0.00    -0.079 HD
ENDROOT
BRANCH   1  22
ATOM     19  C   UNL     1       1.268  -1.113   1.220  0.00  0.00    -0.045 A 
ATOM     20  C   UNL     1       2.579  -0.818   1.541  0.00  0.00    +0.004 A 
ATOM     21  C   UNL     1       3.082  -1.162   2.782  0.00  0.00    +0.002 A 
ATOM     22  C   UNL     1       2.271  -1.801   3.703  0.00  0.00    -0.061 A 
ATOM     23  C   UNL     1       0.959  -2.095   3.382  0.00  0.00    +0.002 A 
ATOM     24  C   UNL     1       0.456  -1.747   2.142  0.00  0.00    +0.004 A 
BRANCH  19  26
ATOM     25  C   UNL     1       0.821   0.777  -0.322  0.00  0.00    +0.012 C 
ATOM     26  C   UNL     1       0.720  -0.738  -0.133  0.00  0.00    +0.013 C 
ATOM     27  C   UNL     1       1.530  -1.442  -1.224  0.00  0.00    +0.012 C 
ENDBRANCH  19  26
ENDBRANCH   1  22
BRANCH   7  28
ATOM     28  C   UNL     1       2.378   0.380   6.579  0.00  0.00    +0.294 C 
ATOM     29  O   UNL     1       2.802   0.189   7.694  0.00  0.00    -0.253 OA
BRANCH  28  30
ATOM     30  O   UNL     1       2.838   1.411   5.853  0.00  0.00    -0.469 OA
ATOM     31  C   UNL     1       3.830   2.241   6.462  0.00  0.00    +0.280 C 
ENDBRANCH  28  30
ENDBRANCH   7  28
BRANCH   3  32
ATOM     32  N   UNL     1       4.980  -3.307   6.695  0.00  0.00    -0.315 NA
ATOM     33  H   UNL     1       4.915  -2.360   6.351  0.00  0.00    +0.122 HD
BRANCH  32  34
ATOM     34  C   UNL     1       6.136  -4.001   6.112  0.00  0.00    +0.062 C 
BRANCH  34  35
ATOM     35  C   UNL     1       7.409  -3.202   6.399  0.00  0.00    -0.064 C 
BRANCH  35  36
ATOM     36  N   UNL     1       8.565  -3.896   5.815  0.00  0.00    +0.377 N 
ATOM     37  C   UNL     1       9.768  -3.072   5.986  0.00  0.00    -0.097 C 
ATOM     38  C   UNL     1       8.754  -5.186   6.492  0.00  0.00    -0.097 C 
ATOM     39  H   UNL     1       8.401  -4.053   4.832  0.00  0.00    -0.083 HD
ENDBRANCH  35  36
ENDBRANCH  34  35
ENDBRANCH  32  34
ENDBRANCH   3  32
TORSDOF 8
