REMARK  Name = ZINC14461236
REMARK  6 active torsions:
REMARK  status: ('A' for Active; 'I' for Inactive)
REMARK    1  A    between atoms: C_6  and  S_7
REMARK    2  A    between atoms: S_7  and  N_10
REMARK    3  A    between atoms: N_10  and  C_11
REMARK    4  A    between atoms: C_11  and  C_12
REMARK    5  A    between atoms: C_25  and  C_28
REMARK    6  A    between atoms: C_33  and  O_34
REMARK                            x       y       z     vdW  Elec       q    Type
REMARK                         _______ _______ _______ _____ _____    ______ ____
ROOT
ATOM      1  C   UNL     1       4.016   2.422  -0.131  0.00  0.00    +0.030 A 
ATOM      2  C   UNL     1       3.367   2.033  -1.285  0.00  0.00    +0.025 A 
ATOM      3  C   UNL     1       2.046   1.606  -1.237  0.00  0.00    +0.031 A 
ATOM      4  C   UNL     1       1.387   1.565  -0.003  0.00  0.00    -0.018 A 
ATOM      5  C   UNL     1       2.042   1.960   1.143  0.00  0.00    +0.034 A 
ATOM      6  C   UNL     1       3.356   2.389   1.083  0.00  0.00    +0.106 A 
ATOM      7  C   UNL     1      -0.013   1.086   0.008  0.00  0.00    +0.049 C 
ATOM      8  C   UNL     1      -0.986   1.527   1.040  0.00  0.00    -0.023 C 
ATOM      9  C   UNL     1      -2.188   1.564   0.527  0.00  0.00    -0.030 C 
ATOM     10  C   UNL     1      -2.129   1.174  -0.951  0.00  0.00    +0.033 C 
ATOM     11  C   UNL     1      -0.689   1.556  -1.315  0.00  0.00    +0.029 C 
ATOM     12  C   UNL     1      -0.003   0.772  -2.420  0.00  0.00    +0.108 C 
ATOM     13  N   UNL     1       1.402   1.236  -2.424  0.00  0.00    -0.336 N 
ATOM     14  H   UNL     1       1.885   1.285  -3.263  0.00  0.00    +0.147 HD
ENDROOT
BRANCH  12  15
ATOM     15  C   UNL     1      -0.063  -0.705  -2.129  0.00  0.00    +0.015 A 
ATOM     16  C   UNL     1       0.960  -1.313  -1.426  0.00  0.00    +0.024 A 
ATOM     17  C   UNL     1       0.905  -2.669  -1.159  0.00  0.00    +0.018 A 
ATOM     18  C   UNL     1      -0.173  -3.419  -1.594  0.00  0.00    +0.019 A 
ATOM     19  C   UNL     1      -1.197  -2.815  -2.296  0.00  0.00    +0.047 A 
ATOM     20  C   UNL     1      -1.147  -1.454  -2.561  0.00  0.00    +0.122 A 
ATOM     21 BR   UNL     1       2.306  -3.499  -0.197  0.00  0.00    -0.050 Br
BRANCH  20  22
ATOM     22  O   UNL     1      -2.157  -0.857  -3.247  0.00  0.00    -0.506 OA
ATOM     23  H   UNL     1      -2.031  -0.850  -4.206  0.00  0.00    +0.292 HD
ENDBRANCH  20  22
ENDBRANCH  12  15
BRANCH   6  24
ATOM     24  S   UNL     1       4.186   2.893   2.553  0.00  0.00    +0.058 S 
ATOM     25  O   UNL     1       3.524   2.251   3.634  0.00  0.00    -0.153 OA
ATOM     26  O   UNL     1       5.577   2.732   2.309  0.00  0.00    -0.153 OA
BRANCH  24  27
ATOM     27  N   UNL     1       3.921   4.517   2.732  0.00  0.00    -0.187 NA
ATOM     28  H   UNL     1       4.664   5.139   2.678  0.00  0.00    +0.148 HD
BRANCH  27  29
ATOM     29  C   UNL     1       2.565   5.016   2.973  0.00  0.00    +0.137 C 
BRANCH  29  30
ATOM     30  C   UNL     1       2.634   6.462   3.467  0.00  0.00    +0.134 C 
ATOM     31  C   UNL     1       1.219   6.959   3.834  0.00  0.00    +0.035 C 
ATOM     32  C   UNL     1       1.240   8.424   3.318  0.00  0.00    +0.031 C 
ATOM     33  C   UNL     1       2.140   8.282   2.065  0.00  0.00    +0.160 C 
ATOM     34  O   UNL     1       3.133   7.309   2.425  0.00  0.00    -0.375 OA
ENDBRANCH  29  30
ENDBRANCH  27  29
ENDBRANCH  24  27
ENDBRANCH   6  24
TORSDOF 6
