REMARK  Name = ZINC09673128
REMARK  7 active torsions:
REMARK  status: ('A' for Active; 'I' for Inactive)
REMARK    1  A    between atoms: C_1  and  C_2
REMARK    2  A    between atoms: C_5  and  S_24
REMARK    3  A    between atoms: C_10  and  C_11
REMARK    4  A    between atoms: N_13  and  C_14
REMARK    5  A    between atoms: C_14  and  C_15
REMARK    6  A    between atoms: S_24  and  N_27
REMARK    7  A    between atoms: C_31  and  C_34
REMARK                            x       y       z     vdW  Elec       q    Type
REMARK                         _______ _______ _______ _____ _____    ______ ____
ROOT
ATOM      1  C   UNL     1       3.039   5.053   0.000  0.00  0.00    +0.048 C 
ATOM      2  C   UNL     1       2.535   3.633  -0.003  0.00  0.00    +0.008 A 
ATOM      3  C   UNL     1       1.139   3.195   0.008  0.00  0.00    +0.026 A 
ATOM      4  C   UNL     1      -0.089   3.860   0.024  0.00  0.00    +0.040 A 
ATOM      5  C   UNL     1      -1.249   3.138   0.030  0.00  0.00    +0.106 A 
ATOM      6  C   UNL     1      -1.214   1.750   0.017  0.00  0.00    +0.032 A 
ATOM      7  C   UNL     1      -0.013   1.076   0.008  0.00  0.00    +0.049 A 
ATOM      8  C   UNL     1       1.181   1.789   0.000  0.00  0.00    +0.136 A 
ATOM      9  O   UNL     1       2.476   1.420  -0.014  0.00  0.00    -0.450 OA
ATOM     10  C   UNL     1       3.284   2.501  -0.017  0.00  0.00    +0.193 A 
ENDROOT
BRANCH  10  11
ATOM     11  C   UNL     1       4.753   2.459  -0.031  0.00  0.00    +0.280 C 
ATOM     12  O   UNL     1       5.391   3.494  -0.031  0.00  0.00    -0.267 OA
ATOM     13  N   UNL     1       5.394   1.273  -0.043  0.00  0.00    -0.305 N 
ATOM     14  H   UNL     1       4.885   0.447  -0.043  0.00  0.00    +0.149 HD
BRANCH  13  15
ATOM     15  C   UNL     1       6.858   1.231  -0.057  0.00  0.00    +0.145 C 
BRANCH  15  16
ATOM     16  C   UNL     1       7.319  -0.204  -0.070  0.00  0.00    +0.040 A 
ATOM     17  C   UNL     1       7.548  -0.868   1.123  0.00  0.00    +0.134 A 
ATOM     18  C   UNL     1       7.968  -2.187   1.111  0.00  0.00    +0.077 A 
ATOM     19  C   UNL     1       8.168  -2.839  -0.093  0.00  0.00    +0.129 A 
ATOM     20  C   UNL     1       7.944  -2.174  -1.286  0.00  0.00    +0.077 A 
ATOM     21  C   UNL     1       7.520  -0.856  -1.274  0.00  0.00    +0.134 A 
ATOM     22  F   UNL     1       7.302  -0.206  -2.439  0.00  0.00    -0.205 F 
ATOM     23  F   UNL     1       8.582  -4.125  -0.104  0.00  0.00    -0.205 F 
ATOM     24  F   UNL     1       7.357  -0.230   2.299  0.00  0.00    -0.205 F 
ENDBRANCH  15  16
ENDBRANCH  13  15
ENDBRANCH  10  11
BRANCH   5  25
ATOM     25  S   UNL     1      -2.800   3.974   0.049  0.00  0.00    +0.061 S 
ATOM     26  O   UNL     1      -3.744   3.067   0.604  0.00  0.00    -0.153 OA
ATOM     27  O   UNL     1      -2.562   5.260   0.605  0.00  0.00    -0.153 OA
BRANCH  25  28
ATOM     28  N   UNL     1      -3.246   4.215  -1.527  0.00  0.00    -0.176 NA
ATOM     29  C   UNL     1      -4.047   3.211  -2.240  0.00  0.00    +0.109 C 
ATOM     30  C   UNL     1      -5.286   3.895  -2.827  0.00  0.00    +0.017 C 
ATOM     31  C   UNL     1      -4.849   5.080  -3.691  0.00  0.00    +0.006 C 
ATOM     32  C   UNL     1      -4.100   6.096  -2.826  0.00  0.00    +0.002 C 
ATOM     33  C   UNL     1      -2.853   5.439  -2.238  0.00  0.00    +0.112 C 
ATOM     34  C   UNL     1      -3.693   7.295  -3.684  0.00  0.00    +0.009 C 
ENDBRANCH  25  28
ENDBRANCH   5  25
TORSDOF 5
