REMARK  Name = ZINC62427559
REMARK  2 active torsions:
REMARK  status: ('A' for Active; 'I' for Inactive)
REMARK    1  A    between atoms: C_10  and  C_16
REMARK    2  A    between atoms: C_11  and  C_14
REMARK                            x       y       z     vdW  Elec       q    Type
REMARK                         _______ _______ _______ _____ _____    ______ ____
ROOT
ATOM      1  C   UNL     1      -0.102   1.370  -0.183  0.00  0.00    +0.006 C 
ATOM      2  C   UNL     1       1.339   1.872  -0.314  0.00  0.00    +0.006 C 
ATOM      3  C   UNL     1       2.071   1.633   1.017  0.00  0.00    +0.044 C 
ATOM      4  C   UNL     1       1.792   0.237   1.458  0.00  0.00    +0.015 A 
ATOM      5  C   UNL     1       0.832  -0.606   0.991  0.00  0.00    +0.054 A 
ATOM      6  N   UNL     1       0.812  -1.802   1.567  0.00  0.00    -0.226 NA
ATOM      7  C   UNL     1       1.659  -2.133   2.515  0.00  0.00    +0.196 A 
ATOM      8  S   UNL     1       2.597  -0.744   2.693  0.00  0.00    -0.052 S 
ATOM      9  N   UNL     1       1.759  -3.340   3.206  0.00  0.00    -0.183 N 
ATOM     10  C   UNL     1       0.741  -4.041   3.751  0.00  0.00    +0.180 A 
ATOM     11  C   UNL     1       1.300  -5.162   4.331  0.00  0.00    +0.157 A 
ATOM     12  N   UNL     1       2.630  -5.120   4.129  0.00  0.00    -0.126 NA
ATOM     13  N   UNL     1       2.933  -4.061   3.463  0.00  0.00    -0.058 NA
ATOM     14  C   UNL     1      -0.122  -0.159  -0.108  0.00  0.00    +0.056 C 
ENDROOT
BRANCH  10  15
ATOM     15  C   UNL     1      -0.720  -3.671   3.731  0.00  0.00    +0.437 C 
ATOM     16  F   UNL     1      -1.333  -4.255   2.617  0.00  0.00    -0.164 F 
ATOM     17  F   UNL     1      -1.335  -4.135   4.898  0.00  0.00    -0.164 F 
ATOM     18  F   UNL     1      -0.848  -2.280   3.657  0.00  0.00    -0.164 F 
ENDBRANCH  10  15
BRANCH  11  19
ATOM     19  C   UNL     1       0.570  -6.217   5.044  0.00  0.00    +0.282 C 
ATOM     20  O   UNL     1       1.172  -7.159   5.514  0.00  0.00    -0.294 OA
ENDBRANCH  11  19
TORSDOF 2
