REMARK  Name = ZINC66201840
REMARK  16 active torsions:
REMARK  status: ('A' for Active; 'I' for Inactive)
REMARK    1  A    between atoms: C_1  and  C_2
REMARK    2  A    between atoms: C_5  and  C_32
REMARK    3  A    between atoms: C_6  and  O_8
REMARK    4  A    between atoms: O_8  and  C_9
REMARK    5  A    between atoms: C_9  and  C_10
REMARK    6  A    between atoms: C_10  and  C_11
REMARK    7  A    between atoms: C_11  and  C_12
REMARK    8  A    between atoms: C_12  and  C_13
REMARK    9  A    between atoms: C_12  and  C_14
REMARK   10  A    between atoms: C_12  and  C_15
REMARK   11  A    between atoms: N_17  and  C_18
REMARK   12  A    between atoms: C_18  and  N_20
REMARK   13  A    between atoms: N_20  and  C_21
REMARK   14  A    between atoms: C_21  and  C_22
REMARK   15  A    between atoms: C_25  and  S_28
REMARK   16  A    between atoms: S_28  and  N_31
REMARK                            x       y       z     vdW  Elec       q    Type
REMARK                         _______ _______ _______ _____ _____    ______ ____
ROOT
ATOM      1  C   UNL     1       0.071  -2.250   8.534  0.00  0.00    +0.224 C 
ATOM      2  O   UNL     1       0.055  -1.039   8.479  0.00  0.00    -0.275 OA
ATOM      3  N   UNL     1       0.085  -2.870   9.731  0.00  0.00    -0.267 N 
ATOM      4  H   UNL     1       0.098  -3.839   9.775  0.00  0.00    +0.157 HD
ENDROOT
BRANCH   1   5
ATOM      5  C   UNL     1       0.076  -3.062   7.265  0.00  0.00    +0.042 C 
ATOM      6  C   UNL     1      -1.161  -3.961   7.230  0.00  0.00    +0.020 C 
ATOM      7  C   UNL     1       1.337  -3.928   7.218  0.00  0.00    +0.020 C 
BRANCH   5   8
ATOM      8  C   UNL     1       0.058  -2.122   6.058  0.00  0.00    +0.019 C 
BRANCH   8   9
ATOM      9  C   UNL     1       0.063  -2.946   4.769  0.00  0.00    +0.042 C 
BRANCH   9  10
ATOM     10  C   UNL     1       0.045  -2.006   3.562  0.00  0.00    +0.229 C 
BRANCH  10  11
ATOM     11  O   UNL     1       0.050  -2.776   2.358  0.00  0.00    -0.492 OA
BRANCH  11  17
ATOM     12  C   UNL     1      -0.018   1.503   0.010  0.00  0.00    +0.044 C 
ATOM     13  C   UNL     1       0.002  -0.004   0.002  0.00  0.00    -0.047 A 
ATOM     14  C   UNL     1       0.006  -0.688  -1.200  0.00  0.00    +0.004 A 
ATOM     15  C   UNL     1       0.024  -2.071  -1.211  0.00  0.00    +0.007 A 
ATOM     16  C   UNL     1       0.039  -2.772  -0.020  0.00  0.00    -0.009 A 
ATOM     17  C   UNL     1       0.035  -2.088   1.186  0.00  0.00    +0.124 A 
ATOM     18  C   UNL     1       0.023  -0.700   1.195  0.00  0.00    +0.049 A 
ATOM     19  C   UNL     1       0.059  -4.279  -0.033  0.00  0.00    +0.047 C 
ENDBRANCH  11  17
ENDBRANCH  10  11
ENDBRANCH   9  10
ENDBRANCH   8   9
ENDBRANCH   5   8
ENDBRANCH   1   5
BRANCH   3  20
ATOM     20  C   UNL     1       0.080  -2.144  10.867  0.00  0.00    +0.137 C 
ATOM     21  S   UNL     1       0.057  -0.434  10.789  0.00  0.00    -0.018 S 
BRANCH  20  22
ATOM     22  N   UNL     1       0.094  -2.764  12.063  0.00  0.00    -0.322 N 
ATOM     23  H   UNL     1       0.107  -3.733  12.107  0.00  0.00    +0.148 HD
BRANCH  22  24
ATOM     24  C   UNL     1       0.089  -1.974  13.297  0.00  0.00    +0.138 C 
BRANCH  24  25
ATOM     25  C   UNL     1       0.107  -2.901  14.486  0.00  0.00    -0.030 A 
ATOM     26  C   UNL     1      -1.082  -3.346  15.033  0.00  0.00    +0.007 A 
ATOM     27  C   UNL     1      -1.066  -4.195  16.123  0.00  0.00    +0.029 A 
ATOM     28  C   UNL     1       0.139  -4.600  16.666  0.00  0.00    +0.105 A 
ATOM     29  C   UNL     1       1.328  -4.156  16.119  0.00  0.00    +0.029 A 
ATOM     30  C   UNL     1       1.312  -3.309  15.026  0.00  0.00    +0.007 A 
BRANCH  28  31
ATOM     31  S   UNL     1       0.160  -5.682  18.057  0.00  0.00    +0.056 S 
ATOM     32  O   UNL     1       1.403  -5.476  18.713  0.00  0.00    -0.153 OA
ATOM     33  O   UNL     1      -1.087  -5.517  18.718  0.00  0.00    -0.153 OA
BRANCH  31  34
ATOM     34  N   UNL     1       0.184  -7.231  17.472  0.00  0.00    -0.204 NA
ATOM     35  H   UNL     1       0.617  -7.935  17.980  0.00  0.00    +0.144 HD
ATOM     36  H   UNL     1      -0.234  -7.435  16.621  0.00  0.00    +0.144 HD
ENDBRANCH  31  34
ENDBRANCH  28  31
ENDBRANCH  24  25
ENDBRANCH  22  24
ENDBRANCH  20  22
ENDBRANCH   3  20
TORSDOF 12
