REMARK  Name = ZINC36146612
REMARK  12 active torsions:
REMARK  status: ('A' for Active; 'I' for Inactive)
REMARK    1  A    between atoms: C_3  and  C_8
REMARK    2  A    between atoms: C_8  and  N_9
REMARK    3  A    between atoms: N_9  and  C_10
REMARK    4  A    between atoms: N_9  and  C_24
REMARK    5  A    between atoms: C_10  and  C_11
REMARK    6  A    between atoms: C_14  and  C_17
REMARK    7  A    between atoms: C_24  and  C_25
REMARK    8  A    between atoms: C_25  and  C_27
REMARK    9  A    between atoms: C_25  and  O_35
REMARK   10  A    between atoms: C_27  and  O_28
REMARK   11  A    between atoms: O_28  and  C_29
REMARK   12  A    between atoms: C_29  and  C_30
REMARK                            x       y       z     vdW  Elec       q    Type
REMARK                         _______ _______ _______ _____ _____    ______ ____
ROOT
ATOM      1  N   UNL     1       4.038   2.338   1.452  0.00  0.00    +0.387 N 
ATOM      2  H   UNL     1       3.222   2.661   1.951  0.00  0.00    -0.081 HD
ENDROOT
BRANCH   1   3
ATOM      3  C   UNL     1       3.742   2.280   0.014  0.00  0.00    -0.043 C 
BRANCH   3   6
ATOM      4  C   UNL     1       6.216  -0.044  -1.639  0.00  0.00    +0.002 A 
ATOM      5  C   UNL     1       5.106   0.420  -0.958  0.00  0.00    +0.002 A 
ATOM      6  C   UNL     1       4.952   1.774  -0.728  0.00  0.00    -0.063 A 
ATOM      7  C   UNL     1       5.908   2.665  -1.179  0.00  0.00    +0.021 A 
ATOM      8  C   UNL     1       7.019   2.201  -1.860  0.00  0.00    +0.041 A 
ATOM      9  C   UNL     1       7.173   0.846  -2.090  0.00  0.00    +0.020 A 
ATOM     10 CL   UNL     1       8.219   3.320  -2.428  0.00  0.00    -0.084 Cl
ENDBRANCH   3   6
ENDBRANCH   1   3
BRANCH   1  11
ATOM     11  C   UNL     1       5.153   3.267   1.684  0.00  0.00    -0.030 C 
BRANCH  11  12
ATOM     12  C   UNL     1       4.724   4.684   1.301  0.00  0.00    +0.194 C 
ATOM     13  C   UNL     1       5.889   5.685   1.488  0.00  0.00    +0.104 C 
ATOM     14  C   UNL     1       5.182   6.921   2.010  0.00  0.00    +0.091 C 
ATOM     15  N   UNL     1       4.000   6.577   2.400  0.00  0.00    -0.089 NA
ATOM     16  O   UNL     1       3.745   5.196   2.228  0.00  0.00    -0.392 OA
BRANCH  14  17
ATOM     17  C   UNL     1       5.748   8.283   2.065  0.00  0.00    -0.000 A 
ATOM     18  C   UNL     1       7.045   8.522   1.604  0.00  0.00    +0.012 A 
ATOM     19  C   UNL     1       7.568   9.797   1.657  0.00  0.00    +0.039 A 
ATOM     20  C   UNL     1       6.810  10.839   2.167  0.00  0.00    +0.123 A 
ATOM     21  C   UNL     1       5.523  10.608   2.626  0.00  0.00    +0.039 A 
ATOM     22  C   UNL     1       4.987   9.338   2.572  0.00  0.00    +0.012 A 
ATOM     23  F   UNL     1       7.329  12.086   2.217  0.00  0.00    -0.205 F 
ENDBRANCH  14  17
ENDBRANCH  11  12
ENDBRANCH   1  11
BRANCH   1  24
ATOM     24  C   UNL     1       4.408   1.000   1.931  0.00  0.00    -0.044 C 
BRANCH  24  25
ATOM     25  C   UNL     1       3.200   0.067   1.821  0.00  0.00    +0.124 C 
BRANCH  25  26
ATOM     26  O   UNL     1       2.146   0.551   2.656  0.00  0.00    -0.391 OA
ATOM     27  H   UNL     1       2.380   0.606   3.593  0.00  0.00    +0.210 HD
ENDBRANCH  25  26
BRANCH  25  28
ATOM     28  C   UNL     1       3.600  -1.340   2.268  0.00  0.00    +0.189 C 
BRANCH  28  29
ATOM     29  O   UNL     1       2.507  -2.236   2.056  0.00  0.00    -0.370 OA
BRANCH  29  30
ATOM     30  C   UNL     1       2.777  -3.585   2.443  0.00  0.00    +0.234 C 
BRANCH  30  31
ATOM     31  C   UNL     1       1.563  -4.437   2.177  0.00  0.00    +0.130 A 
ATOM     32  C   UNL     1       1.302  -5.100   1.036  0.00  0.00    +0.047 A 
ATOM     33  C   UNL     1       0.068  -5.764   1.221  0.00  0.00    +0.041 A 
ATOM     34  C   UNL     1      -0.352  -5.467   2.464  0.00  0.00    +0.195 A 
ATOM     35  O   UNL     1       0.560  -4.668   3.040  0.00  0.00    -0.465 OA
ENDBRANCH  30  31
ENDBRANCH  29  30
ENDBRANCH  28  29
ENDBRANCH  25  28
ENDBRANCH  24  25
ENDBRANCH   1  24
TORSDOF 12
