REMARK  Name = ZINC29549084
REMARK  4 active torsions:
REMARK  status: ('A' for Active; 'I' for Inactive)
REMARK    1  A    between atoms: C_6  and  C_7
REMARK    2  A    between atoms: N_9  and  N_10
REMARK    3  A    between atoms: C_11  and  C_13
REMARK    4  A    between atoms: N_17  and  C_19
REMARK                            x       y       z     vdW  Elec       q    Type
REMARK                         _______ _______ _______ _____ _____    ______ ____
ROOT
ATOM      1  N   UNL     1      -2.124  -3.068   0.007  0.00  0.00    -0.234 N 
ATOM      2  C   UNL     1      -1.959  -4.405  -0.002  0.00  0.00    +0.234 C 
ATOM      3  O   UNL     1      -0.843  -4.879  -0.016  0.00  0.00    -0.274 OA
ATOM      4  H   UNL     1      -3.017  -2.689   0.018  0.00  0.00    +0.173 HD
ENDROOT
BRANCH   2   5
ATOM      5  C   UNL     1      -3.163  -5.312   0.005  0.00  0.00    +0.102 C 
ATOM      6  C   UNL     1      -3.949  -5.199  -1.322  0.00  0.00    +0.110 C 
ATOM      7  C   UNL     1      -3.384  -6.308  -2.183  0.00  0.00    +0.217 C 
ATOM      8  O   UNL     1      -3.523  -6.392  -3.385  0.00  0.00    -0.276 OA
ATOM      9  N   UNL     1      -2.706  -7.184  -1.423  0.00  0.00    -0.298 N 
ATOM     10  C   UNL     1      -2.736  -6.797  -0.007  0.00  0.00    +0.121 C 
BRANCH   9  11
ATOM     11  C   UNL     1      -2.025  -8.373  -1.940  0.00  0.00    +0.076 C 
ATOM     12  C   UNL     1      -1.919  -8.522  -3.459  0.00  0.00    +0.024 C 
ATOM     13  C   UNL     1      -2.877  -9.415  -2.668  0.00  0.00    +0.024 C 
ENDBRANCH   9  11
ENDBRANCH   2   5
BRANCH   1  16
ATOM     14  C   UNL     1      -1.169  -0.887   0.009  0.00  0.00    +0.276 C 
ATOM     15  O   UNL     1      -2.289  -0.411   0.022  0.00  0.00    -0.267 OA
ATOM     16  N   UNL     1      -1.005  -2.224   0.000  0.00  0.00    -0.229 N 
ATOM     17  H   UNL     1      -0.112  -2.603  -0.011  0.00  0.00    +0.173 HD
BRANCH  14  23
ATOM     18  C   UNL     1      -0.017   1.375   0.010  0.00  0.00    +0.047 A 
ATOM     19  C   UNL     1       1.315   1.804  -0.001  0.00  0.00    +0.036 A 
ATOM     20  C   UNL     1       2.106   0.704  -0.014  0.00  0.00    +0.098 A 
ATOM     21  N   UNL     1       1.320  -0.401  -0.013  0.00  0.00    -0.356 N 
ATOM     22  H   UNL     1       1.634  -1.319  -0.021  0.00  0.00    +0.166 HD
ATOM     23  C   UNL     1       0.002  -0.004   0.002  0.00  0.00    +0.104 A 
ATOM     24 BR   UNL     1       1.905   3.600   0.003  0.00  0.00    -0.049 Br
ENDBRANCH  14  23
ENDBRANCH   1  16
TORSDOF 4
