REMARK  Name = ZINC66568518
REMARK  8 active torsions:
REMARK  status: ('A' for Active; 'I' for Inactive)
REMARK    1  A    between atoms: C_1  and  C_2
REMARK    2  A    between atoms: C_2  and  C_3
REMARK    3  A    between atoms: C_10  and  C_12
REMARK    4  A    between atoms: C_12  and  N_13
REMARK    5  A    between atoms: C_16  and  C_19
REMARK    6  A    between atoms: C_19  and  C_20
REMARK    7  A    between atoms: N_25  and  C_28
REMARK    8  A    between atoms: C_28  and  C_29
REMARK                            x       y       z     vdW  Elec       q    Type
REMARK                         _______ _______ _______ _____ _____    ______ ____
ROOT
ATOM      1  N   UNL     1       1.148  -4.706  -5.372  0.00  0.00    +0.385 N 
ATOM      2  C   UNL     1       0.798  -5.920  -4.626  0.00  0.00    -0.078 C 
ATOM      3  C   UNL     1      -0.051  -6.838  -5.507  0.00  0.00    -0.015 C 
ATOM      4  C   UNL     1       0.748  -7.219  -6.757  0.00  0.00    -0.006 C 
ATOM      5  C   UNL     1       1.172  -5.942  -7.488  0.00  0.00    -0.015 C 
ATOM      6  C   UNL     1       1.976  -5.056  -6.533  0.00  0.00    -0.078 C 
ATOM      7  H   UNL     1       0.304  -4.251  -5.687  0.00  0.00    -0.081 HD
ENDROOT
BRANCH   1   8
ATOM      8  C   UNL     1       1.897  -3.793  -4.497  0.00  0.00    +0.019 C 
BRANCH   8  15
ATOM      9  C   UNL     1       0.718  -0.497  -1.257  0.00  0.00    +0.135 C 
ATOM     10  C   UNL     1       0.633  -2.026  -1.328  0.00  0.00    +0.139 C 
ATOM     11  N   UNL     1       1.483  -2.487  -2.438  0.00  0.00    -0.298 N 
ATOM     12  C   UNL     1       2.868  -1.995  -2.498  0.00  0.00    +0.136 C 
ATOM     13  C   UNL     1       2.845  -0.468  -2.370  0.00  0.00    +0.179 C 
ATOM     14  O   UNL     1       2.092  -0.103  -1.210  0.00  0.00    -0.373 OA
ATOM     15  C   UNL     1       1.007  -3.336  -3.370  0.00  0.00    +0.199 C 
ATOM     16  O   UNL     1      -0.138  -3.730  -3.303  0.00  0.00    -0.278 OA
BRANCH   9  18
ATOM     17  C   UNL     1      -0.019   1.526   0.010  0.00  0.00    +0.006 C 
ATOM     18  C   UNL     1       0.002  -0.004   0.002  0.00  0.00    +0.030 C 
ENDBRANCH   9  18
ENDBRANCH   8  15
ENDBRANCH   1   8
BRANCH   4  19
ATOM     19  C   UNL     1      -0.122  -8.072  -7.681  0.00  0.00    +0.099 C 
BRANCH  19  20
ATOM     20  C   UNL     1       0.702  -8.548  -8.850  0.00  0.00    +0.216 C 
ATOM     21  O   UNL     1       1.870  -8.235  -8.935  0.00  0.00    -0.276 OA
ATOM     22  N   UNL     1       0.140  -9.321  -9.800  0.00  0.00    -0.299 N 
ATOM     23  C   UNL     1      -1.277  -9.707  -9.719  0.00  0.00    +0.123 C 
ATOM     24  C   UNL     1      -1.949  -9.374 -11.056  0.00  0.00    +0.103 C 
ATOM     25  N   UNL     1      -1.196 -10.002 -12.149  0.00  0.00    -0.300 NA
ATOM     26  C   UNL     1       0.169  -9.464 -12.234  0.00  0.00    +0.103 C 
ATOM     27  C   UNL     1       0.926  -9.796 -10.949  0.00  0.00    +0.123 C 
BRANCH  25  28
ATOM     28  C   UNL     1      -1.901  -9.852 -13.429  0.00  0.00    +0.081 C 
ATOM     29  C   UNL     1      -1.224 -10.722 -14.489  0.00  0.00    +0.020 C 
ENDBRANCH  25  28
ENDBRANCH  19  20
ENDBRANCH   4  19
TORSDOF 6
