REMARK  Name = ZINC36207476
REMARK  17 active torsions:
REMARK  status: ('A' for Active; 'I' for Inactive)
REMARK    1  A    between atoms: C_1  and  C_2
REMARK    2  A    between atoms: C_8  and  C_19
REMARK    3  A    between atoms: C_12  and  C_13
REMARK    4  A    between atoms: C_13  and  O_15
REMARK    5  A    between atoms: O_15  and  C_16
REMARK    6  A    between atoms: C_16  and  C_17
REMARK    7  A    between atoms: C_16  and  C_18
REMARK    8  A    between atoms: C_19  and  N_20
REMARK    9  A    between atoms: N_20  and  C_21
REMARK   10  A    between atoms: N_20  and  C_24
REMARK   11  A    between atoms: C_21  and  C_22
REMARK   12  A    between atoms: C_24  and  C_25
REMARK   13  A    between atoms: C_25  and  C_27
REMARK   14  A    between atoms: C_25  and  O_35
REMARK   15  A    between atoms: C_27  and  O_28
REMARK   16  A    between atoms: O_28  and  C_29
REMARK   17  A    between atoms: C_29  and  C_30
REMARK                            x       y       z     vdW  Elec       q    Type
REMARK                         _______ _______ _______ _____ _____    ______ ____
ROOT
ATOM      1  C   UNL     1      -6.443  -2.834  -7.790  0.00  0.00    +0.046 C 
ATOM      2  C   UNL     1      -5.690  -3.987  -7.180  0.00  0.00    -0.015 A 
ATOM      3  C   UNL     1      -4.522  -3.754  -6.451  0.00  0.00    +0.076 A 
ATOM      4  C   UNL     1      -3.846  -2.470  -6.152  0.00  0.00    +0.260 A 
ATOM      5  O   UNL     1      -4.301  -1.416  -6.559  0.00  0.00    -0.267 OA
ATOM      6  N   UNL     1      -2.716  -2.499  -5.419  0.00  0.00    -0.312 N 
ATOM      7  H   UNL     1      -2.261  -1.667  -5.215  0.00  0.00    +0.170 HD
ATOM      8  C   UNL     1      -2.202  -3.667  -4.962  0.00  0.00    +0.094 A 
ATOM      9  N   UNL     1      -2.772  -4.816  -5.206  0.00  0.00    -0.229 NA
ATOM     10  C   UNL     1      -3.889  -4.900  -5.918  0.00  0.00    +0.116 A 
ATOM     11  S   UNL     1      -4.936  -6.230  -6.452  0.00  0.00    -0.062 S 
ATOM     12  C   UNL     1      -6.151  -5.263  -7.333  0.00  0.00    +0.102 A 
ENDROOT
BRANCH  12  13
ATOM     13  C   UNL     1      -7.344  -5.724  -8.046  0.00  0.00    +0.346 C 
ATOM     14  O   UNL     1      -8.070  -4.921  -8.600  0.00  0.00    -0.244 OA
BRANCH  13  15
ATOM     15  O   UNL     1      -7.638  -7.040  -8.088  0.00  0.00    -0.458 OA
BRANCH  15  16
ATOM     16  C   UNL     1      -8.818  -7.419  -8.801  0.00  0.00    +0.171 C 
ATOM     17  C   UNL     1      -8.464  -7.688 -10.265  0.00  0.00    +0.052 C 
ATOM     18  C   UNL     1      -9.406  -8.685  -8.177  0.00  0.00    +0.052 C 
ENDBRANCH  15  16
ENDBRANCH  13  15
ENDBRANCH  12  13
BRANCH   8  19
ATOM     19  C   UNL     1      -0.935  -3.639  -4.146  0.00  0.00    -0.003 C 
BRANCH  19  20
ATOM     20  N   UNL     1      -0.488  -5.014  -3.889  0.00  0.00    +0.388 N 
ATOM     21  H   UNL     1      -1.245  -5.544  -3.483  0.00  0.00    -0.081 HD
BRANCH  20  22
ATOM     22  C   UNL     1       0.649  -4.993  -2.958  0.00  0.00    -0.051 C 
BRANCH  22  23
ATOM     23  C   UNL     1       0.217  -4.375  -1.653  0.00  0.00    -0.053 C 
ATOM     24  C   UNL     1       0.354  -5.044  -0.534  0.00  0.00    +0.002 C 
ENDBRANCH  22  23
ENDBRANCH  20  22
BRANCH  20  25
ATOM     25  C   UNL     1      -0.074  -5.640  -5.152  0.00  0.00    -0.044 C 
BRANCH  25  26
ATOM     26  C   UNL     1       0.192  -7.128  -4.921  0.00  0.00    +0.124 C 
BRANCH  26  27
ATOM     27  O   UNL     1       1.339  -7.283  -4.082  0.00  0.00    -0.391 OA
ATOM     28  H   UNL     1       2.149  -6.902  -4.449  0.00  0.00    +0.210 HD
ENDBRANCH  26  27
BRANCH  26  29
ATOM     29  C   UNL     1       0.446  -7.816  -6.264  0.00  0.00    +0.189 C 
BRANCH  29  30
ATOM     30  O   UNL     1       0.580  -9.224  -6.061  0.00  0.00    -0.370 OA
BRANCH  30  31
ATOM     31  C   UNL     1       0.821  -9.964  -7.259  0.00  0.00    +0.234 C 
BRANCH  31  32
ATOM     32  C   UNL     1       0.944 -11.429  -6.929  0.00  0.00    +0.130 A 
ATOM     33  C   UNL     1      -0.067 -12.317  -6.903  0.00  0.00    +0.047 A 
ATOM     34  C   UNL     1       0.495 -13.565  -6.548  0.00  0.00    +0.041 A 
ATOM     35  C   UNL     1       1.814 -13.365  -6.379  0.00  0.00    +0.195 A 
ATOM     36  O   UNL     1       2.081 -12.071  -6.617  0.00  0.00    -0.465 OA
ENDBRANCH  31  32
ENDBRANCH  30  31
ENDBRANCH  29  30
ENDBRANCH  26  29
ENDBRANCH  25  26
ENDBRANCH  20  25
ENDBRANCH  19  20
ENDBRANCH   8  19
TORSDOF 14
