REMARK  Name = ZINC35809572
REMARK  9 active torsions:
REMARK  status: ('A' for Active; 'I' for Inactive)
REMARK    1  A    between atoms: C_1  and  C_2
REMARK    2  A    between atoms: C_5  and  C_9
REMARK    3  A    between atoms: C_7  and  C_8
REMARK    4  A    between atoms: C_9  and  N_10
REMARK    5  A    between atoms: C_19  and  C_21
REMARK    6  A    between atoms: C_23  and  O_29
REMARK    7  A    between atoms: C_25  and  O_27
REMARK    8  A    between atoms: O_27  and  C_28
REMARK    9  A    between atoms: O_29  and  C_30
REMARK                            x       y       z     vdW  Elec       q    Type
REMARK                         _______ _______ _______ _____ _____    ______ ____
ROOT
ATOM      1  N   UNL     1       1.404  -4.761  -0.102  0.00  0.00    +0.391 N 
ATOM      2  C   UNL     1       2.024  -4.491  -1.401  0.00  0.00    -0.075 C 
ATOM      3  C   UNL     1       3.504  -4.852  -1.388  0.00  0.00    +0.003 C 
ATOM      4  C   UNL     1       4.092  -4.579  -0.001  0.00  0.00    +0.119 C 
ATOM      5  N   UNL     1       3.917  -5.773   0.834  0.00  0.00    -0.352 N 
ATOM      6  C   UNL     1       4.861  -6.349   1.629  0.00  0.00    +0.086 A 
ATOM      7  C   UNL     1       4.303  -7.412   2.244  0.00  0.00    +0.019 A 
ATOM      8  C   UNL     1       2.966  -7.498   1.807  0.00  0.00    +0.021 A 
ATOM      9  C   UNL     1       2.759  -6.488   0.940  0.00  0.00    +0.009 A 
ATOM     10  C   UNL     1       1.475  -6.198   0.201  0.00  0.00    +0.011 C 
ATOM     11  H   UNL     1       1.892  -4.244   0.614  0.00  0.00    -0.080 HD
ENDROOT
BRANCH  10  12
ATOM     12  C   UNL     1       0.300  -6.590   1.059  0.00  0.00    -0.048 A 
ATOM     13  C   UNL     1      -0.575  -7.567   0.626  0.00  0.00    +0.048 A 
ATOM     14  C   UNL     1      -1.658  -7.930   1.414  0.00  0.00    +0.124 A 
ATOM     15  C   UNL     1      -1.861  -7.310   2.638  0.00  0.00    +0.091 A 
ATOM     16  C   UNL     1      -0.982  -6.330   3.070  0.00  0.00    +0.124 A 
ATOM     17  C   UNL     1       0.103  -5.974   2.281  0.00  0.00    +0.048 A 
BRANCH  16  18
ATOM     18  O   UNL     1      -1.179  -5.720   4.269  0.00  0.00    -0.495 OA
ATOM     19  C   UNL     1      -2.313  -6.139   5.031  0.00  0.00    +0.277 C 
ENDBRANCH  16  18
BRANCH  14  20
ATOM     20  O   UNL     1      -2.518  -8.891   0.988  0.00  0.00    -0.495 OA
ATOM     21  C   UNL     1      -3.610  -9.214   1.850  0.00  0.00    +0.277 C 
ENDBRANCH  14  20
ENDBRANCH  10  12
BRANCH   1  22
ATOM     22  C   UNL     1      -0.002  -4.339  -0.135  0.00  0.00    -0.042 C 
BRANCH  22  27
ATOM     23  C   UNL     1      -0.283   1.370  -0.981  0.00  0.00    +0.044 C 
ATOM     24  C   UNL     1      -0.210  -0.119  -0.760  0.00  0.00    -0.048 A 
ATOM     25  C   UNL     1      -0.200  -0.978  -1.843  0.00  0.00    +0.004 A 
ATOM     26  C   UNL     1      -0.133  -2.344  -1.641  0.00  0.00    +0.002 A 
ATOM     27  C   UNL     1      -0.075  -2.850  -0.356  0.00  0.00    -0.064 A 
ATOM     28  C   UNL     1      -0.083  -1.991   0.727  0.00  0.00    +0.005 A 
ATOM     29  C   UNL     1      -0.146  -0.625   0.525  0.00  0.00    -0.047 A 
ATOM     30  C   UNL     1      -0.151   0.312   1.705  0.00  0.00    +0.044 C 
ENDBRANCH  22  27
ENDBRANCH   1  22
TORSDOF 5
