REMARK  Name = ZINC46774174
REMARK  9 active torsions:
REMARK  status: ('A' for Active; 'I' for Inactive)
REMARK    1  A    between atoms: C_1  and  N_2
REMARK    2  A    between atoms: N_2  and  C_3
REMARK    3  A    between atoms: C_5  and  C_10
REMARK    4  A    between atoms: C_10  and  N_11
REMARK    5  A    between atoms: C_12  and  C_14
REMARK    6  A    between atoms: C_14  and  C_15
REMARK    7  A    between atoms: C_18  and  N_21
REMARK    8  A    between atoms: N_21  and  S_22
REMARK    9  A    between atoms: S_22  and  C_25
REMARK                            x       y       z     vdW  Elec       q    Type
REMARK                         _______ _______ _______ _____ _____    ______ ____
ROOT
ATOM      1  C   UNL     1       3.481  -4.257   3.489  0.00  0.00    -0.039 A 
ATOM      2  C   UNL     1       3.489  -5.626   3.687  0.00  0.00    +0.006 A 
ATOM      3  C   UNL     1       4.688  -6.304   3.782  0.00  0.00    +0.027 A 
ATOM      4  C   UNL     1       5.887  -5.611   3.678  0.00  0.00    +0.074 A 
ATOM      5  C   UNL     1       5.875  -4.236   3.478  0.00  0.00    +0.027 A 
ATOM      6  C   UNL     1       4.673  -3.564   3.378  0.00  0.00    +0.006 A 
ENDROOT
BRANCH   1   7
ATOM      7  C   UNL     1       2.170  -3.520   3.385  0.00  0.00    +0.130 C 
BRANCH   7   9
ATOM      8  N   UNL     1       0.572  -2.873   1.612  0.00  0.00    -0.311 N 
ATOM      9  C   UNL     1       1.726  -3.485   1.946  0.00  0.00    +0.218 C 
ATOM     10  O   UNL     1       2.406  -4.006   1.088  0.00  0.00    -0.275 OA
ATOM     11  H   UNL     1       0.028  -2.455   2.298  0.00  0.00    +0.149 HD
BRANCH   8  12
ATOM     12  C   UNL     1       0.140  -2.838   0.212  0.00  0.00    +0.143 C 
BRANCH  12  17
ATOM     13  C   UNL     1       0.448   0.459   1.550  0.00  0.00    +0.130 C 
ATOM     14  N   UNL     1      -0.012   0.003   0.236  0.00  0.00    -0.323 N 
ATOM     15  C   UNL     1       0.779   0.299  -0.961  0.00  0.00    +0.130 C 
ATOM     16  C   UNL     1      -1.200  -0.710   0.125  0.00  0.00    +0.103 A 
ATOM     17  C   UNL     1      -1.170  -2.101   0.110  0.00  0.00    +0.008 A 
ATOM     18  C   UNL     1      -2.360  -2.798  -0.002  0.00  0.00    +0.010 A 
ATOM     19  C   UNL     1      -3.543  -2.078  -0.095  0.00  0.00    +0.018 A 
ATOM     20  C   UNL     1      -3.499  -0.699  -0.073  0.00  0.00    +0.084 A 
ATOM     21  N   UNL     1      -2.350  -0.060   0.039  0.00  0.00    -0.349 N 
ATOM     22  H   UNL     1      -2.348   0.910   0.056  0.00  0.00    +0.167 HD
ENDBRANCH  12  17
ENDBRANCH   8  12
ENDBRANCH   7   9
ENDBRANCH   1   7
BRANCH   4  23
ATOM     23  N   UNL     1       7.101  -6.294   3.773  0.00  0.00    -0.098 NA
BRANCH  23  24
ATOM     24  S   UNL     1       8.530  -5.465   3.649  0.00  0.00    +0.092 S 
ATOM     25  O   UNL     1       8.598  -4.971   2.318  0.00  0.00    -0.148 OA
ATOM     26  O   UNL     1       8.605  -4.612   4.783  0.00  0.00    -0.148 OA
BRANCH  24  27
ATOM     27  C   UNL     1       9.831  -6.641   3.816  0.00  0.00    +0.112 A 
ATOM     28  C   UNL     1      10.341  -6.934   5.068  0.00  0.00    +0.030 A 
ATOM     29  C   UNL     1      11.362  -7.856   5.200  0.00  0.00    +0.023 A 
ATOM     30  C   UNL     1      11.874  -8.487   4.081  0.00  0.00    +0.059 A 
ATOM     31  C   UNL     1      11.363  -8.194   2.828  0.00  0.00    +0.061 A 
ATOM     32  C   UNL     1      10.337  -7.274   2.697  0.00  0.00    +0.050 A 
ATOM     33 CL   UNL     1      12.005  -8.984   1.421  0.00  0.00    -0.082 Cl
ATOM     34 CL   UNL     1      13.156  -9.645   4.247  0.00  0.00    -0.082 Cl
ENDBRANCH  24  27
ENDBRANCH  23  24
ENDBRANCH   4  23
TORSDOF 7
