REMARK  Name = ZINC08788397
REMARK  9 active torsions:
REMARK  status: ('A' for Active; 'I' for Inactive)
REMARK    1  A    between atoms: C_1  and  C_2
REMARK    2  A    between atoms: C_2  and  O_3
REMARK    3  A    between atoms: O_3  and  C_4
REMARK    4  A    between atoms: C_4  and  C_6
REMARK    5  A    between atoms: C_10  and  N_11
REMARK    6  A    between atoms: C_12  and  C_14
REMARK    7  A    between atoms: C_14  and  N_15
REMARK    8  A    between atoms: N_15  and  C_16
REMARK    9  A    between atoms: C_25  and  C_29
REMARK                            x       y       z     vdW  Elec       q    Type
REMARK                         _______ _______ _______ _____ _____    ______ ____
ROOT
ATOM      1  C   UNL     1       4.003  -7.535  -0.084  0.00  0.00    +0.091 A 
ATOM      2  C   UNL     1       3.493  -8.896  -0.082  0.00  0.00    -0.021 A 
ATOM      3  C   UNL     1       2.147  -9.006  -0.071  0.00  0.00    -0.004 A 
ATOM      4  S   UNL     1       1.556  -7.337  -0.055  0.00  0.00    -0.077 S 
ATOM      5  C   UNL     1       3.074  -6.502  -0.064  0.00  0.00    +0.086 A 
ATOM      6  C   UNL     1       1.345 -10.270  -0.072  0.00  0.00    +0.046 C 
ATOM      7  C   UNL     1       2.270 -11.430  -0.468  0.00  0.00    -0.009 C 
ATOM      8  C   UNL     1       3.557 -11.338   0.358  0.00  0.00    +0.008 C 
ATOM      9  C   UNL     1       4.382 -10.133  -0.097  0.00  0.00    +0.037 C 
ATOM     10  C   UNL     1       1.573 -12.762  -0.184  0.00  0.00    +0.008 C 
ENDROOT
BRANCH   5  11
ATOM     11  N   UNL     1       3.306  -5.136  -0.058  0.00  0.00    -0.278 N 
ATOM     12  C   UNL     1       2.267  -4.277  -0.043  0.00  0.00    +0.235 C 
ATOM     13  O   UNL     1       1.131  -4.699  -0.035  0.00  0.00    -0.274 OA
ATOM     14  H   UNL     1       4.215  -4.798  -0.065  0.00  0.00    +0.155 HD
BRANCH  12  15
ATOM     15  C   UNL     1       2.519  -2.791  -0.037  0.00  0.00    +0.198 C 
BRANCH  15  16
ATOM     16  N   UNL     1       1.238  -2.079  -0.021  0.00  0.00    -0.334 N 
ATOM     17  H   UNL     1       0.406  -2.577  -0.016  0.00  0.00    +0.147 HD
BRANCH  16  18
ATOM     18  C   UNL     1       1.216  -0.681  -0.013  0.00  0.00    +0.046 A 
ATOM     19  C   UNL     1       2.406   0.034  -0.021  0.00  0.00    +0.026 A 
ATOM     20  C   UNL     1       2.381   1.415  -0.013  0.00  0.00    +0.022 A 
ATOM     21  C   UNL     1       1.171   2.087   0.002  0.00  0.00    +0.042 A 
ATOM     22  C   UNL     1      -0.017   1.378   0.010  0.00  0.00    +0.041 A 
ATOM     23  C   UNL     1       0.002  -0.004   0.002  0.00  0.00    +0.063 A 
ATOM     24 CL   UNL     1      -1.489  -0.893   0.011  0.00  0.00    -0.082 Cl
ATOM     25 CL   UNL     1       1.145   3.823   0.012  0.00  0.00    -0.083 Cl
ENDBRANCH  16  18
ENDBRANCH  15  16
ENDBRANCH  12  15
ENDBRANCH   5  11
BRANCH   1  26
ATOM     26  C   UNL     1       5.442  -7.262  -0.103  0.00  0.00    +0.342 C 
ATOM     27  O   UNL     1       6.054  -7.156   0.942  0.00  0.00    -0.245 OA
BRANCH  26  28
ATOM     28  O   UNL     1       6.087  -7.128  -1.280  0.00  0.00    -0.461 OA
BRANCH  28  30
ATOM     29  C   UNL     1       8.067  -6.740  -2.644  0.00  0.00    +0.048 C 
ATOM     30  C   UNL     1       7.513  -6.859  -1.223  0.00  0.00    +0.229 C 
ENDBRANCH  28  30
ENDBRANCH  26  28
ENDBRANCH   1  26
TORSDOF 7
