REMARK  Name = ZINC40987885
REMARK  7 active torsions:
REMARK  status: ('A' for Active; 'I' for Inactive)
REMARK    1  A    between atoms: C_1  and  C_2
REMARK    2  A    between atoms: C_7  and  N_8
REMARK    3  A    between atoms: N_9  and  C_10
REMARK    4  A    between atoms: C_13  and  N_17
REMARK    5  A    between atoms: C_14  and  C_16
REMARK    6  A    between atoms: C_18  and  C_20
REMARK    7  A    between atoms: N_23  and  C_25
REMARK                            x       y       z     vdW  Elec       q    Type
REMARK                         _______ _______ _______ _____ _____    ______ ____
ROOT
ATOM      1  N   UNL     1       0.053   2.025   8.325  0.00  0.00    -0.280 N 
ATOM      2  C   UNL     1       0.131   3.370   8.340  0.00  0.00    +0.269 C 
ATOM      3  O   UNL     1       0.108   3.992   7.295  0.00  0.00    -0.268 OA
ATOM      4  H   UNL     1       0.005   1.533   9.160  0.00  0.00    +0.155 HD
ENDROOT
BRANCH   2   5
ATOM      5  C   UNL     1       0.245   4.090   9.624  0.00  0.00    +0.151 A 
ATOM      6  C   UNL     1       0.329   5.481   9.802  0.00  0.00    +0.006 A 
ATOM      7  C   UNL     1       0.419   5.681  11.140  0.00  0.00    +0.044 A 
ATOM      8  N   UNL     1       0.388   4.472  11.726  0.00  0.00    -0.263 N 
ATOM      9  N   UNL     1       0.281   3.551  10.831  0.00  0.00    -0.166 NA
ATOM     10  C   UNL     1       0.534   7.040  11.781  0.00  0.00    +0.055 C 
ATOM     11  C   UNL     1       0.944   8.049  10.702  0.00  0.00    +0.006 C 
ATOM     12  C   UNL     1       0.025   7.904   9.486  0.00  0.00    +0.005 C 
ATOM     13  C   UNL     1       0.323   6.578   8.774  0.00  0.00    +0.039 C 
BRANCH   8  14
ATOM     14  C   UNL     1       0.459   4.236  13.170  0.00  0.00    +0.130 C 
ATOM     15  C   UNL     1       1.669   3.344  13.492  0.00  0.00    +0.051 C 
ATOM     16  C   UNL     1       1.572   2.829  14.948  0.00  0.00    +0.168 C 
ATOM     17  S   UNL     1      -0.242   2.803  15.248  0.00  0.00    -0.029 S 
ATOM     18  O   UNL     1      -0.552   3.718  16.290  0.00  0.00    -0.174 OA
ATOM     19  O   UNL     1      -0.675   1.453  15.351  0.00  0.00    -0.174 OA
ATOM     20  C   UNL     1      -0.826   3.499  13.645  0.00  0.00    +0.192 C 
ENDBRANCH   8  14
ENDBRANCH   2   5
BRANCH   1  24
ATOM     21  C   UNL     1       0.018  -0.022   4.696  0.00  0.00    +0.087 A 
ATOM     22  C   UNL     1      -0.604   1.227   4.803  0.00  0.00    +0.031 A 
ATOM     23  C   UNL     1      -0.591   1.899   6.004  0.00  0.00    +0.026 A 
ATOM     24  C   UNL     1       0.041   1.340   7.110  0.00  0.00    +0.037 A 
ATOM     25  C   UNL     1       0.662   0.099   7.008  0.00  0.00    -0.027 A 
ATOM     26  C   UNL     1       0.647  -0.584   5.812  0.00  0.00    +0.034 A 
ATOM     27  C   UNL     1       1.345  -0.503   8.209  0.00  0.00    +0.046 C 
BRANCH  21  29
ATOM     28  N   UNL     1      -0.574  -0.172   2.479  0.00  0.00    -0.149 NA
ATOM     29  N   UNL     1       0.006  -0.692   3.507  0.00  0.00    -0.149 NA
BRANCH  28  36
ATOM     30  C   UNL     1      -1.881   1.063   0.279  0.00  0.00    +0.046 C 
ATOM     31  C   UNL     1      -1.214  -0.284   0.173  0.00  0.00    -0.023 A 
ATOM     32  C   UNL     1      -1.217  -0.965  -1.027  0.00  0.00    +0.005 A 
ATOM     33  C   UNL     1      -0.605  -2.202  -1.125  0.00  0.00    +0.000 A 
ATOM     34  C   UNL     1       0.014  -2.765  -0.023  0.00  0.00    +0.002 A 
ATOM     35  C   UNL     1       0.025  -2.096   1.183  0.00  0.00    +0.030 A 
ATOM     36  C   UNL     1      -0.586  -0.844   1.289  0.00  0.00    +0.089 A 
ENDBRANCH  28  36
ENDBRANCH  21  29
ENDBRANCH   1  24
TORSDOF 5
