REMARK  Name = ZINC36310075
REMARK  17 active torsions:
REMARK  status: ('A' for Active; 'I' for Inactive)
REMARK    1  A    between atoms: C_1  and  C_2
REMARK    2  A    between atoms: C_2  and  C_3
REMARK    3  A    between atoms: C_2  and  O_4
REMARK    4  A    between atoms: O_4  and  C_5
REMARK    5  A    between atoms: C_5  and  C_6
REMARK    6  A    between atoms: C_6  and  C_8
REMARK    7  A    between atoms: C_6  and  O_36
REMARK    8  A    between atoms: C_8  and  N_9
REMARK    9  A    between atoms: N_9  and  C_10
REMARK   10  A    between atoms: N_9  and  C_13
REMARK   11  A    between atoms: C_10  and  C_11
REMARK   12  A    between atoms: C_13  and  C_14
REMARK   13  A    between atoms: C_24  and  C_26
REMARK   14  A    between atoms: C_26  and  O_27
REMARK   15  A    between atoms: O_27  and  C_28
REMARK   16  A    between atoms: C_31  and  O_34
REMARK   17  A    between atoms: O_34  and  C_35
REMARK                            x       y       z     vdW  Elec       q    Type
REMARK                         _______ _______ _______ _____ _____    ______ ____
ROOT
ATOM      1  C   UNL     1      -6.215  -5.745  -1.211  0.00  0.00    +0.200 C 
ATOM      2  O   UNL     1      -7.020  -4.976  -0.732  0.00  0.00    -0.278 OA
ATOM      3  N   UNL     1      -6.591  -6.997  -1.540  0.00  0.00    -0.292 N 
ATOM      4  C   UNL     1      -5.622  -7.941  -2.116  0.00  0.00    +0.113 C 
ATOM      5  C   UNL     1      -5.429  -9.099  -1.125  0.00  0.00    +0.061 C 
ATOM      6  C   UNL     1      -6.766  -9.504  -0.596  0.00  0.00    -0.004 A 
ATOM      7  C   UNL     1      -7.933  -8.806  -0.650  0.00  0.00    -0.014 A 
ATOM      8  C   UNL     1      -9.048  -9.406  -0.068  0.00  0.00    +0.013 A 
ATOM      9  C   UNL     1      -8.938 -10.626   0.507  0.00  0.00    +0.046 A 
ATOM     10  S   UNL     1      -7.209 -10.998   0.250  0.00  0.00    -0.101 S 
ATOM     11  C   UNL     1      -7.975  -7.440  -1.322  0.00  0.00    +0.144 C 
ENDROOT
BRANCH   1  12
ATOM     12  C   UNL     1      -4.792  -5.302  -1.439  0.00  0.00    +0.019 C 
BRANCH  12  13
ATOM     13  N   UNL     1      -4.638  -3.908  -1.002  0.00  0.00    +0.389 N 
ATOM     14  H   UNL     1      -5.325  -3.333  -1.464  0.00  0.00    -0.081 HD
BRANCH  13  15
ATOM     15  C   UNL     1      -3.291  -3.434  -1.345  0.00  0.00    -0.044 C 
BRANCH  15  16
ATOM     16  C   UNL     1      -3.158  -3.332  -2.865  0.00  0.00    +0.124 C 
BRANCH  16  17
ATOM     17  O   UNL     1      -3.174  -4.643  -3.434  0.00  0.00    -0.391 OA
ATOM     18  H   UNL     1      -2.460  -5.216  -3.123  0.00  0.00    +0.210 HD
ENDBRANCH  16  17
BRANCH  16  19
ATOM     19  C   UNL     1      -1.839  -2.641  -3.217  0.00  0.00    +0.189 C 
BRANCH  19  20
ATOM     20  O   UNL     1      -1.768  -2.441  -4.630  0.00  0.00    -0.375 OA
BRANCH  20  22
ATOM     21  C   UNL     1      -0.222  -2.271  -6.480  0.00  0.00    +0.037 C 
ATOM     22  C   UNL     1      -0.568  -1.798  -5.066  0.00  0.00    +0.112 C 
ATOM     23  C   UNL     1      -0.775  -0.282  -5.072  0.00  0.00    +0.037 C 
ENDBRANCH  20  22
ENDBRANCH  19  20
ENDBRANCH  16  19
ENDBRANCH  15  16
ENDBRANCH  13  15
BRANCH  13  24
ATOM     24  C   UNL     1      -4.830  -3.827   0.453  0.00  0.00    -0.051 C 
BRANCH  24  25
ATOM     25  C   UNL     1      -4.810  -2.383   0.882  0.00  0.00    -0.053 C 
ATOM     26  C   UNL     1      -5.810  -1.890   1.571  0.00  0.00    +0.002 C 
ENDBRANCH  24  25
ENDBRANCH  13  24
ENDBRANCH  12  13
ENDBRANCH   1  12
BRANCH  11  27
ATOM     27  C   UNL     1      -8.701  -7.550  -2.664  0.00  0.00    +0.256 C 
BRANCH  27  28
ATOM     28  O   UNL     1      -8.097  -8.581  -3.449  0.00  0.00    -0.490 OA
BRANCH  28  29
ATOM     29  C   UNL     1      -8.627  -8.810  -4.680  0.00  0.00    +0.121 A 
ATOM     30  C   UNL     1      -9.702  -8.054  -5.124  0.00  0.00    +0.049 A 
ATOM     31  C   UNL     1     -10.240  -8.286  -6.375  0.00  0.00    +0.049 A 
ATOM     32  C   UNL     1      -9.706  -9.276  -7.187  0.00  0.00    +0.120 A 
ATOM     33  C   UNL     1      -8.630 -10.031  -6.743  0.00  0.00    +0.049 A 
ATOM     34  C   UNL     1      -8.089  -9.796  -5.494  0.00  0.00    +0.049 A 
BRANCH  32  35
ATOM     35  O   UNL     1     -10.236  -9.505  -8.418  0.00  0.00    -0.495 OA
ATOM     36  C   UNL     1      -9.636 -10.540  -9.200  0.00  0.00    +0.277 C 
ENDBRANCH  32  35
ENDBRANCH  28  29
ENDBRANCH  27  28
ENDBRANCH  11  27
TORSDOF 14
