REMARK  Name = ZINC14991845
REMARK  9 active torsions:
REMARK  status: ('A' for Active; 'I' for Inactive)
REMARK    1  A    between atoms: C_1  and  C_2
REMARK    2  A    between atoms: C_2  and  O_3
REMARK    3  A    between atoms: O_3  and  C_4
REMARK    4  A    between atoms: C_12  and  C_14
REMARK    5  A    between atoms: C_22  and  C_24
REMARK    6  A    between atoms: C_22  and  C_25
REMARK    7  A    between atoms: C_22  and  N_72
REMARK    8  A    between atoms: C_25  and  C_26
REMARK    9  A    between atoms: C_26  and  C_27
REMARK                            x       y       z     vdW  Elec       q    Type
REMARK                         _______ _______ _______ _____ _____    ______ ____
ROOT
ATOM      1  C   UNL     1       7.421  -1.557   0.596  0.00  0.00    +0.082 C 
ATOM      2  C   UNL     1       7.732  -1.236  -0.867  0.00  0.00    +0.020 C 
ATOM      3  C   UNL     1       6.980  -0.224  -0.005  0.00  0.00    -0.021 C 
ATOM      4  C   UNL     1       7.729   1.040   0.430  0.00  0.00    -0.011 C 
ATOM      5  C   UNL     1       7.431   2.156  -0.577  0.00  0.00    -0.078 C 
ATOM      6  C   UNL     1       5.322   1.157  -1.245  0.00  0.00    -0.078 C 
ATOM      7  C   UNL     1       5.486  -0.022  -0.280  0.00  0.00    -0.011 C 
ATOM      8  N   UNL     1       5.966   2.350  -0.654  0.00  0.00    +0.381 N 
ATOM      9  H   UNL     1       5.599   2.491   0.294  0.00  0.00    -0.081 HD
ENDROOT
BRANCH   1  18
ATOM     10  C   UNL     1      10.982  -6.075   2.819  0.00  0.00    +0.403 C 
ATOM     11  O   UNL     1      11.908  -6.057   3.607  0.00  0.00    -0.226 OA
ATOM     12  N   UNL     1      10.552  -4.927   2.258  0.00  0.00    -0.264 N 
ATOM     13  C   UNL     1      11.193  -3.647   2.589  0.00  0.00    +0.130 C 
ATOM     14  C   UNL     1      10.116  -2.675   3.088  0.00  0.00    +0.127 C 
ATOM     15  N   UNL     1       8.999  -2.682   2.134  0.00  0.00    -0.298 N 
ATOM     16  C   UNL     1       8.354  -3.962   1.807  0.00  0.00    +0.127 C 
ATOM     17  C   UNL     1       9.434  -4.934   1.304  0.00  0.00    +0.130 C 
ATOM     18  C   UNL     1       8.568  -1.534   1.573  0.00  0.00    +0.219 C 
ATOM     19  O   UNL     1       9.105  -0.484   1.854  0.00  0.00    -0.275 OA
BRANCH  10  20
ATOM     20  O   UNL     1      10.387  -7.241   2.507  0.00  0.00    -0.451 OA
BRANCH  20  22
ATOM     21  C   UNL     1      10.106  -9.655   2.675  0.00  0.00    +0.048 C 
ATOM     22  C   UNL     1      10.902  -8.437   3.150  0.00  0.00    +0.230 C 
ENDBRANCH  20  22
ENDBRANCH  10  20
ENDBRANCH   1  18
BRANCH   8  23
ATOM     23  C   UNL     1       5.660   3.543  -1.469  0.00  0.00    -0.071 C 
ATOM     24  C   UNL     1       5.995   3.293  -2.941  0.00  0.00    -0.013 C 
BRANCH  23  25
ATOM     25  C   UNL     1       4.169   3.861  -1.332  0.00  0.00    -0.011 C 
BRANCH  25  26
ATOM     26  C   UNL     1       3.855   4.215   0.123  0.00  0.00    +0.036 C 
BRANCH  26  27
ATOM     27  C   UNL     1       2.387   4.527   0.258  0.00  0.00    -0.022 A 
ATOM     28  C   UNL     1       1.822   5.744   0.213  0.00  0.00    +0.087 A 
ATOM     29  N   UNL     1       0.467   5.636   0.373  0.00  0.00    -0.360 N 
ATOM     30  H   UNL     1      -0.155   6.380   0.376  0.00  0.00    +0.165 HD
ATOM     31  C   UNL     1       0.118   4.313   0.528  0.00  0.00    +0.047 A 
ATOM     32  C   UNL     1       1.305   3.560   0.463  0.00  0.00    +0.003 A 
ATOM     33  C   UNL     1       1.257   2.171   0.591  0.00  0.00    +0.010 A 
ATOM     34  C   UNL     1       0.055   1.548   0.779  0.00  0.00    +0.001 A 
ATOM     35  C   UNL     1      -1.119   2.286   0.838  0.00  0.00    +0.002 A 
ATOM     36  C   UNL     1      -1.094   3.659   0.720  0.00  0.00    +0.026 A 
ENDBRANCH  26  27
ENDBRANCH  25  26
ENDBRANCH  23  25
ENDBRANCH   8  23
TORSDOF 7
