REMARK  Name = ZINC33302520
REMARK  6 active torsions:
REMARK  status: ('A' for Active; 'I' for Inactive)
REMARK    1  A    between atoms: C_1  and  C_2
REMARK    2  A    between atoms: C_5  and  N_8
REMARK    3  A    between atoms: C_22  and  C_25
REMARK    4  A    between atoms: N_27  and  C_28
REMARK    5  A    between atoms: C_28  and  C_29
REMARK    6  A    between atoms: C_29  and  N_30
REMARK                            x       y       z     vdW  Elec       q    Type
REMARK                         _______ _______ _______ _____ _____    ______ ____
ROOT
ATOM      1  N   UNL     1       3.488   3.330  -1.925  0.00  0.00    -0.248 N 
ATOM      2  C   UNL     1       4.731   3.756  -2.251  0.00  0.00    +0.274 A 
ATOM      3  O   UNL     1       4.891   4.714  -2.989  0.00  0.00    -0.266 OA
ATOM      4  C   UNL     1       5.823   3.071  -1.724  0.00  0.00    +0.103 A 
ATOM      5  C   UNL     1       5.658   1.966  -0.871  0.00  0.00    +0.087 A 
ATOM      6  C   UNL     1       6.844   1.373  -0.415  0.00  0.00    +0.036 A 
ATOM      7  C   UNL     1       8.041   1.866  -0.798  0.00  0.00    +0.048 A 
ATOM      8  S   UNL     1       7.585   3.233  -1.852  0.00  0.00    -0.090 S 
ATOM      9  N   UNL     1       4.363   1.608  -0.592  0.00  0.00    -0.215 NA
ATOM     10  C   UNL     1       3.347   2.257  -1.090  0.00  0.00    +0.206 A 
ATOM     11  N   UNL     1       2.078   1.839  -0.766  0.00  0.00    -0.300 N 
ATOM     12  C   UNL     1       2.067   0.414  -0.412  0.00  0.00    +0.108 C 
ATOM     13  C   UNL     1       0.624  -0.049  -0.199  0.00  0.00    +0.020 C 
ATOM     14  C   UNL     1      -0.012   0.779   0.921  0.00  0.00    +0.016 C 
ATOM     15  C   UNL     1       0.055   2.263   0.549  0.00  0.00    +0.092 C 
ATOM     16  C   UNL     1       1.514   2.659   0.315  0.00  0.00    +0.120 C 
ENDROOT
BRANCH   1  21
ATOM     17  C   UNL     1      -1.085   5.981  -3.989  0.00  0.00    +0.044 C 
ATOM     18  C   UNL     1       0.129   5.277  -3.441  0.00  0.00    -0.050 A 
ATOM     19  C   UNL     1       0.955   5.925  -2.541  0.00  0.00    +0.005 A 
ATOM     20  C   UNL     1       2.069   5.283  -2.037  0.00  0.00    +0.026 A 
ATOM     21  C   UNL     1       2.359   3.984  -2.434  0.00  0.00    +0.053 A 
ATOM     22  C   UNL     1       1.530   3.337  -3.341  0.00  0.00    +0.026 A 
ATOM     23  C   UNL     1       0.415   3.983  -3.838  0.00  0.00    +0.005 A 
ENDBRANCH   1  21
BRANCH  15  24
ATOM     24  C   UNL     1      -0.516   3.089   1.673  0.00  0.00    +0.218 C 
ATOM     25  O   UNL     1       0.174   3.916   2.229  0.00  0.00    -0.275 OA
ATOM     26  N   UNL     1      -1.795   2.908   2.059  0.00  0.00    -0.317 N 
ATOM     27  H   UNL     1      -2.421   2.158   1.555  0.00  0.00    +0.149 HD
BRANCH  26  28
ATOM     28  C   UNL     1      -2.350   3.711   3.151  0.00  0.00    +0.085 C 
BRANCH  28  29
ATOM     29  C   UNL     1      -3.808   3.311   3.388  0.00  0.00    -0.060 C 
BRANCH  29  30
ATOM     30  N   UNL     1      -4.365   4.117   4.483  0.00  0.00    +0.381 N 
ATOM     31  C   UNL     1      -3.700   3.806   5.756  0.00  0.00    -0.079 C 
ATOM     32  C   UNL     1      -4.202   4.762   6.841  0.00  0.00    -0.019 C 
ATOM     33  C   UNL     1      -5.718   4.611   6.986  0.00  0.00    -0.004 C 
ATOM     34  C   UNL     1      -6.383   4.893   5.635  0.00  0.00    -0.019 C 
ATOM     35  C   UNL     1      -5.818   3.933   4.585  0.00  0.00    -0.079 C 
ATOM     36  H   UNL     1      -4.176   5.176   4.256  0.00  0.00    -0.082 HD
ENDBRANCH  29  30
ENDBRANCH  28  29
ENDBRANCH  26  28
ENDBRANCH  15  24
TORSDOF 5
