REMARK  Name = ZINC39687282
REMARK  11 active torsions:
REMARK  status: ('A' for Active; 'I' for Inactive)
REMARK    1  A    between atoms: C_1  and  C_2
REMARK    2  A    between atoms: C_2  and  C_3
REMARK    3  A    between atoms: C_3  and  C_4
REMARK    4  A    between atoms: C_4  and  C_5
REMARK    5  A    between atoms: C_5  and  C_6
REMARK    6  A    between atoms: C_6  and  C_7
REMARK    7  A    between atoms: C_11  and  C_20
REMARK    8  A    between atoms: N_22  and  C_23
REMARK    9  A    between atoms: C_23  and  C_25
REMARK   10  A    between atoms: C_23  and  C_32
REMARK   11  A    between atoms: C_25  and  C_26
REMARK                            x       y       z     vdW  Elec       q    Type
REMARK                         _______ _______ _______ _____ _____    ______ ____
ROOT
ATOM      1  C   UNL     1      -3.599  -4.659  -0.660  0.00  0.00    +0.216 C 
ATOM      2  O   UNL     1      -4.466  -3.843  -0.890  0.00  0.00    -0.276 OA
ATOM      3  N   UNL     1      -3.903  -5.971  -0.615  0.00  0.00    -0.300 N 
ATOM      4  C   UNL     1      -2.990  -7.106  -0.344  0.00  0.00    +0.121 C 
ATOM      5  C   UNL     1      -3.815  -8.069   0.539  0.00  0.00    +0.100 C 
ATOM      6  C   UNL     1      -5.282  -7.736   0.218  0.00  0.00    -0.004 C 
ATOM      7  C   UNL     1      -5.228  -6.604  -0.818  0.00  0.00    +0.115 C 
ATOM      8  C   UNL     1      -6.003  -7.259   1.475  0.00  0.00    -0.010 C 
ATOM      9  C   UNL     1      -7.473  -6.989   1.143  0.00  0.00    -0.082 C 
ATOM     10  N   UNL     1      -8.095  -8.217   0.634  0.00  0.00    +0.379 N 
ATOM     11  C   UNL     1      -7.456  -8.618  -0.625  0.00  0.00    -0.082 C 
ATOM     12  C   UNL     1      -5.985  -8.957  -0.368  0.00  0.00    -0.010 C 
ATOM     13  H   UNL     1      -7.987  -8.954   1.314  0.00  0.00    -0.086 HD
ATOM     14  H   UNL     1      -9.078  -8.053   0.474  0.00  0.00    -0.086 HD
ENDROOT
BRANCH   5  15
ATOM     15  C   UNL     1      -3.509  -9.501   0.182  0.00  0.00    +0.219 C 
ATOM     16  O   UNL     1      -3.253  -9.798  -0.966  0.00  0.00    -0.275 OA
ATOM     17  N   UNL     1      -3.520 -10.451   1.138  0.00  0.00    -0.303 N 
ATOM     18  H   UNL     1      -3.725 -10.213   2.055  0.00  0.00    +0.149 HD
BRANCH  17  19
ATOM     19  C   UNL     1      -3.223 -11.843   0.790  0.00  0.00    +0.163 C 
BRANCH  19  20
ATOM     20  C   UNL     1      -4.479 -12.519   0.306  0.00  0.00    +0.236 C 
ATOM     21  O   UNL     1      -5.565 -12.074   0.615  0.00  0.00    -0.274 OA
ATOM     22  N   UNL     1      -4.397 -13.618  -0.469  0.00  0.00    -0.300 N 
ATOM     23  C   UNL     1      -3.093 -14.109  -0.937  0.00  0.00    +0.108 C 
ATOM     24  C   UNL     1      -2.955 -15.585  -0.552  0.00  0.00    +0.019 C 
ATOM     25  C   UNL     1      -4.153 -16.365  -1.100  0.00  0.00    +0.003 C 
ATOM     26  C   UNL     1      -5.443 -15.823  -0.480  0.00  0.00    +0.019 C 
ATOM     27  C   UNL     1      -5.609 -14.352  -0.858  0.00  0.00    +0.108 C 
ENDBRANCH  19  20
BRANCH  19  28
ATOM     28  C   UNL     1      -2.693 -12.574   2.025  0.00  0.00    +0.067 C 
BRANCH  28  29
ATOM     29  C   UNL     1      -1.371 -11.978   2.434  0.00  0.00    -0.045 A 
ATOM     30  C   UNL     1      -0.195 -12.480   1.910  0.00  0.00    +0.004 A 
ATOM     31  C   UNL     1       1.018 -11.933   2.285  0.00  0.00    +0.000 A 
ATOM     32  C   UNL     1       1.055 -10.883   3.183  0.00  0.00    +0.000 A 
ATOM     33  C   UNL     1      -0.122 -10.380   3.706  0.00  0.00    +0.000 A 
ATOM     34  C   UNL     1      -1.335 -10.924   3.328  0.00  0.00    +0.004 A 
ENDBRANCH  28  29
ENDBRANCH  19  28
ENDBRANCH  17  19
ENDBRANCH   5  15
BRANCH   1  35
ATOM     35  C   UNL     1      -2.181  -4.205  -0.425  0.00  0.00    +0.096 C 
BRANCH  35  36
ATOM     36  C   UNL     1      -2.109  -2.681  -0.531  0.00  0.00    +0.009 C 
BRANCH  36  37
ATOM     37  C   UNL     1      -0.669  -2.220  -0.292  0.00  0.00    +0.000 C 
BRANCH  37  38
ATOM     38  C   UNL     1      -0.597  -0.696  -0.398  0.00  0.00    -0.000 C 
BRANCH  38  40
ATOM     39  C   UNL     1       0.914   1.289  -0.266  0.00  0.00    +0.004 C 
ATOM     40  C   UNL     1       0.842  -0.235  -0.160  0.00  0.00    -0.003 C 
ENDBRANCH  38  40
ENDBRANCH  37  38
ENDBRANCH  36  37
ENDBRANCH  35  36
ENDBRANCH   1  35
TORSDOF 10
