REMARK  Name = ZINC39534180
REMARK  10 active torsions:
REMARK  status: ('A' for Active; 'I' for Inactive)
REMARK    1  A    between atoms: C_4  and  S_7
REMARK    2  A    between atoms: S_7  and  C_10
REMARK    3  A    between atoms: N_13  and  C_17
REMARK    4  A    between atoms: C_17  and  C_19
REMARK    5  A    between atoms: C_17  and  C_28
REMARK    6  A    between atoms: C_19  and  N_20
REMARK    7  A    between atoms: N_20  and  C_21
REMARK    8  A    between atoms: C_26  and  O_27
REMARK    9  A    between atoms: C_31  and  C_34
REMARK   10  A    between atoms: C_39  and  O_40
REMARK                            x       y       z     vdW  Elec       q    Type
REMARK                         _______ _______ _______ _____ _____    ______ ____
ROOT
ATOM      1  C   UNL     1       7.289  -2.751   3.374  0.00  0.00    +0.104 C 
ENDROOT
BRANCH   1   4
ATOM      2  C   UNL     1       4.123  -1.494   1.766  0.00  0.00    +0.217 C 
ATOM      3  C   UNL     1       5.531  -2.089   1.845  0.00  0.00    +0.127 C 
ATOM      4  N   UNL     1       5.970  -2.116   3.247  0.00  0.00    -0.290 NA
ATOM      5  C   UNL     1       5.979  -0.763   3.820  0.00  0.00    +0.100 C 
ATOM      6  C   UNL     1       4.571  -0.168   3.741  0.00  0.00    +0.098 C 
ATOM      7  N   UNL     1       4.132  -0.141   2.338  0.00  0.00    -0.293 NA
ATOM      8  H   UNL     1       4.709   0.480   1.791  0.00  0.00    +0.124 HD
BRANCH   2   9
ATOM      9  S   UNL     1       3.597  -1.414   0.031  0.00  0.00    +0.014 S 
ATOM     10  O   UNL     1       3.412  -2.724  -0.485  0.00  0.00    -0.168 OA
ATOM     11  O   UNL     1       4.380  -0.461  -0.674  0.00  0.00    -0.168 OA
BRANCH   9  15
ATOM     12  C   UNL     1      -0.559   0.375   0.156  0.00  0.00    +0.000 A 
ATOM     13  C   UNL     1       0.545   1.199   0.046  0.00  0.00    +0.002 A 
ATOM     14  C   UNL     1       1.814   0.653   0.009  0.00  0.00    +0.027 A 
ATOM     15  C   UNL     1       1.979  -0.718   0.081  0.00  0.00    +0.090 A 
ATOM     16  C   UNL     1       0.875  -1.542   0.191  0.00  0.00    +0.027 A 
ATOM     17  C   UNL     1      -0.394  -0.996   0.228  0.00  0.00    +0.002 A 
ENDBRANCH   9  15
ENDBRANCH   2   9
ENDBRANCH   1   4
BRANCH   1  18
ATOM     18  C   UNL     1       7.222  -4.159   2.843  0.00  0.00    -0.029 A 
ATOM     19  C   UNL     1       6.109  -4.940   3.099  0.00  0.00    +0.006 A 
ATOM     20  C   UNL     1       6.042  -6.231   2.616  0.00  0.00    +0.009 A 
ATOM     21  C   UNL     1       7.098  -6.748   1.868  0.00  0.00    -0.014 A 
ATOM     22  C   UNL     1       8.217  -5.957   1.613  0.00  0.00    +0.009 A 
ATOM     23  C   UNL     1       8.271  -4.665   2.097  0.00  0.00    +0.006 A 
BRANCH  21  24
ATOM     24  C   UNL     1       7.033  -8.135   1.347  0.00  0.00    +0.024 A 
ATOM     25  C   UNL     1       6.694  -9.186   2.195  0.00  0.00    +0.012 A 
ATOM     26  C   UNL     1       6.634 -10.475   1.705  0.00  0.00    +0.001 A 
ATOM     27  C   UNL     1       6.910 -10.727   0.373  0.00  0.00    +0.004 A 
ATOM     28  C   UNL     1       7.247  -9.692  -0.478  0.00  0.00    +0.046 A 
ATOM     29  C   UNL     1       7.305  -8.392  -0.000  0.00  0.00    +0.125 A 
BRANCH  29  30
ATOM     30  O   UNL     1       7.631  -7.372  -0.837  0.00  0.00    -0.506 OA
ATOM     31  H   UNL     1       8.579  -7.191  -0.884  0.00  0.00    +0.292 HD
ENDBRANCH  29  30
ENDBRANCH  21  24
ENDBRANCH   1  18
BRANCH   1  32
ATOM     32  C   UNL     1       7.702  -2.780   4.847  0.00  0.00    +0.125 C 
BRANCH  32  33
ATOM     33  N   UNL     1       9.049  -3.344   4.966  0.00  0.00    -0.339 N 
ATOM     34  H   UNL     1       9.557  -3.557   4.168  0.00  0.00    +0.146 HD
BRANCH  33  35
ATOM     35  C   UNL     1       9.602  -3.574   6.230  0.00  0.00    +0.069 A 
ATOM     36  C   UNL     1       8.874  -3.276   7.373  0.00  0.00    +0.026 A 
ATOM     37  C   UNL     1       9.422  -3.505   8.621  0.00  0.00    +0.002 A 
ATOM     38  C   UNL     1      10.695  -4.032   8.734  0.00  0.00    +0.004 A 
ATOM     39  C   UNL     1      11.427  -4.332   7.600  0.00  0.00    +0.047 A 
ATOM     40  C   UNL     1      10.882  -4.110   6.345  0.00  0.00    +0.138 A 
BRANCH  40  41
ATOM     41  O   UNL     1      11.599  -4.410   5.229  0.00  0.00    -0.505 OA
ATOM     42  H   UNL     1      12.147  -3.682   4.906  0.00  0.00    +0.292 HD
ENDBRANCH  40  41
ENDBRANCH  33  35
ENDBRANCH  32  33
ENDBRANCH   1  32
TORSDOF 10
