REMARK  Name = ZINC17397785
REMARK  9 active torsions:
REMARK  status: ('A' for Active; 'I' for Inactive)
REMARK    1  A    between atoms: C_1  and  C_2
REMARK    2  A    between atoms: C_2  and  C_3
REMARK    3  A    between atoms: C_3  and  C_4
REMARK    4  A    between atoms: C_4  and  C_5
REMARK    5  A    between atoms: C_5  and  N_6
REMARK    6  A    between atoms: C_15  and  C_17
REMARK    7  A    between atoms: N_19  and  N_20
REMARK    8  A    between atoms: C_21  and  C_23
REMARK    9  A    between atoms: C_23  and  C_24
REMARK                            x       y       z     vdW  Elec       q    Type
REMARK                         _______ _______ _______ _____ _____    ______ ____
ROOT
ATOM      1  C   UNL     1      -1.183  -2.069   0.002  0.00  0.00    +0.281 C 
ATOM      2  O   UNL     1      -0.122  -2.662  -0.011  0.00  0.00    -0.267 OA
ATOM      3  N   UNL     1      -1.202  -0.721   0.010  0.00  0.00    -0.229 N 
ATOM      4  H   UNL     1      -2.048  -0.247   0.020  0.00  0.00    +0.173 HD
ENDROOT
BRANCH   1  14
ATOM      5  N   UNL     1      -4.741  -2.771   0.033  0.00  0.00    -0.228 N 
ATOM      6  C   UNL     1      -4.896  -4.111   0.027  0.00  0.00    +0.275 A 
ATOM      7  O   UNL     1      -6.006  -4.610   0.035  0.00  0.00    -0.266 OA
ATOM      8  C   UNL     1      -3.693  -4.955   0.011  0.00  0.00    +0.050 A 
ATOM      9  C   UNL     1      -3.745  -6.345   0.004  0.00  0.00    +0.014 A 
ATOM     10  C   UNL     1      -2.569  -7.065  -0.012  0.00  0.00    +0.001 A 
ATOM     11  C   UNL     1      -1.341  -6.418  -0.021  0.00  0.00    +0.001 A 
ATOM     12  C   UNL     1      -1.268  -5.041  -0.014  0.00  0.00    +0.011 A 
ATOM     13  C   UNL     1      -2.442  -4.296  -0.004  0.00  0.00    +0.020 A 
ATOM     14  C   UNL     1      -2.452  -2.824   0.010  0.00  0.00    +0.155 A 
ATOM     15  N   UNL     1      -3.600  -2.192   0.025  0.00  0.00    -0.163 NA
BRANCH   5  16
ATOM     16  C   UNL     1      -5.943  -1.934   0.048  0.00  0.00    +0.147 C 
BRANCH  16  17
ATOM     17  C   UNL     1      -6.348  -1.650   1.496  0.00  0.00    +0.023 C 
BRANCH  17  18
ATOM     18  C   UNL     1      -7.604  -0.776   1.512  0.00  0.00    +0.002 C 
BRANCH  18  20
ATOM     19  C   UNL     1      -9.264   0.382   2.976  0.00  0.00    +0.004 C 
ATOM     20  C   UNL     1      -8.009  -0.492   2.960  0.00  0.00    -0.003 C 
ENDBRANCH  18  20
ENDBRANCH  17  18
ENDBRANCH  16  17
ENDBRANCH   5  16
ENDBRANCH   1  14
BRANCH   3  21
ATOM     21  N   UNL     1       0.002  -0.004   0.002  0.00  0.00    -0.234 N 
ATOM     22  C   UNL     1      -0.016   1.344   0.009  0.00  0.00    +0.230 C 
ATOM     23  O   UNL     1      -1.075   1.936   0.018  0.00  0.00    -0.274 OA
ATOM     24  H   UNL     1       0.849  -0.478  -0.009  0.00  0.00    +0.173 HD
BRANCH  22  25
ATOM     25  C   UNL     1       1.278   2.115   0.001  0.00  0.00    +0.104 C 
BRANCH  25  26
ATOM     26  C   UNL     1       0.979   3.615   0.012  0.00  0.00    -0.020 C 
ATOM     27  C   UNL     1       0.159   3.980  -1.227  0.00  0.00    +0.011 C 
ATOM     28  C   UNL     1      -0.141   5.481  -1.216  0.00  0.00    -0.010 C 
ATOM     29  C   UNL     1       1.174   6.264  -1.225  0.00  0.00    +0.007 C 
ATOM     30  C   UNL     1       1.993   5.898   0.015  0.00  0.00    -0.010 C 
ATOM     31  C   UNL     1       2.293   4.398   0.004  0.00  0.00    +0.011 C 
ATOM     32  C   UNL     1       1.198   6.250   1.274  0.00  0.00    +0.007 C 
ATOM     33  C   UNL     1      -0.117   5.467   1.282  0.00  0.00    -0.010 C 
ATOM     34  C   UNL     1      -0.936   5.833   0.042  0.00  0.00    +0.007 C 
ATOM     35  C   UNL     1       0.183   3.967   1.271  0.00  0.00    +0.011 C 
ENDBRANCH  25  26
ENDBRANCH  22  25
ENDBRANCH   3  21
TORSDOF 8
