REMARK  Name = ZINC02083579
REMARK  14 active torsions:
REMARK  status: ('A' for Active; 'I' for Inactive)
REMARK    1  A    between atoms: C_1  and  C_2
REMARK    2  A    between atoms: C_3  and  C_26
REMARK    3  A    between atoms: C_4  and  N_13
REMARK    4  A    between atoms: C_6  and  C_7
REMARK    5  A    between atoms: C_7  and  O_9
REMARK    6  A    between atoms: O_9  and  C_10
REMARK    7  A    between atoms: C_10  and  C_11
REMARK    8  A    between atoms: C_10  and  C_12
REMARK    9  A    between atoms: C_14  and  C_16
REMARK   10  A    between atoms: C_18  and  N_23
REMARK   11  A    between atoms: C_26  and  O_28
REMARK   12  A    between atoms: O_28  and  C_29
REMARK   13  A    between atoms: C_29  and  C_30
REMARK   14  A    between atoms: C_29  and  C_31
REMARK                            x       y       z     vdW  Elec       q    Type
REMARK                         _______ _______ _______ _____ _____    ______ ____
ROOT
ATOM      1  C   UNL     1      -1.317   2.144   0.020  0.00  0.00    +0.046 C 
ATOM      2  C   UNL     1      -0.017   1.382   0.010  0.00  0.00    -0.014 A 
ATOM      3  C   UNL     1       0.002  -0.004   0.002  0.00  0.00    +0.091 A 
ATOM      4  C   UNL     1       1.250  -0.638  -0.013  0.00  0.00    +0.087 A 
ATOM      5  S   UNL     1       2.361   0.692  -0.017  0.00  0.00    -0.066 S 
ATOM      6  C   UNL     1       1.187   2.034   0.002  0.00  0.00    +0.102 A 
ENDROOT
BRANCH   4   7
ATOM      7  N   UNL     1       1.527  -1.990  -0.024  0.00  0.00    -0.275 N 
ATOM      8  C   UNL     1       2.806  -2.415  -0.038  0.00  0.00    +0.250 C 
ATOM      9  O   UNL     1       3.715  -1.608  -0.042  0.00  0.00    -0.270 OA
ATOM     10  H   UNL     1       0.802  -2.634  -0.021  0.00  0.00    +0.156 HD
BRANCH   8  11
ATOM     11  C   UNL     1       3.103  -3.862  -0.049  0.00  0.00    +0.057 A 
ATOM     12  C   UNL     1       2.061  -4.792  -0.045  0.00  0.00    +0.047 A 
ATOM     13  C   UNL     1       2.345  -6.141  -0.055  0.00  0.00    +0.127 A 
ATOM     14  C   UNL     1       3.660  -6.576  -0.070  0.00  0.00    +0.034 A 
ATOM     15  C   UNL     1       4.697  -5.662  -0.074  0.00  0.00    +0.023 A 
ATOM     16  C   UNL     1       4.427  -4.307  -0.070  0.00  0.00    +0.053 A 
ATOM     17 CL   UNL     1       5.731  -3.160  -0.083  0.00  0.00    -0.083 Cl
BRANCH  13  18
ATOM     18  N   UNL     1       1.242  -7.128  -0.051  0.00  0.00    +0.056 N 
ATOM     19  O   UNL     1       0.085  -6.748  -0.038  0.00  0.00    -0.126 OA
ATOM     20  O   UNL     1       1.491  -8.320  -0.060  0.00  0.00    -0.126 OA
ENDBRANCH  13  18
ENDBRANCH   8  11
ENDBRANCH   4   7
BRANCH   6  21
ATOM     21  C   UNL     1       1.446   3.474   0.006  0.00  0.00    +0.346 C 
ATOM     22  O   UNL     1       0.517   4.259   0.019  0.00  0.00    -0.244 OA
BRANCH  21  23
ATOM     23  O   UNL     1       2.715   3.931  -0.003  0.00  0.00    -0.458 OA
BRANCH  23  24
ATOM     24  C   UNL     1       2.894   5.348   0.002  0.00  0.00    +0.171 C 
ATOM     25  C   UNL     1       2.972   5.847   1.447  0.00  0.00    +0.052 C 
ATOM     26  C   UNL     1       4.191   5.702  -0.729  0.00  0.00    +0.052 C 
ENDBRANCH  23  24
ENDBRANCH  21  23
ENDBRANCH   6  21
BRANCH   3  27
ATOM     27  C   UNL     1      -1.243  -0.780   0.010  0.00  0.00    +0.342 C 
ATOM     28  O   UNL     1      -1.770  -1.096  -1.039  0.00  0.00    -0.245 OA
BRANCH  27  29
ATOM     29  O   UNL     1      -1.804  -1.143   1.182  0.00  0.00    -0.458 OA
BRANCH  29  30
ATOM     30  C   UNL     1      -3.035  -1.909   1.114  0.00  0.00    +0.171 C 
ATOM     31  C   UNL     1      -2.705  -3.402   1.076  0.00  0.00    +0.052 C 
ATOM     32  C   UNL     1      -3.892  -1.607   2.345  0.00  0.00    +0.052 C 
ENDBRANCH  29  30
ENDBRANCH  27  29
ENDBRANCH   3  27
TORSDOF 9
