REMARK  Name = ZINC38679414
REMARK  13 active torsions:
REMARK  status: ('A' for Active; 'I' for Inactive)
REMARK    1  A    between atoms: C_1  and  C_2
REMARK    2  A    between atoms: C_2  and  O_3
REMARK    3  A    between atoms: O_3  and  C_4
REMARK    4  A    between atoms: C_7  and  C_13
REMARK    5  A    between atoms: C_9  and  O_10
REMARK    6  A    between atoms: O_10  and  C_11
REMARK    7  A    between atoms: C_11  and  C_12
REMARK    8  A    between atoms: C_18  and  O_27
REMARK    9  A    between atoms: C_22  and  N_26
REMARK   10  A    between atoms: C_23  and  C_24
REMARK   11  A    between atoms: O_27  and  C_28
REMARK   12  A    between atoms: C_28  and  C_30
REMARK   13  A    between atoms: C_30  and  C_31
REMARK                            x       y       z     vdW  Elec       q    Type
REMARK                         _______ _______ _______ _____ _____    ______ ____
ROOT
ATOM      1  C   UNL     1       1.054  -6.042  -1.806  0.00  0.00    +0.098 C 
ATOM      2  C   UNL     1       1.833  -6.624  -0.657  0.00  0.00    +0.008 A 
ATOM      3  C   UNL     1       3.216  -6.562  -0.671  0.00  0.00    +0.012 A 
ATOM      4  C   UNL     1       3.946  -7.090   0.375  0.00  0.00    +0.047 A 
ATOM      5  C   UNL     1       3.295  -7.686   1.446  0.00  0.00    +0.135 A 
ATOM      6  C   UNL     1       1.911  -7.750   1.463  0.00  0.00    +0.093 A 
ATOM      7  C   UNL     1       1.177  -7.218   0.410  0.00  0.00    +0.138 A 
ATOM      8  O   UNL     1      -0.177  -7.289   0.442  0.00  0.00    -0.441 OA
ATOM      9  C   UNL     1      -0.882  -7.147  -0.693  0.00  0.00    +0.199 C 
ATOM     10  C   UNL     1      -0.355  -6.564  -1.792  0.00  0.00    +0.098 C 
ENDROOT
BRANCH   1  14
ATOM     11  C   UNL     1       0.987  -1.781  -1.456  0.00  0.00    +0.162 A 
ATOM     12  C   UNL     1       0.446  -2.570  -0.453  0.00  0.00    +0.050 A 
ATOM     13  C   UNL     1       0.469  -3.947  -0.570  0.00  0.00    +0.008 A 
ATOM     14  C   UNL     1       1.031  -4.540  -1.685  0.00  0.00    -0.031 A 
ATOM     15  C   UNL     1       1.573  -3.759  -2.689  0.00  0.00    +0.054 A 
ATOM     16  C   UNL     1       1.547  -2.378  -2.581  0.00  0.00    +0.162 A 
BRANCH  11  17
ATOM     17  O   UNL     1       0.965  -0.426  -1.343  0.00  0.00    -0.489 OA
BRANCH  17  19
ATOM     18  C   UNL     1       0.440   1.645  -0.213  0.00  0.00    +0.048 C 
ATOM     19  C   UNL     1       0.373   0.117  -0.161  0.00  0.00    +0.226 C 
ENDBRANCH  17  19
ENDBRANCH  11  17
BRANCH  16  20
ATOM     20  O   UNL     1       2.074  -1.607  -3.570  0.00  0.00    -0.489 OA
BRANCH  20  21
ATOM     21  C   UNL     1       2.632  -2.289  -4.696  0.00  0.00    +0.226 C 
ATOM     22  C   UNL     1       3.171  -1.264  -5.696  0.00  0.00    +0.048 C 
ENDBRANCH  20  21
ENDBRANCH  16  20
ENDBRANCH   1  14
BRANCH   9  23
ATOM     23  N   UNL     1      -2.174  -7.608  -0.736  0.00  0.00    -0.328 N 
ATOM     24  H   UNL     1      -2.565  -8.028   0.046  0.00  0.00    +0.145 HD
ATOM     25  H   UNL     1      -2.696  -7.513  -1.548  0.00  0.00    +0.145 HD
ENDBRANCH   9  23
BRANCH  10  26
ATOM     26  C   UNL     1      -1.161  -6.443  -2.970  0.00  0.00    +0.101 C 
ATOM     27  N   UNL     1      -1.799  -6.347  -3.904  0.00  0.00    -0.191 NA
ENDBRANCH  10  26
BRANCH   5  28
ATOM     28  O   UNL     1       4.013  -8.207   2.475  0.00  0.00    -0.425 OA
BRANCH  28  29
ATOM     29  C   UNL     1       4.028  -9.541   2.622  0.00  0.00    +0.317 C 
ATOM     30  O   UNL     1       3.502 -10.246   1.794  0.00  0.00    -0.250 OA
BRANCH  29  31
ATOM     31  C   UNL     1       4.700 -10.160   3.821  0.00  0.00    +0.156 C 
BRANCH  31  32
ATOM     32  C   UNL     1       4.576 -11.660   3.747  0.00  0.00    -0.037 A 
ATOM     33  C   UNL     1       3.486 -12.292   4.315  0.00  0.00    +0.005 A 
ATOM     34  C   UNL     1       3.372 -13.668   4.248  0.00  0.00    +0.020 A 
ATOM     35  C   UNL     1       4.349 -14.413   3.612  0.00  0.00    +0.041 A 
ATOM     36  C   UNL     1       5.440 -13.780   3.044  0.00  0.00    +0.020 A 
ATOM     37  C   UNL     1       5.550 -12.403   3.107  0.00  0.00    +0.005 A 
ATOM     38 CL   UNL     1       4.207 -16.141   3.528  0.00  0.00    -0.084 Cl
ENDBRANCH  31  32
ENDBRANCH  29  31
ENDBRANCH  28  29
ENDBRANCH   5  28
TORSDOF 11
