REMARK  Name = ZINC39948489
REMARK  7 active torsions:
REMARK  status: ('A' for Active; 'I' for Inactive)
REMARK    1  A    between atoms: C_1  and  C_2
REMARK    2  A    between atoms: C_2  and  C_3
REMARK    3  A    between atoms: C_3  and  C_5
REMARK    4  A    between atoms: C_3  and  S_21
REMARK    5  A    between atoms: N_7  and  C_8
REMARK    6  A    between atoms: C_10  and  C_19
REMARK    7  A    between atoms: S_21  and  C_22
REMARK                            x       y       z     vdW  Elec       q    Type
REMARK                         _______ _______ _______ _____ _____    ______ ____
ROOT
ATOM      1  C   UNL     1       0.630  -0.597  -1.286  0.00  0.00    +0.140 C 
ENDROOT
BRANCH   1   2
ATOM      2  C   UNL     1       0.509  -2.092  -1.424  0.00  0.00    +0.227 C 
ATOM      3  O   UNL     1       1.433  -2.808  -1.100  0.00  0.00    -0.275 OA
ATOM      4  N   UNL     1      -0.627  -2.635  -1.906  0.00  0.00    -0.301 N 
ATOM      5  H   UNL     1      -1.366  -2.062  -2.165  0.00  0.00    +0.150 HD
BRANCH   4   6
ATOM      6  C   UNL     1      -0.745  -4.089  -2.040  0.00  0.00    +0.156 C 
ATOM      7  C   UNL     1      -2.058  -4.613  -1.411  0.00  0.00    +0.149 C 
ATOM      8  C   UNL     1      -1.853  -5.936  -0.717  0.00  0.00    -0.041 C 
ATOM      9  C   UNL     1      -0.611  -6.276  -0.395  0.00  0.00    -0.012 C 
ATOM     10  S   UNL     1       0.457  -4.968  -0.955  0.00  0.00    -0.106 S 
ATOM     11  C   UNL     1      -0.170  -7.529   0.307  0.00  0.00    +0.042 C 
ATOM     12  C   UNL     1      -1.397  -8.205   0.931  0.00  0.00    +0.005 C 
ATOM     13  C   UNL     1      -2.507  -8.264  -0.124  0.00  0.00    +0.005 C 
ATOM     14  C   UNL     1      -3.030  -6.854  -0.392  0.00  0.00    +0.033 C 
BRANCH   7  15
ATOM     15  C   UNL     1      -2.547  -3.629  -0.430  0.00  0.00    +0.073 C 
ATOM     16  N   UNL     1      -2.925  -2.870   0.326  0.00  0.00    -0.196 NA
ENDBRANCH   7  15
ENDBRANCH   4   6
ENDBRANCH   1   2
BRANCH   1  18
ATOM     17  C   UNL     1       0.022   1.371   0.128  0.00  0.00    +0.005 C 
ATOM     18  C   UNL     1       0.026  -0.157   0.049  0.00  0.00    +0.020 C 
ENDBRANCH   1  18
BRANCH   1  19
ATOM     19  S   UNL     1       2.381  -0.124  -1.343  0.00  0.00    -0.072 S 
BRANCH  19  20
ATOM     20  C   UNL     1       2.863  -0.474  -3.001  0.00  0.00    +0.208 C 
ATOM     21  N   UNL     1       1.968  -0.988  -3.810  0.00  0.00    -0.227 NA
ATOM     22  C   UNL     1       2.397  -1.348  -5.159  0.00  0.00    +0.252 C 
ATOM     23  C   UNL     1       3.547  -0.413  -5.506  0.00  0.00    +0.117 C 
ATOM     24  C   UNL     1       3.253   0.086  -6.739  0.00  0.00    +0.025 A 
ATOM     25  C   UNL     1       3.982   0.914  -7.629  0.00  0.00    +0.012 A 
ATOM     26  C   UNL     1       3.382   1.250  -8.802  0.00  0.00    +0.001 A 
ATOM     27  C   UNL     1       2.102   0.833  -9.180  0.00  0.00    +0.002 A 
ATOM     28  C   UNL     1       1.317   0.033  -8.409  0.00  0.00    +0.026 A 
ATOM     29  C   UNL     1       1.887  -0.389  -7.119  0.00  0.00    +0.046 A 
ATOM     30  N   UNL     1       1.392  -1.154  -6.195  0.00  0.00    -0.358 N 
ATOM     31  N   UNL     1       4.499  -0.125  -4.613  0.00  0.00    -0.147 NA
ATOM     32  N   UNL     1       4.136  -0.190  -3.370  0.00  0.00    -0.122 NA
ATOM     33  H   UNL     1       0.499  -1.534  -6.194  0.00  0.00    +0.162 HD
ENDBRANCH  19  20
ENDBRANCH   1  19
TORSDOF 6
