REMARK  Name = ZINC28060339
REMARK  4 active torsions:
REMARK  status: ('A' for Active; 'I' for Inactive)
REMARK    1  A    between atoms: C_1  and  S_2
REMARK    2  A    between atoms: S_2  and  C_3
REMARK    3  A    between atoms: C_6  and  C_9
REMARK    4  A    between atoms: C_27  and  C_29
REMARK                            x       y       z     vdW  Elec       q    Type
REMARK                         _______ _______ _______ _____ _____    ______ ____
ROOT
ATOM      1  C   UNL     1      -2.775   4.125   2.617  0.00  0.00    +0.234 C 
ATOM      2  C   UNL     1      -2.491   4.986   1.407  0.00  0.00    +0.025 C 
ATOM      3  C   UNL     1      -2.282   6.291   1.579  0.00  0.00    +0.050 C 
ATOM      4  C   UNL     1      -2.295   6.833   2.958  0.00  0.00    +0.039 A 
ATOM      5  C   UNL     1      -2.410   8.197   3.201  0.00  0.00    +0.033 A 
ATOM      6  C   UNL     1      -2.417   8.659   4.504  0.00  0.00    +0.042 A 
ATOM      7  C   UNL     1      -2.310   7.770   5.561  0.00  0.00    +0.023 A 
ATOM      8  C   UNL     1      -2.188   6.422   5.323  0.00  0.00    +0.048 A 
ATOM      9  C   UNL     1      -2.182   5.944   4.026  0.00  0.00    +0.131 A 
ATOM     10  O   UNL     1      -2.074   4.617   3.758  0.00  0.00    -0.479 OA
ATOM     11 CL   UNL     1      -2.562  10.361   4.816  0.00  0.00    -0.084 Cl
ATOM     12  N   UNL     1      -2.042   7.156   0.505  0.00  0.00    -0.282 N 
ATOM     13  C   UNL     1      -2.294   6.673  -0.769  0.00  0.00    +0.240 A 
ATOM     14  N   UNL     1      -2.389   7.282  -1.915  0.00  0.00    -0.092 NA
ATOM     15  N   UNL     1      -2.649   6.434  -2.851  0.00  0.00    -0.021 NA
ATOM     16  N   UNL     1      -2.734   5.238  -2.365  0.00  0.00    -0.042 NA
ATOM     17  N   UNL     1      -2.502   5.349  -0.995  0.00  0.00    -0.201 N 
ATOM     18  C   UNL     1      -2.467   4.333   0.048  0.00  0.00    +0.175 C 
ATOM     19  H   UNL     1      -1.669   8.174   0.691  0.00  0.00    +0.155 HD
ENDROOT
BRANCH   1  23
ATOM     20  C   UNL     1      -6.973   4.158   3.418  0.00  0.00    +0.008 A 
ATOM     21  C   UNL     1      -6.192   5.258   3.751  0.00  0.00    +0.015 A 
ATOM     22  C   UNL     1      -4.836   5.244   3.490  0.00  0.00    +0.008 A 
ATOM     23  C   UNL     1      -4.255   4.137   2.899  0.00  0.00    -0.003 A 
ATOM     24  C   UNL     1      -5.030   3.042   2.561  0.00  0.00    +0.008 A 
ATOM     25  C   UNL     1      -6.386   3.047   2.824  0.00  0.00    +0.015 A 
BRANCH  20  27
ATOM     26  C   UNL     1      -9.277   2.557   3.151  0.00  0.00    +0.090 C 
ATOM     27  S   UNL     1      -8.704   4.172   3.747  0.00  0.00    -0.129 S 
ENDBRANCH  20  27
ENDBRANCH   1  23
BRANCH  18  28
ATOM     28  C   UNL     1      -1.208   3.516  -0.093  0.00  0.00    -0.001 A 
ATOM     29  C   UNL     1      -1.279   2.151  -0.321  0.00  0.00    +0.009 A 
ATOM     30  C   UNL     1      -0.095   1.439  -0.439  0.00  0.00    +0.020 A 
ATOM     31  C   UNL     1       1.108   2.112  -0.336  0.00  0.00    +0.111 A 
ATOM     32  N   UNL     1       1.137   3.413  -0.122  0.00  0.00    -0.263 NA
ATOM     33  C   UNL     1       0.031   4.120  -0.000  0.00  0.00    +0.116 A 
ENDBRANCH  18  28
TORSDOF 3
