REMARK  Name = ZINC64040413
REMARK  11 active torsions:
REMARK  status: ('A' for Active; 'I' for Inactive)
REMARK    1  A    between atoms: C_1  and  C_2
REMARK    2  A    between atoms: C_2  and  C_3
REMARK    3  A    between atoms: C_3  and  S_4
REMARK    4  A    between atoms: S_4  and  C_7
REMARK    5  A    between atoms: C_11  and  C_20
REMARK    6  A    between atoms: N_12  and  C_13
REMARK    7  A    between atoms: C_13  and  C_14
REMARK    8  A    between atoms: C_20  and  N_21
REMARK    9  A    between atoms: N_21  and  C_22
REMARK   10  A    between atoms: N_21  and  C_23
REMARK   11  A    between atoms: C_23  and  C_24
REMARK                            x       y       z     vdW  Elec       q    Type
REMARK                         _______ _______ _______ _____ _____    ______ ____
ROOT
ATOM      1  C   UNL     1       1.327  -2.623  -2.540  0.00  0.00    +0.319 C 
ATOM      2  N   UNL     1       2.646  -1.988  -2.639  0.00  0.00    -0.253 NA
ATOM      3  C   UNL     1       2.764  -1.355  -3.741  0.00  0.00    +0.101 C 
ATOM      4  C   UNL     1       1.490  -1.492  -4.545  0.00  0.00    +0.115 C 
ATOM      5  N   UNL     1       0.481  -1.962  -3.562  0.00  0.00    -0.252 NA
ENDROOT
BRANCH   1   6
ATOM      6  S   UNL     1       0.629  -2.364  -0.886  0.00  0.00    +0.005 S 
ATOM      7  O   UNL     1       1.488  -2.976   0.066  0.00  0.00    -0.171 OA
ATOM      8  O   UNL     1      -0.744  -2.730  -0.914  0.00  0.00    -0.171 OA
BRANCH   6   9
ATOM      9  C   UNL     1       0.739  -0.564  -0.683  0.00  0.00    +0.170 C 
BRANCH   9  11
ATOM     10  C   UNL     1       0.273   1.347   0.858  0.00  0.00    +0.005 C 
ATOM     11  C   UNL     1       0.180  -0.171   0.687  0.00  0.00    +0.019 C 
ENDBRANCH   9  11
ENDBRANCH   6   9
ENDBRANCH   1   6
BRANCH   5  12
ATOM     12  C   UNL     1      -0.449  -2.919  -4.176  0.00  0.00    +0.120 C 
BRANCH  12  13
ATOM     13  C   UNL     1      -1.361  -2.185  -5.160  0.00  0.00    +0.132 C 
ATOM     14  C   UNL     1      -2.498  -3.123  -5.621  0.00  0.00    +0.035 C 
ATOM     15  C   UNL     1      -2.630  -2.765  -7.126  0.00  0.00    +0.031 C 
ATOM     16  C   UNL     1      -1.156  -2.453  -7.486  0.00  0.00    +0.160 C 
ATOM     17  O   UNL     1      -0.615  -1.803  -6.322  0.00  0.00    -0.375 OA
ENDBRANCH  12  13
ENDBRANCH   5  12
BRANCH   4  18
ATOM     18  C   UNL     1       1.079  -0.139  -5.130  0.00  0.00    +0.108 C 
BRANCH  18  19
ATOM     19  N   UNL     1       2.099   0.312  -6.086  0.00  0.00    -0.301 NA
ATOM     20  C   UNL     1       2.041  -0.472  -7.327  0.00  0.00    +0.105 C 
BRANCH  19  21
ATOM     21  C   UNL     1       1.962   1.748  -6.363  0.00  0.00    +0.112 C 
BRANCH  21  22
ATOM     22  C   UNL     1       3.269   2.279  -6.955  0.00  0.00    +0.117 C 
ATOM     23  C   UNL     1       3.180   3.776  -7.156  0.00  0.00    +0.008 C 
ATOM     24  C   UNL     1       3.340   3.986  -8.482  0.00  0.00    -0.001 A 
ATOM     25  C   UNL     1       3.354   5.205  -9.300  0.00  0.00    +0.048 A 
ATOM     26  C   UNL     1       3.539   5.096 -10.637  0.00  0.00    +0.124 A 
ATOM     27  C   UNL     1       3.718   3.849 -11.258  0.00  0.00    +0.040 A 
ATOM     28  C   UNL     1       3.717   2.687 -10.571  0.00  0.00    +0.029 A 
ATOM     29  C   UNL     1       3.530   2.685  -9.161  0.00  0.00    +0.043 A 
ATOM     30  N   UNL     1       3.491   1.706  -8.288  0.00  0.00    -0.377 N 
ATOM     31  F   UNL     1       3.552   6.215 -11.393  0.00  0.00    -0.205 F 
ATOM     32  H   UNL     1       3.592   0.762  -8.488  0.00  0.00    +0.160 HD
ENDBRANCH  21  22
ENDBRANCH  19  21
ENDBRANCH  18  19
ENDBRANCH   4  18
TORSDOF 9
