REMARK  Name = ZINC00806628
REMARK  7 active torsions:
REMARK  status: ('A' for Active; 'I' for Inactive)
REMARK    1  A    between atoms: C_1  and  C_2
REMARK    2  A    between atoms: C_4  and  C_26
REMARK    3  A    between atoms: N_11  and  C_12
REMARK    4  A    between atoms: C_12  and  C_13
REMARK    5  A    between atoms: C_12  and  C_14
REMARK    6  A    between atoms: C_20  and  C_22
REMARK    7  A    between atoms: C_23  and  C_25
REMARK                            x       y       z     vdW  Elec       q    Type
REMARK                         _______ _______ _______ _____ _____    ______ ____
ROOT
ATOM      1  C   UNL     1       6.399  -0.997   0.576  0.00  0.00    +0.044 C 
ATOM      2  C   UNL     1       5.036  -0.368   0.437  0.00  0.00    -0.050 A 
ATOM      3  C   UNL     1       3.904  -1.163   0.422  0.00  0.00    +0.008 A 
ATOM      4  C   UNL     1       2.655  -0.593   0.295  0.00  0.00    -0.028 A 
ATOM      5  C   UNL     1       2.522   0.788   0.181  0.00  0.00    +0.046 A 
ATOM      6  C   UNL     1       3.669   1.580   0.198  0.00  0.00    +0.019 A 
ATOM      7  C   UNL     1       4.914   1.005   0.324  0.00  0.00    +0.012 A 
ATOM      8  C   UNL     1       3.183   2.988   0.060  0.00  0.00    +0.215 C 
ATOM      9  C   UNL     1       1.692   2.900  -0.041  0.00  0.00    +0.261 C 
ATOM     10  O   UNL     1       0.916   3.822  -0.170  0.00  0.00    -0.271 OA
ATOM     11  N   UNL     1       1.384   1.588   0.044  0.00  0.00    -0.265 N 
ATOM     12  N   UNL     1       3.797   3.714  -1.051  0.00  0.00    -0.161 N 
ATOM     13  N   UNL     1       4.508   4.843  -0.685  0.00  0.00    -0.152 NA
ATOM     14  C   UNL     1       4.624   5.235   0.551  0.00  0.00    +0.181 C 
ATOM     15  S   UNL     1       3.701   4.015   1.477  0.00  0.00    -0.047 S 
ATOM     16  N   UNL     1       5.306   6.342   1.037  0.00  0.00    -0.264 N 
ATOM     17  C   UNL     1       5.953   7.162   0.185  0.00  0.00    +0.216 C 
ATOM     18  O   UNL     1       5.939   6.933  -1.006  0.00  0.00    -0.276 OA
ATOM     19  C   UNL     1       6.694   8.364   0.712  0.00  0.00    +0.109 C 
ATOM     20  C   UNL     1       3.680   3.314  -2.332  0.00  0.00    +0.234 C 
ATOM     21  O   UNL     1       3.045   2.315  -2.600  0.00  0.00    -0.274 OA
ATOM     22  C   UNL     1       4.338   4.107  -3.432  0.00  0.00    +0.111 C 
ATOM     23  C   UNL     1       1.429  -1.469   0.279  0.00  0.00    +0.046 C 
ATOM     24  H   UNL     1       5.318   6.526   1.989  0.00  0.00    +0.157 HD
ENDROOT
BRANCH  11  25
ATOM     25  C   UNL     1       0.017   1.064  -0.008  0.00  0.00    +0.075 C 
ATOM     26  C   UNL     1      -0.187   0.302  -1.319  0.00  0.00    +0.028 C 
ATOM     27  C   UNL     1      -0.977   2.224   0.068  0.00  0.00    +0.028 C 
ENDBRANCH  11  25
TORSDOF 1
