REMARK  Name = ZINC04237001
REMARK  12 active torsions:
REMARK  status: ('A' for Active; 'I' for Inactive)
REMARK    1  A    between atoms: C_1  and  C_2
REMARK    2  A    between atoms: C_5  and  O_39
REMARK    3  A    between atoms: C_7  and  C_36
REMARK    4  A    between atoms: C_7  and  C_37
REMARK    5  A    between atoms: C_17  and  O_19
REMARK    6  A    between atoms: O_19  and  C_20
REMARK    7  A    between atoms: C_20  and  C_21
REMARK    8  A    between atoms: C_23  and  C_25
REMARK    9  A    between atoms: C_25  and  C_26
REMARK   10  A    between atoms: N_28  and  C_29
REMARK   11  A    between atoms: C_29  and  C_30
REMARK   12  A    between atoms: C_37  and  O_38
REMARK                            x       y       z     vdW  Elec       q    Type
REMARK                         _______ _______ _______ _____ _____    ______ ____
ROOT
ATOM      1  C   UNL     1      -1.625  -2.027  -2.229  0.00  0.00    +0.012 C 
ATOM      2  C   UNL     1      -0.938  -2.640  -1.008  0.00  0.00    -0.019 C 
ATOM      3  C   UNL     1       0.535  -2.221  -0.983  0.00  0.00    +0.010 C 
ATOM      4  C   UNL     1       0.654  -0.705  -0.843  0.00  0.00    +0.032 C 
ATOM      5  C   UNL     1      -0.001  -0.279   0.474  0.00  0.00    +0.123 C 
ATOM      6  C   UNL     1      -1.481  -0.654   0.431  0.00  0.00    +0.021 C 
ATOM      7  C   UNL     1      -1.642  -2.168   0.267  0.00  0.00    +0.011 C 
ATOM      8  C   UNL     1      -3.152  -2.453   0.140  0.00  0.00    +0.049 C 
ATOM      9  C   UNL     1      -3.343  -3.838  -0.368  0.00  0.00    +0.015 A 
ATOM     10  C   UNL     1      -2.414  -4.652  -0.933  0.00  0.00    +0.058 A 
ATOM     11  N   UNL     1      -2.843  -5.854  -1.310  0.00  0.00    -0.229 NA
ATOM     12  C   UNL     1      -4.092  -6.237  -1.145  0.00  0.00    +0.167 A 
ATOM     13  S   UNL     1      -4.806  -4.839  -0.398  0.00  0.00    -0.057 S 
ATOM     14  N   UNL     1      -4.687  -7.447  -1.483  0.00  0.00    -0.230 N 
ATOM     15  C   UNL     1      -5.995  -7.649  -1.230  0.00  0.00    +0.406 C 
ATOM     16  O   UNL     1      -6.655  -6.772  -0.707  0.00  0.00    -0.226 OA
ATOM     17  C   UNL     1      -0.980  -4.171  -1.099  0.00  0.00    +0.054 C 
ATOM     18  C   UNL     1      -2.154  -0.210   1.731  0.00  0.00    +0.016 C 
ATOM     19  H   UNL     1      -4.160  -8.147  -1.900  0.00  0.00    +0.160 HD
ENDROOT
BRANCH   5  20
ATOM     20  O   UNL     1       0.131   1.135   0.639  0.00  0.00    -0.391 OA
ATOM     21  H   UNL     1       1.046   1.444   0.664  0.00  0.00    +0.210 HD
ENDBRANCH   5  20
BRANCH  15  22
ATOM     22  O   UNL     1      -6.571  -8.821  -1.556  0.00  0.00    -0.446 OA
BRANCH  22  23
ATOM     23  C   UNL     1      -7.984  -8.968  -1.254  0.00  0.00    +0.261 C 
BRANCH  23  24
ATOM     24  C   UNL     1      -8.451 -10.334  -1.687  0.00  0.00    +0.006 C 
ATOM     25  C   UNL     1      -9.208 -11.050  -0.893  0.00  0.00    +0.007 C 
ENDBRANCH  23  24
ENDBRANCH  22  23
ENDBRANCH  15  22
BRANCH  17  26
ATOM     26  C   UNL     1      -0.449  -4.615  -2.463  0.00  0.00    +0.106 C 
BRANCH  26  27
ATOM     27  C   UNL     1      -0.303  -6.115  -2.482  0.00  0.00    +0.214 C 
ATOM     28  O   UNL     1      -0.595  -6.765  -1.500  0.00  0.00    -0.276 OA
ATOM     29  N   UNL     1       0.152  -6.734  -3.589  0.00  0.00    -0.311 N 
ATOM     30  H   UNL     1       0.386  -6.215  -4.374  0.00  0.00    +0.149 HD
BRANCH  29  31
ATOM     31  C   UNL     1       0.294  -8.192  -3.607  0.00  0.00    +0.139 C 
BRANCH  31  32
ATOM     32  C   UNL     1       0.818  -8.629  -4.951  0.00  0.00    -0.030 A 
ATOM     33  C   UNL     1      -0.065  -8.940  -5.969  0.00  0.00    +0.005 A 
ATOM     34  C   UNL     1       0.415  -9.336  -7.203  0.00  0.00    +0.000 A 
ATOM     35  C   UNL     1       1.778  -9.432  -7.416  0.00  0.00    +0.000 A 
ATOM     36  C   UNL     1       2.660  -9.127  -6.397  0.00  0.00    +0.000 A 
ATOM     37  C   UNL     1       2.180  -8.726  -5.164  0.00  0.00    +0.005 A 
ENDBRANCH  31  32
ENDBRANCH  29  31
ENDBRANCH  26  27
ENDBRANCH  17  26
BRANCH   6  38
ATOM     38  C   UNL     1      -2.148   0.057  -0.748  0.00  0.00    +0.165 C 
BRANCH  38  39
ATOM     39  O   UNL     1      -2.159   1.466  -0.511  0.00  0.00    -0.394 OA
ATOM     40  H   UNL     1      -2.568   1.981  -1.220  0.00  0.00    +0.209 HD
ENDBRANCH  38  39
ENDBRANCH   6  38
TORSDOF 10
