REMARK  Name = ZINC43641961
REMARK  9 active torsions:
REMARK  status: ('A' for Active; 'I' for Inactive)
REMARK    1  A    between atoms: C_1  and  C_2
REMARK    2  A    between atoms: C_2  and  C_36
REMARK    3  A    between atoms: C_7  and  C_11
REMARK    4  A    between atoms: C_11  and  N_12
REMARK    5  A    between atoms: C_19  and  C_21
REMARK    6  A    between atoms: N_23  and  C_24
REMARK    7  A    between atoms: C_24  and  C_25
REMARK    8  A    between atoms: C_25  and  C_26
REMARK    9  A    between atoms: N_34  and  C_35
REMARK                            x       y       z     vdW  Elec       q    Type
REMARK                         _______ _______ _______ _____ _____    ______ ____
ROOT
ATOM      1  N   UNL     1       0.811  -3.470   3.435  0.00  0.00    +0.382 N 
ATOM      2  C   UNL     1       1.612  -4.367   2.593  0.00  0.00    -0.078 C 
ATOM      3  C   UNL     1       3.053  -4.407   3.114  0.00  0.00    -0.011 C 
ATOM      4  C   UNL     1       3.028  -4.834   4.586  0.00  0.00    -0.021 C 
ATOM      5  C   UNL     1       2.058  -4.039   5.466  0.00  0.00    -0.011 C 
ATOM      6  C   UNL     1       0.684  -4.023   4.788  0.00  0.00    -0.078 C 
ATOM      7  C   UNL     1       4.337  -5.308   5.213  0.00  0.00    +0.020 C 
ATOM      8  C   UNL     1       3.227  -6.315   4.902  0.00  0.00    +0.082 C 
ATOM      9  H   UNL     1       1.263  -2.569   3.483  0.00  0.00    -0.081 HD
ENDROOT
BRANCH   8  10
ATOM     10  C   UNL     1       3.443  -7.251   3.741  0.00  0.00    +0.217 C 
ATOM     11  O   UNL     1       4.570  -7.537   3.394  0.00  0.00    -0.275 OA
ATOM     12  N   UNL     1       2.385  -7.771   3.088  0.00  0.00    -0.315 N 
ATOM     13  H   UNL     1       1.484  -7.542   3.365  0.00  0.00    +0.149 HD
BRANCH  12  14
ATOM     14  C   UNL     1       2.595  -8.681   1.960  0.00  0.00    +0.112 C 
BRANCH  14  15
ATOM     15  C   UNL     1       1.240  -9.123   1.402  0.00  0.00    +0.093 C 
BRANCH  15  16
ATOM     16  C   UNL     1       1.456 -10.059   0.241  0.00  0.00    +0.112 A 
ATOM     17  N   UNL     1       1.574  -9.691  -1.002  0.00  0.00    -0.232 NA
ATOM     18  C   UNL     1       1.758 -10.784  -1.786  0.00  0.00    +0.089 A 
ATOM     19  C   UNL     1       1.937 -10.966  -3.160  0.00  0.00    +0.030 A 
ATOM     20  C   UNL     1       2.101 -12.225  -3.665  0.00  0.00    +0.002 A 
ATOM     21  C   UNL     1       2.092 -13.330  -2.826  0.00  0.00    +0.002 A 
ATOM     22  C   UNL     1       1.918 -13.175  -1.467  0.00  0.00    +0.028 A 
ATOM     23  C   UNL     1       1.750 -11.904  -0.936  0.00  0.00    +0.069 A 
ATOM     24  N   UNL     1       1.563 -11.412   0.340  0.00  0.00    -0.331 N 
ATOM     25  C   UNL     1       1.490 -12.200   1.573  0.00  0.00    +0.150 C 
ENDBRANCH  15  16
ENDBRANCH  14  15
ENDBRANCH  12  14
ENDBRANCH   8  10
BRANCH   1  26
ATOM     26  C   UNL     1      -0.525  -3.313   2.845  0.00  0.00    -0.047 C 
BRANCH  26  32
ATOM     27  C   UNL     1      -1.472   0.905   0.240  0.00  0.00    +0.012 C 
ATOM     28  C   UNL     1      -1.256  -0.610   0.256  0.00  0.00    -0.025 C 
ATOM     29  C   UNL     1      -0.135  -1.090  -0.687  0.00  0.00    -0.000 C 
ATOM     30  C   UNL     1      -0.237  -2.602  -0.930  0.00  0.00    +0.031 C 
ATOM     31  C   UNL     1      -0.347  -3.324   0.391  0.00  0.00    -0.029 C 
ATOM     32  C   UNL     1      -0.406  -2.632   1.506  0.00  0.00    -0.086 C 
ATOM     33  C   UNL     1      -0.341  -1.097   1.394  0.00  0.00    +0.019 C 
ATOM     34  C   UNL     1       0.827  -0.713   0.453  0.00  0.00    +0.012 C 
ATOM     35  C   UNL     1      -2.559  -1.401   0.127  0.00  0.00    +0.012 C 
ENDBRANCH  26  32
ENDBRANCH   1  26
TORSDOF 6
