REMARK  Name = ZINC13135402
REMARK  10 active torsions:
REMARK  status: ('A' for Active; 'I' for Inactive)
REMARK    1  A    between atoms: C_1  and  C_2
REMARK    2  A    between atoms: C_2  and  O_3
REMARK    3  A    between atoms: O_3  and  C_4
REMARK    4  A    between atoms: C_4  and  C_6
REMARK    5  A    between atoms: C_7  and  C_19
REMARK    6  A    between atoms: C_12  and  C_14
REMARK    7  A    between atoms: C_19  and  O_20
REMARK    8  A    between atoms: O_20  and  C_21
REMARK    9  A    between atoms: C_21  and  C_23
REMARK   10  A    between atoms: C_30  and  C_33
REMARK                            x       y       z     vdW  Elec       q    Type
REMARK                         _______ _______ _______ _____ _____    ______ ____
ROOT
ATOM      1  C   UNL     1       2.368   4.569  -1.448  0.00  0.00    +0.082 C 
ATOM      2  C   UNL     1       2.354   5.893  -1.714  0.00  0.00    +0.061 C 
ATOM      3  N   UNL     1       2.165   6.810  -0.719  0.00  0.00    -0.269 N 
ATOM      4  C   UNL     1       1.984   6.483   0.567  0.00  0.00    +0.304 C 
ATOM      5  O   UNL     1       1.823   7.371   1.382  0.00  0.00    -0.252 OA
ATOM      6  N   UNL     1       1.973   5.203   0.987  0.00  0.00    -0.288 N 
ATOM      7  C   UNL     1       2.168   4.136  -0.009  0.00  0.00    +0.150 C 
ATOM      8  H   UNL     1       2.163   7.750  -0.958  0.00  0.00    +0.156 HD
ATOM      9  H   UNL     1       1.839   4.990   1.923  0.00  0.00    +0.151 HD
ENDROOT
BRANCH   7  10
ATOM     10  C   UNL     1       0.965   3.229   0.040  0.00  0.00    +0.015 A 
ATOM     11  C   UNL     1       0.916   1.875   0.020  0.00  0.00    +0.013 A 
ATOM     12  C   UNL     1      -0.315   1.248   0.076  0.00  0.00    +0.008 A 
ATOM     13  C   UNL     1      -1.436   2.006   0.143  0.00  0.00    +0.045 A 
ATOM     14  S   UNL     1      -0.764   3.660   0.140  0.00  0.00    -0.099 S 
ENDBRANCH   7  10
BRANCH   1  15
ATOM     15  C   UNL     1       2.562   3.619  -2.477  0.00  0.00    +0.339 C 
ATOM     16  O   UNL     1       3.652   3.100  -2.628  0.00  0.00    -0.245 OA
BRANCH  15  17
ATOM     17  O   UNL     1       1.538   3.287  -3.292  0.00  0.00    -0.462 OA
BRANCH  17  19
ATOM     18  C   UNL     1       0.535   2.075  -5.126  0.00  0.00    +0.048 C 
ATOM     19  C   UNL     1       1.806   2.320  -4.309  0.00  0.00    +0.229 C 
ENDBRANCH  17  19
ENDBRANCH  15  17
ENDBRANCH   1  15
BRANCH   2  20
ATOM     20  C   UNL     1       2.549   6.367  -3.131  0.00  0.00    +0.283 C 
BRANCH  20  21
ATOM     21  O   UNL     1       1.333   7.006  -3.599  0.00  0.00    -0.455 OA
BRANCH  21  22
ATOM     22  C   UNL     1       1.341   7.489  -4.859  0.00  0.00    +0.346 C 
ATOM     23  O   UNL     1       2.338   7.379  -5.546  0.00  0.00    -0.244 OA
BRANCH  22  24
ATOM     24  C   UNL     1       0.149   8.147  -5.398  0.00  0.00    +0.097 A 
ATOM     25  C   UNL     1      -0.047   8.709  -6.647  0.00  0.00    +0.026 A 
ATOM     26  C   UNL     1      -1.281   9.276  -6.922  0.00  0.00    -0.036 A 
ATOM     27  C   UNL     1      -2.211   9.240  -5.922  0.00  0.00    -0.006 A 
ATOM     28  S   UNL     1      -1.428   8.439  -4.614  0.00  0.00    -0.086 S 
ATOM     29  C   UNL     1      -3.606   9.783  -5.967  0.00  0.00    +0.043 C 
ATOM     30  C   UNL     1      -3.971  10.059  -7.433  0.00  0.00    +0.009 C 
ATOM     31  C   UNL     1      -2.824  10.835  -8.088  0.00  0.00    -0.009 C 
ATOM     32  C   UNL     1      -1.612   9.921  -8.266  0.00  0.00    +0.039 C 
ATOM     33  C   UNL     1      -3.275  11.349  -9.457  0.00  0.00    +0.008 C 
ENDBRANCH  22  24
ENDBRANCH  21  22
ENDBRANCH  20  21
ENDBRANCH   2  20
TORSDOF 8
