REMARK  Name = ZINC36551303
REMARK  18 active torsions:
REMARK  status: ('A' for Active; 'I' for Inactive)
REMARK    1  A    between atoms: C_1  and  C_2
REMARK    2  A    between atoms: C_2  and  C_36
REMARK    3  A    between atoms: C_3  and  C_4
REMARK    4  A    between atoms: N_6  and  C_7
REMARK    5  A    between atoms: N_6  and  C_14
REMARK    6  A    between atoms: C_14  and  C_16
REMARK    7  A    between atoms: C_14  and  C_25
REMARK    8  A    between atoms: C_17  and  O_24
REMARK    9  A    between atoms: C_19  and  O_23
REMARK   10  A    between atoms: C_21  and  O_22
REMARK   11  A    between atoms: N_27  and  C_28
REMARK   12  A    between atoms: C_28  and  C_29
REMARK   13  A    between atoms: C_28  and  C_30
REMARK   14  A    between atoms: C_28  and  C_31
REMARK   15  A    between atoms: C_31  and  C_32
REMARK   16  A    between atoms: C_32  and  C_33
REMARK   17  A    between atoms: C_32  and  C_34
REMARK   18  A    between atoms: C_32  and  C_35
REMARK                            x       y       z     vdW  Elec       q    Type
REMARK                         _______ _______ _______ _____ _____    ______ ____
ROOT
ATOM      1  C   UNL     1      -0.545   0.880   4.639  0.00  0.00    +0.204 C 
ENDROOT
BRANCH   1   2
ATOM      2  C   UNL     1       0.892   1.332   4.629  0.00  0.00    +0.065 A 
ATOM      3  C   UNL     1       1.848   0.591   3.951  0.00  0.00    +0.129 A 
ATOM      4  C   UNL     1       3.171   1.007   3.941  0.00  0.00    +0.091 A 
ATOM      5  C   UNL     1       3.538   2.166   4.609  0.00  0.00    +0.124 A 
ATOM      6  C   UNL     1       2.582   2.908   5.286  0.00  0.00    +0.091 A 
ATOM      7  C   UNL     1       1.258   2.494   5.292  0.00  0.00    +0.129 A 
BRANCH   7   8
ATOM      8  O   UNL     1       0.321   3.224   5.952  0.00  0.00    -0.506 OA
ATOM      9  H   UNL     1       0.202   2.967   6.877  0.00  0.00    +0.292 HD
ENDBRANCH   7   8
BRANCH   5  10
ATOM     10  O   UNL     1       4.834   2.574   4.601  0.00  0.00    -0.507 OA
ATOM     11  H   UNL     1       5.056   3.162   3.866  0.00  0.00    +0.292 HD
ENDBRANCH   5  10
BRANCH   3  12
ATOM     12  O   UNL     1       1.489  -0.545   3.296  0.00  0.00    -0.506 OA
ATOM     13  H   UNL     1       1.314  -0.417   2.354  0.00  0.00    +0.292 HD
ENDBRANCH   3  12
ENDBRANCH   1   2
BRANCH   1  14
ATOM     14  C   UNL     1      -0.680  -0.342   5.512  0.00  0.00    +0.239 C 
ATOM     15  O   UNL     1      -0.727  -1.444   5.009  0.00  0.00    -0.273 OA
ATOM     16  N   UNL     1      -0.750  -0.208   6.851  0.00  0.00    -0.308 N 
ATOM     17  H   UNL     1      -0.713   0.674   7.254  0.00  0.00    +0.149 HD
BRANCH  16  18
ATOM     18  C   UNL     1      -0.882  -1.395   7.700  0.00  0.00    +0.030 C 
ATOM     19  C   UNL     1      -2.208  -2.095   7.395  0.00  0.00    +0.031 C 
ATOM     20  C   UNL     1       0.277  -2.354   7.420  0.00  0.00    +0.031 C 
BRANCH  18  21
ATOM     21  C   UNL     1      -0.853  -0.976   9.171  0.00  0.00    +0.031 C 
BRANCH  21  22
ATOM     22  C   UNL     1       0.547  -0.474   9.531  0.00  0.00    -0.036 C 
ATOM     23  C   UNL     1       1.081   0.403   8.396  0.00  0.00    +0.010 C 
ATOM     24  C   UNL     1       0.478   0.346  10.820  0.00  0.00    +0.010 C 
ATOM     25  C   UNL     1       1.481  -1.669   9.735  0.00  0.00    +0.010 C 
ENDBRANCH  21  22
ENDBRANCH  18  21
ENDBRANCH  16  18
ENDBRANCH   1  14
BRANCH   1  28
ATOM     26  C   UNL     1      -0.552   1.316   2.242  0.00  0.00    +0.245 C 
ATOM     27  O   UNL     1       0.081   2.333   2.452  0.00  0.00    -0.270 OA
ATOM     28  N   UNL     1      -0.964   0.553   3.274  0.00  0.00    -0.252 N 
BRANCH  28  29
ATOM     29  C   UNL     1      -1.791  -0.550   3.042  0.00  0.00    +0.039 A 
ATOM     30  C   UNL     1      -3.134  -0.499   3.393  0.00  0.00    +0.023 A 
ATOM     31  C   UNL     1      -3.949  -1.590   3.162  0.00  0.00    +0.003 A 
ATOM     32  C   UNL     1      -3.430  -2.733   2.582  0.00  0.00    +0.020 A 
ATOM     33  C   UNL     1      -2.093  -2.787   2.230  0.00  0.00    +0.043 A 
ATOM     34  C   UNL     1      -1.273  -1.696   2.454  0.00  0.00    +0.043 A 
ATOM     35 CL   UNL     1      -1.445  -4.224   1.502  0.00  0.00    -0.083 Cl
ENDBRANCH  28  29
BRANCH  26  38
ATOM     36  C   UNL     1       0.227   2.983   0.099  0.00  0.00    +0.039 C 
ATOM     37  C   UNL     1      -0.433   1.653  -0.158  0.00  0.00    -0.071 C 
ATOM     38  C   UNL     1      -0.868   0.918   0.862  0.00  0.00    +0.066 C 
ATOM     39  C   UNL     1      -0.601   1.156  -1.571  0.00  0.00    +0.039 C 
ENDBRANCH  26  38
ENDBRANCH   1  28
TORSDOF 11
