REMARK  Name = ZINC15729745
REMARK  5 active torsions:
REMARK  status: ('A' for Active; 'I' for Inactive)
REMARK    1  A    between atoms: C_1  and  C_2
REMARK    2  A    between atoms: C_3  and  C_14
REMARK    3  A    between atoms: N_5  and  C_7
REMARK    4  A    between atoms: C_16  and  C_19
REMARK    5  A    between atoms: N_21  and  C_22
REMARK                            x       y       z     vdW  Elec       q    Type
REMARK                         _______ _______ _______ _____ _____    ______ ____
ROOT
ATOM      1  C   UNL     1       1.828  -1.828  -0.026  0.00  0.00    +0.206 A 
ATOM      2  N   UNL     1       3.115  -2.232  -0.040  0.00  0.00    -0.183 NA
ATOM      3  C   UNL     1       3.072  -3.547  -0.047  0.00  0.00    +0.314 A 
ATOM      4  O   UNL     1       1.777  -3.897  -0.037  0.00  0.00    -0.328 OA
ATOM      5  N   UNL     1       1.081  -2.903  -0.019  0.00  0.00    -0.055 NA
ENDROOT
BRANCH   1   8
ATOM      6  C   UNL     1      -1.206  -0.905   0.008  0.00  0.00    +0.068 C 
ATOM      7  C   UNL     1       0.002  -0.004   0.002  0.00  0.00    +0.071 A 
ATOM      8  C   UNL     1       1.347  -0.424  -0.013  0.00  0.00    +0.063 A 
ATOM      9  C   UNL     1       2.128   0.696  -0.015  0.00  0.00    +0.126 A 
ATOM     10  N   UNL     1       1.305   1.766  -0.001  0.00  0.00    -0.239 N 
ATOM     11  N   UNL     1      -0.016   1.302   0.009  0.00  0.00    -0.171 NA
BRANCH  10  12
ATOM     12  C   UNL     1       1.705   3.110   0.003  0.00  0.00    +0.065 A 
ATOM     13  C   UNL     1       3.055   3.434  -0.004  0.00  0.00    +0.029 A 
ATOM     14  C   UNL     1       3.446   4.758  -0.005  0.00  0.00    +0.022 A 
ATOM     15  C   UNL     1       2.494   5.762   0.009  0.00  0.00    +0.041 A 
ATOM     16  C   UNL     1       1.147   5.442   0.021  0.00  0.00    +0.022 A 
ATOM     17  C   UNL     1       0.751   4.119   0.018  0.00  0.00    +0.029 A 
ATOM     18 CL   UNL     1       2.988   7.426   0.013  0.00  0.00    -0.084 Cl
ENDBRANCH  10  12
ENDBRANCH   1   8
BRANCH   3  19
ATOM     19  C   UNL     1       4.234  -4.468  -0.064  0.00  0.00    +0.302 C 
ATOM     20  O   UNL     1       5.364  -4.020  -0.072  0.00  0.00    -0.265 OA
ATOM     21  N   UNL     1       4.038  -5.801  -0.069  0.00  0.00    -0.305 N 
ATOM     22  H   UNL     1       3.136  -6.159  -0.063  0.00  0.00    +0.149 HD
BRANCH  21  23
ATOM     23  C   UNL     1       5.186  -6.711  -0.085  0.00  0.00    +0.073 C 
ATOM     24  C   UNL     1       5.621  -6.987  -1.539  0.00  0.00    +0.022 C 
ATOM     25  C   UNL     1       6.042  -8.478  -1.533  0.00  0.00    +0.002 C 
ATOM     26  C   UNL     1       5.001  -9.123  -0.585  0.00  0.00    +0.002 C 
ATOM     27  C   UNL     1       4.792  -8.069   0.522  0.00  0.00    +0.022 C 
ENDBRANCH  21  23
ENDBRANCH   3  19
TORSDOF 4
