REMARK  Name = ZINC38610781
REMARK  8 active torsions:
REMARK  status: ('A' for Active; 'I' for Inactive)
REMARK    1  A    between atoms: C_1  and  C_2
REMARK    2  A    between atoms: C_2  and  C_3
REMARK    3  A    between atoms: C_3  and  C_4
REMARK    4  A    between atoms: C_4  and  N_5
REMARK    5  A    between atoms: N_8  and  C_9
REMARK    6  A    between atoms: C_17  and  C_19
REMARK    7  A    between atoms: C_19  and  O_21
REMARK    8  A    between atoms: O_21  and  C_22
REMARK                            x       y       z     vdW  Elec       q    Type
REMARK                         _______ _______ _______ _____ _____    ______ ____
ROOT
ATOM      1  C   UNL     1       2.260  -5.664  -4.027  0.00  0.00    +0.054 C 
ATOM      2  C   UNL     1       1.721  -6.736  -3.335  0.00  0.00    +0.019 A 
ATOM      3  C   UNL     1       0.998  -6.823  -2.121  0.00  0.00    +0.026 A 
ATOM      4  C   UNL     1       0.584  -8.034  -1.671  0.00  0.00    +0.019 A 
ATOM      5  C   UNL     1       0.853  -9.210  -2.377  0.00  0.00    +0.017 A 
ATOM      6  C   UNL     1       1.540  -9.201  -3.545  0.00  0.00    +0.027 A 
ATOM      7  C   UNL     1       2.006  -7.973  -4.082  0.00  0.00    +0.045 A 
ATOM      8  N   UNL     1       2.683  -7.702  -5.179  0.00  0.00    -0.367 N 
ATOM      9  C   UNL     1       2.903  -6.255  -5.262  0.00  0.00    +0.234 C 
ATOM     10 BR   UNL     1      -0.381  -8.134  -0.047  0.00  0.00    -0.050 Br
ATOM     11  H   UNL     1       2.985  -8.355  -5.830  0.00  0.00    +0.161 HD
ENDROOT
BRANCH   1  15
ATOM     12  N   UNL     1       2.429  -2.097  -4.239  0.00  0.00    -0.299 N 
ATOM     13  C   UNL     1       2.542  -3.399  -4.568  0.00  0.00    +0.304 C 
ATOM     14  O   UNL     1       2.939  -3.715  -5.672  0.00  0.00    -0.253 OA
ATOM     15  N   UNL     1       2.214  -4.351  -3.671  0.00  0.00    -0.270 N 
ATOM     16  H   UNL     1       2.112  -1.845  -3.358  0.00  0.00    +0.150 HD
ATOM     17  H   UNL     1       1.946  -4.100  -2.774  0.00  0.00    +0.156 HD
BRANCH  12  18
ATOM     18  C   UNL     1       2.785  -1.062  -5.213  0.00  0.00    +0.106 C 
BRANCH  18  19
ATOM     19  C   UNL     1       2.566   0.320  -4.593  0.00  0.00    +0.018 C 
BRANCH  19  21
ATOM     20  C   UNL     1       2.720   2.781  -4.989  0.00  0.00    +0.004 C 
ATOM     21  C   UNL     1       2.938   1.400  -5.610  0.00  0.00    -0.002 C 
ENDBRANCH  19  21
ENDBRANCH  18  19
ENDBRANCH  12  18
ENDBRANCH   1  15
BRANCH   9  22
ATOM     22  C   UNL     1       4.381  -5.957  -5.270  0.00  0.00    +0.335 C 
ATOM     23  O   UNL     1       5.171  -6.810  -4.942  0.00  0.00    -0.248 OA
BRANCH  22  24
ATOM     24  O   UNL     1       4.819  -4.744  -5.641  0.00  0.00    -0.466 OA
ATOM     25  C   UNL     1       6.232  -4.531  -5.625  0.00  0.00    +0.280 C 
ENDBRANCH  22  24
ENDBRANCH   9  22
TORSDOF 6
