REMARK  Name = ZINC05066106
REMARK  7 active torsions:
REMARK  status: ('A' for Active; 'I' for Inactive)
REMARK    1  A    between atoms: C_1  and  C_2
REMARK    2  A    between atoms: N_8  and  C_9
REMARK    3  A    between atoms: C_9  and  C_10
REMARK    4  A    between atoms: C_16  and  C_24
REMARK    5  A    between atoms: C_18  and  C_22
REMARK    6  A    between atoms: C_19  and  N_21
REMARK    7  A    between atoms: C_27  and  N_30
REMARK                            x       y       z     vdW  Elec       q    Type
REMARK                         _______ _______ _______ _____ _____    ______ ____
ROOT
ATOM      1  C   UNL     1       3.993  -4.408  -1.253  0.00  0.00    +0.064 C 
ATOM      2  C   UNL     1       2.627  -3.825  -0.999  0.00  0.00    +0.023 A 
ATOM      3  C   UNL     1       2.501  -2.503  -0.757  0.00  0.00    +0.068 A 
ATOM      4  C   UNL     1       1.224  -1.953  -0.519  0.00  0.00    +0.141 A 
ATOM      5  C   UNL     1       0.125  -2.785  -0.537  0.00  0.00    +0.072 A 
ATOM      6  C   UNL     1       0.304  -4.151  -0.792  0.00  0.00    +0.259 A 
ATOM      7  O   UNL     1      -0.661  -4.899  -0.811  0.00  0.00    -0.267 OA
ATOM      8  N   UNL     1       1.538  -4.638  -1.016  0.00  0.00    -0.308 N 
ATOM      9  C   UNL     1      -1.255  -2.241  -0.287  0.00  0.00    +0.103 C 
ATOM     10  C   UNL     1      -1.257  -0.744  -0.430  0.00  0.00    +0.098 C 
ATOM     11  C   UNL     1      -0.103  -0.037  -0.423  0.00  0.00    +0.199 C 
ATOM     12  O   UNL     1       1.095  -0.631  -0.278  0.00  0.00    -0.441 OA
ENDROOT
BRANCH   9  13
ATOM     13  C   UNL     1      -1.689  -2.604   1.110  0.00  0.00    -0.034 A 
ATOM     14  C   UNL     1      -0.952  -2.174   2.197  0.00  0.00    +0.007 A 
ATOM     15  C   UNL     1      -1.353  -2.502   3.478  0.00  0.00    +0.033 A 
ATOM     16  C   UNL     1      -2.486  -3.270   3.672  0.00  0.00    +0.126 A 
ATOM     17  C   UNL     1      -3.221  -3.705   2.585  0.00  0.00    +0.033 A 
ATOM     18  C   UNL     1      -2.822  -3.372   1.304  0.00  0.00    +0.007 A 
BRANCH  16  19
ATOM     19  N   UNL     1      -2.912  -3.627   5.044  0.00  0.00    +0.056 N 
ATOM     20  O   UNL     1      -3.910  -4.304   5.215  0.00  0.00    -0.126 OA
ATOM     21  O   UNL     1      -2.265  -3.244   6.002  0.00  0.00    -0.126 OA
ENDBRANCH  16  19
ENDBRANCH   9  13
BRANCH  11  22
ATOM     22  N   UNL     1      -0.157   1.327  -0.562  0.00  0.00    -0.328 N 
ATOM     23  H   UNL     1       0.661   1.849  -0.555  0.00  0.00    +0.145 HD
ATOM     24  H   UNL     1      -1.013   1.770  -0.672  0.00  0.00    +0.145 HD
ENDBRANCH  11  22
BRANCH  10  25
ATOM     25  C   UNL     1      -2.503  -0.055  -0.583  0.00  0.00    +0.101 C 
ATOM     26  N   UNL     1      -3.491   0.492  -0.704  0.00  0.00    -0.191 NA
ENDBRANCH  10  25
BRANCH   8  27
ATOM     27  C   UNL     1       1.711  -6.069  -1.283  0.00  0.00    +0.161 C 
BRANCH  27  28
ATOM     28  C   UNL     1       1.510  -6.333  -2.753  0.00  0.00    -0.010 A 
ATOM     29  C   UNL     1       2.595  -6.366  -3.615  0.00  0.00    +0.008 A 
ATOM     30  C   UNL     1       2.362  -6.613  -4.960  0.00  0.00    +0.020 A 
ATOM     31  C   UNL     1       1.066  -6.817  -5.392  0.00  0.00    +0.111 A 
ATOM     32  N   UNL     1       0.057  -6.778  -4.544  0.00  0.00    -0.263 NA
ATOM     33  C   UNL     1       0.242  -6.552  -3.257  0.00  0.00    +0.116 A 
ENDBRANCH  27  28
ENDBRANCH   8  27
TORSDOF 6
