REMARK  Name = ZINC08904497
REMARK  8 active torsions:
REMARK  status: ('A' for Active; 'I' for Inactive)
REMARK    1  A    between atoms: C_1  and  C_2
REMARK    2  A    between atoms: C_2  and  C_3
REMARK    3  A    between atoms: C_2  and  C_4
REMARK    4  A    between atoms: N_9  and  C_12
REMARK    5  A    between atoms: C_13  and  N_19
REMARK    6  A    between atoms: N_19  and  C_20
REMARK    7  A    between atoms: C_20  and  N_22
REMARK    8  A    between atoms: C_23  and  C_25
REMARK                            x       y       z     vdW  Elec       q    Type
REMARK                         _______ _______ _______ _____ _____    ______ ____
ROOT
ATOM      1  C   UNL     1       2.350   1.528   0.305  0.00  0.00    +0.070 A 
ATOM      2  C   UNL     1       2.346   0.150   0.094  0.00  0.00    +0.055 A 
ATOM      3  C   UNL     1       1.144  -0.514  -0.102  0.00  0.00    +0.025 A 
ATOM      4  C   UNL     1      -0.046   0.191  -0.087  0.00  0.00    +0.003 A 
ATOM      5  C   UNL     1      -0.042   1.557   0.123  0.00  0.00    +0.022 A 
ATOM      6  C   UNL     1       1.152   2.228   0.319  0.00  0.00    +0.064 A 
ATOM      7 CL   UNL     1       1.151   3.944   0.582  0.00  0.00    -0.082 Cl
ENDROOT
BRANCH   1  13
ATOM      8  C   UNL     1       5.784   5.534   1.259  0.00  0.00    +0.218 C 
ATOM      9  O   UNL     1       5.950   6.319   0.350  0.00  0.00    -0.275 OA
ATOM     10  N   UNL     1       5.345   4.286   0.999  0.00  0.00    -0.298 N 
ATOM     11  C   UNL     1       5.173   3.819  -0.385  0.00  0.00    +0.126 C 
ATOM     12  C   UNL     1       3.765   3.230  -0.528  0.00  0.00    +0.124 C 
ATOM     13  N   UNL     1       3.560   2.204   0.504  0.00  0.00    -0.324 N 
ATOM     14  C   UNL     1       3.624   2.784   1.852  0.00  0.00    +0.124 C 
ATOM     15  C   UNL     1       5.026   3.355   2.093  0.00  0.00    +0.126 C 
BRANCH   8  17
ATOM     16  C   UNL     1       7.244   6.931   2.696  0.00  0.00    +0.017 C 
ATOM     17  C   UNL     1       6.068   5.952   2.678  0.00  0.00    +0.069 C 
ATOM     18  C   UNL     1       4.830   6.633   3.266  0.00  0.00    +0.017 C 
ENDBRANCH   8  17
ENDBRANCH   1  13
BRANCH   2  19
ATOM     19  N   UNL     1       3.552  -0.562   0.078  0.00  0.00    -0.295 N 
ATOM     20  H   UNL     1       4.307  -0.228  -0.432  0.00  0.00    +0.154 HD
BRANCH  19  21
ATOM     21  C   UNL     1       3.665  -1.712   0.772  0.00  0.00    +0.141 C 
ATOM     22  S   UNL     1       2.301  -2.365   1.574  0.00  0.00    -0.018 S 
BRANCH  21  23
ATOM     23  N   UNL     1       4.851  -2.349   0.834  0.00  0.00    -0.264 N 
ATOM     24  C   UNL     1       4.964  -3.499   1.528  0.00  0.00    +0.250 C 
ATOM     25  O   UNL     1       3.996  -3.962   2.097  0.00  0.00    -0.270 OA
ATOM     26  H   UNL     1       5.625  -1.979   0.380  0.00  0.00    +0.157 HD
BRANCH  24  27
ATOM     27  C   UNL     1       6.265  -4.196   1.596  0.00  0.00    +0.038 A 
ATOM     28  C   UNL     1       7.378  -3.669   0.938  0.00  0.00    +0.013 A 
ATOM     29  C   UNL     1       8.591  -4.323   1.009  0.00  0.00    +0.002 A 
ATOM     30  C   UNL     1       8.704  -5.503   1.722  0.00  0.00    +0.015 A 
ATOM     31  C   UNL     1       7.603  -6.034   2.372  0.00  0.00    +0.019 A 
ATOM     32  C   UNL     1       6.385  -5.388   2.313  0.00  0.00    +0.028 A 
ATOM     33 BR   UNL     1       7.769  -7.649   3.343  0.00  0.00    -0.050 Br
ENDBRANCH  24  27
ENDBRANCH  21  23
ENDBRANCH  19  21
ENDBRANCH   2  19
TORSDOF 6
