REMARK  Name = ZINC53840508
REMARK  8 active torsions:
REMARK  status: ('A' for Active; 'I' for Inactive)
REMARK    1  A    between atoms: C_1  and  C_2
REMARK    2  A    between atoms: C_2  and  C_4
REMARK    3  A    between atoms: C_2  and  N_10
REMARK    4  A    between atoms: C_14  and  S_15
REMARK    5  A    between atoms: S_15  and  C_16
REMARK    6  A    between atoms: C_16  and  C_17
REMARK    7  A    between atoms: N_23  and  C_24
REMARK    8  A    between atoms: N_23  and  C_25
REMARK                            x       y       z     vdW  Elec       q    Type
REMARK                         _______ _______ _______ _____ _____    ______ ____
ROOT
ATOM      1  S   UNL     1       2.726  -1.876   0.107  0.00  0.00    -0.078 S 
ENDROOT
BRANCH   1   6
ATOM      2  N   UNL     1       0.688  -0.476  -1.203  0.00  0.00    -0.301 N 
ATOM      3  C   UNL     1       0.338  -0.231  -2.502  0.00  0.00    +0.226 A 
ATOM      4  N   UNL     1       1.211  -0.833  -3.260  0.00  0.00    -0.137 NA
ATOM      5  N   UNL     1       2.082  -1.438  -2.534  0.00  0.00    -0.123 NA
ATOM      6  C   UNL     1       1.812  -1.249  -1.263  0.00  0.00    +0.192 A 
BRANCH   2   8
ATOM      7  C   UNL     1      -0.019   1.526   0.010  0.00  0.00    +0.036 C 
ATOM      8  C   UNL     1       0.002  -0.004   0.002  0.00  0.00    +0.117 C 
BRANCH   8   9
ATOM      9  C   UNL     1      -1.412  -0.526   0.013  0.00  0.00    -0.025 A 
ATOM     10  C   UNL     1      -2.276  -0.202  -1.017  0.00  0.00    +0.005 A 
ATOM     11  C   UNL     1      -3.572  -0.681  -1.007  0.00  0.00    +0.000 A 
ATOM     12  C   UNL     1      -4.005  -1.483   0.032  0.00  0.00    +0.000 A 
ATOM     13  C   UNL     1      -3.141  -1.807   1.061  0.00  0.00    +0.000 A 
ATOM     14  C   UNL     1      -1.843  -1.332   1.049  0.00  0.00    +0.005 A 
ENDBRANCH   8   9
ENDBRANCH   2   8
ENDBRANCH   1   6
BRANCH   1  15
ATOM     15  C   UNL     1       4.081  -2.807  -0.660  0.00  0.00    +0.153 C 
BRANCH  15  16
ATOM     16  C   UNL     1       4.952  -3.404   0.416  0.00  0.00    +0.146 A 
ATOM     17  N   UNL     1       5.978  -2.719   0.889  0.00  0.00    -0.199 NA
ATOM     18  C   UNL     1       6.749  -3.243   1.840  0.00  0.00    +0.217 A 
ATOM     19  N   UNL     1       6.486  -4.456   2.312  0.00  0.00    -0.181 NA
ATOM     20  C   UNL     1       5.453  -5.142   1.834  0.00  0.00    +0.222 A 
ATOM     21  N   UNL     1       4.684  -4.609   0.887  0.00  0.00    -0.198 NA
ATOM     22  N   UNL     1       5.176  -6.403   2.321  0.00  0.00    -0.306 N 
ATOM     23  C   UNL     1       6.020  -6.986   3.367  0.00  0.00    +0.132 C 
ATOM     24  C   UNL     1       4.037  -7.158   1.793  0.00  0.00    +0.132 C 
ATOM     25  N   UNL     1       7.820  -2.526   2.333  0.00  0.00    -0.327 N 
ATOM     26  H   UNL     1       8.012  -1.640   1.987  0.00  0.00    +0.145 HD
ATOM     27  H   UNL     1       8.381  -2.909   3.026  0.00  0.00    +0.145 HD
ENDBRANCH  15  16
ENDBRANCH   1  15
TORSDOF 5
