REMARK  Name = ZINC39164907
REMARK  4 active torsions:
REMARK  status: ('A' for Active; 'I' for Inactive)
REMARK    1  A    between atoms: C_1  and  C_2
REMARK    2  A    between atoms: N_4  and  C_18
REMARK    3  A    between atoms: C_5  and  N_8
REMARK    4  A    between atoms: C_9  and  C_11
REMARK                            x       y       z     vdW  Elec       q    Type
REMARK                         _______ _______ _______ _____ _____    ______ ____
ROOT
ATOM      1  C   UNL     1       0.553   1.438  -0.151  0.00  0.00    +0.062 C 
ATOM      2  C   UNL     1       0.282  -0.043  -0.105  0.00  0.00    +0.037 C 
ATOM      3  N   UNL     1       0.289  -0.819  -1.111  0.00  0.00    -0.187 NA
ATOM      4  N   UNL     1       0.008  -2.151  -0.814  0.00  0.00    -0.204 N 
ATOM      5  C   UNL     1      -0.223  -2.274   0.635  0.00  0.00    +0.189 C 
ATOM      6  C   UNL     1      -0.033  -0.832   1.146  0.00  0.00    +0.096 C 
ENDROOT
BRANCH   4   7
ATOM      7  C   UNL     1      -0.045  -3.197  -1.739  0.00  0.00    +0.054 A 
ATOM      8  C   UNL     1       0.032  -4.515  -1.304  0.00  0.00    +0.028 A 
ATOM      9  C   UNL     1      -0.021  -5.547  -2.220  0.00  0.00    +0.040 A 
ATOM     10  C   UNL     1      -0.151  -5.270  -3.571  0.00  0.00    +0.124 A 
ATOM     11  C   UNL     1      -0.228  -3.958  -4.006  0.00  0.00    +0.040 A 
ATOM     12  C   UNL     1      -0.182  -2.922  -3.094  0.00  0.00    +0.028 A 
ATOM     13  F   UNL     1      -0.202  -6.281  -4.465  0.00  0.00    -0.205 F 
ENDBRANCH   4   7
BRANCH   5  14
ATOM     14  N   UNL     1      -1.581  -2.752   0.903  0.00  0.00    -0.293 N 
ATOM     15  C   UNL     1      -1.780  -4.015   1.330  0.00  0.00    +0.246 C 
ATOM     16  O   UNL     1      -0.830  -4.727   1.579  0.00  0.00    -0.273 OA
ATOM     17  H   UNL     1      -2.338  -2.159   0.773  0.00  0.00    +0.151 HD
BRANCH  15  18
ATOM     18  C   UNL     1      -3.181  -4.542   1.497  0.00  0.00    +0.252 C 
ATOM     19  C   UNL     1      -3.739  -5.018   0.167  0.00  0.00    +0.050 C 
ATOM     20  C   UNL     1      -3.968  -6.321   0.362  0.00  0.00    +0.148 C 
ATOM     21  N   UNL     1      -3.626  -6.684   1.617  0.00  0.00    -0.161 NA
ATOM     22  N   UNL     1      -3.183  -5.766   2.317  0.00  0.00    -0.169 NA
ATOM     23 BR   UNL     1      -4.040  -4.003  -1.400  0.00  0.00    -0.051 Br
ENDBRANCH  15  18
ENDBRANCH   5  14
TORSDOF 3
