REMARK  Name = ZINC49723387
REMARK  8 active torsions:
REMARK  status: ('A' for Active; 'I' for Inactive)
REMARK    1  A    between atoms: C_1  and  C_2
REMARK    2  A    between atoms: C_2  and  C_3
REMARK    3  A    between atoms: C_3  and  C_4
REMARK    4  A    between atoms: C_3  and  C_6
REMARK    5  A    between atoms: C_4  and  C_5
REMARK    6  A    between atoms: C_12  and  C_13
REMARK    7  A    between atoms: C_16  and  C_18
REMARK    8  A    between atoms: C_21  and  C_25
REMARK                            x       y       z     vdW  Elec       q    Type
REMARK                         _______ _______ _______ _____ _____    ______ ____
ROOT
ATOM      1  C   UNL     1      -3.192  -1.768  -0.714  0.00  0.00    +0.103 C 
ATOM      2  N   UNL     1      -2.657  -2.751  -1.380  0.00  0.00    -0.169 NA
ATOM      3  N   UNL     1      -2.367  -3.954  -0.771  0.00  0.00    -0.154 N 
ATOM      4  C   UNL     1      -1.709  -5.047  -1.374  0.00  0.00    +0.132 C 
ATOM      5  N   UNL     1      -0.931  -4.930  -2.420  0.00  0.00    -0.385 N 
ATOM      6  C   UNL     1      -1.988  -6.346  -0.705  0.00  0.00    +0.082 C 
ATOM      7  C   UNL     1      -2.048  -7.535  -1.415  0.00  0.00    +0.062 C 
ATOM      8  C   UNL     1      -2.196  -6.302   0.761  0.00  0.00    +0.273 C 
ATOM      9  O   UNL     1      -1.979  -7.282   1.456  0.00  0.00    -0.268 OA
ATOM     10  N   UNL     1      -2.632  -5.148   1.306  0.00  0.00    -0.152 NA
ATOM     11  C   UNL     1      -2.730  -4.082   0.553  0.00  0.00    +0.181 C 
ATOM     12  S   UNL     1      -3.354  -2.465   0.925  0.00  0.00    -0.038 S 
ATOM     13  H   UNL     1      -0.783  -4.058  -2.818  0.00  0.00    +0.157 HD
ATOM     14  H   UNL     1      -0.503  -5.715  -2.796  0.00  0.00    +0.157 HD
ENDROOT
BRANCH   7  15
ATOM     15  C   UNL     1      -2.543  -8.697  -0.799  0.00  0.00    +0.129 A 
ATOM     16  C   UNL     1      -2.531  -9.974  -1.342  0.00  0.00    +0.050 A 
ATOM     17  C   UNL     1      -3.117 -10.817  -0.399  0.00  0.00    +0.050 A 
ATOM     18  C   UNL     1      -3.465 -10.035   0.682  0.00  0.00    +0.136 A 
ATOM     19  O   UNL     1      -3.108  -8.765   0.425  0.00  0.00    -0.455 OA
BRANCH  18  20
ATOM     20  C   UNL     1      -4.117 -10.513   1.916  0.00  0.00    +0.019 A 
ATOM     21  C   UNL     1      -4.429 -11.867   2.066  0.00  0.00    +0.012 A 
ATOM     22  C   UNL     1      -5.038 -12.308   3.222  0.00  0.00    +0.005 A 
ATOM     23  C   UNL     1      -5.341 -11.413   4.233  0.00  0.00    -0.032 A 
ATOM     24  C   UNL     1      -5.035 -10.070   4.092  0.00  0.00    +0.045 A 
ATOM     25  C   UNL     1      -4.420  -9.616   2.943  0.00  0.00    +0.031 A 
ATOM     26 CL   UNL     1      -5.420  -8.955   5.367  0.00  0.00    -0.083 Cl
ATOM     27  C   UNL     1      -6.007 -11.902   5.493  0.00  0.00    +0.045 C 
ENDBRANCH  18  20
ENDBRANCH   7  15
BRANCH   1  28
ATOM     28  C   UNL     1      -3.571  -0.393  -1.199  0.00  0.00    +0.046 C 
BRANCH  28  30
ATOM     29  C   UNL     1      -2.294   0.783   0.598  0.00  0.00    +0.004 C 
ATOM     30  C   UNL     1      -2.427   0.582  -0.913  0.00  0.00    +0.007 C 
ENDBRANCH  28  30
BRANCH  28  31
ATOM     31  C   UNL     1      -3.838  -0.439  -2.704  0.00  0.00    +0.007 C 
ATOM     32  C   UNL     1      -5.102  -1.259  -2.974  0.00  0.00    +0.004 C 
ENDBRANCH  28  31
ENDBRANCH   1  28
TORSDOF 5
