REMARK  Name = ZINC08513614
REMARK  2 active torsions:
REMARK  status: ('A' for Active; 'I' for Inactive)
REMARK    1  A    between atoms: C_3  and  C_9
REMARK    2  A    between atoms: C_6  and  C_7
REMARK                            x       y       z     vdW  Elec       q    Type
REMARK                         _______ _______ _______ _____ _____    ______ ____
ROOT
ATOM      1  C   UNL     1       3.670   2.194  -0.021  0.00  0.00    +0.090 C 
ATOM      2  C   UNL     1       4.434   1.861  -1.269  0.00  0.00    +0.042 A 
ATOM      3  C   UNL     1       4.053   2.417  -2.500  0.00  0.00    +0.126 A 
ATOM      4  N   UNL     1       4.736   2.111  -3.598  0.00  0.00    -0.208 NA
ATOM      5  C   UNL     1       5.777   1.286  -3.551  0.00  0.00    +0.180 A 
ATOM      6  S   UNL     1       6.627   0.920  -4.991  0.00  0.00    -0.011 S 
ATOM      7  N   UNL     1       6.175   0.733  -2.389  0.00  0.00    -0.322 N 
ATOM      8  C   UNL     1       5.505   1.017  -1.231  0.00  0.00    +0.110 A 
ATOM      9  N   UNL     1       5.905   0.462  -0.040  0.00  0.00    -0.304 N 
ATOM     10  C   UNL     1       5.521   1.014   1.152  0.00  0.00    +0.017 C 
ATOM     11  C   UNL     1       4.462   1.846   1.214  0.00  0.00    +0.024 C 
ATOM     12  C   UNL     1       4.061   2.414   2.436  0.00  0.00    +0.162 C 
ATOM     13  O   UNL     1       3.113   3.175   2.458  0.00  0.00    -0.292 OA
ATOM     14  C   UNL     1       4.782   2.098   3.718  0.00  0.00    +0.080 C 
ATOM     15  C   UNL     1       5.398   0.700   3.610  0.00  0.00    +0.014 C 
ATOM     16  C   UNL     1       6.314   0.670   2.389  0.00  0.00    +0.051 C 
ATOM     17  N   UNL     1       2.977   3.275  -2.569  0.00  0.00    -0.343 N 
ATOM     18  H   UNL     1       6.465  -0.330  -0.044  0.00  0.00    +0.153 HD
ATOM     19  H   UNL     1       2.715   3.657  -3.421  0.00  0.00    +0.144 HD
ATOM     20  H   UNL     1       2.480   3.495  -1.766  0.00  0.00    +0.144 HD
ATOM     21  H   UNL     1       6.937   0.133  -2.374  0.00  0.00    +0.169 HD
ENDROOT
BRANCH   1  24
ATOM     22  C   UNL     1      -0.017   1.392   0.010  0.00  0.00    +0.019 A 
ATOM     23  C   UNL     1       1.170   2.095   0.002  0.00  0.00    +0.006 A 
ATOM     24  C   UNL     1       2.378   1.419  -0.013  0.00  0.00    -0.035 A 
ATOM     25  C   UNL     1       2.404   0.036  -0.021  0.00  0.00    +0.006 A 
ATOM     26  C   UNL     1       1.224  -0.679  -0.014  0.00  0.00    +0.019 A 
ATOM     27  C   UNL     1       0.002  -0.004   0.002  0.00  0.00    +0.052 A 
BRANCH  27  28
ATOM     28  C   UNL     1      -1.226  -0.740   0.010  0.00  0.00    +0.099 C 
ATOM     29  N   UNL     1      -2.201  -1.324   0.017  0.00  0.00    -0.191 NA
ENDBRANCH  27  28
ENDBRANCH   1  24
TORSDOF 2
