REMARK  Name = ZINC37155653
REMARK  5 active torsions:
REMARK  status: ('A' for Active; 'I' for Inactive)
REMARK    1  A    between atoms: C_1  and  C_2
REMARK    2  A    between atoms: C_6  and  C_23
REMARK    3  A    between atoms: C_8  and  S_11
REMARK    4  A    between atoms: S_11  and  C_12
REMARK    5  A    between atoms: N_16  and  C_17
REMARK                            x       y       z     vdW  Elec       q    Type
REMARK                         _______ _______ _______ _____ _____    ______ ____
ROOT
ATOM      1  C   UNL     1       3.321  -2.208   2.403  0.00  0.00    +0.214 A 
ATOM      2  N   UNL     1       3.779  -1.505   1.389  0.00  0.00    -0.101 NA
ATOM      3  N   UNL     1       5.053  -1.371   1.473  0.00  0.00    -0.022 NA
ATOM      4  N   UNL     1       5.499  -1.966   2.526  0.00  0.00    -0.038 NA
ATOM      5  N   UNL     1       4.388  -2.531   3.176  0.00  0.00    -0.187 N 
ENDROOT
BRANCH   5   6
ATOM      6  C   UNL     1       4.384  -3.271   4.367  0.00  0.00    +0.070 A 
ATOM      7  C   UNL     1       3.317  -3.163   5.249  0.00  0.00    +0.028 A 
ATOM      8  C   UNL     1       3.315  -3.893   6.421  0.00  0.00    +0.002 A 
ATOM      9  C   UNL     1       4.375  -4.731   6.717  0.00  0.00    +0.000 A 
ATOM     10  C   UNL     1       5.439  -4.840   5.841  0.00  0.00    +0.002 A 
ATOM     11  C   UNL     1       5.444  -4.117   4.665  0.00  0.00    +0.028 A 
ENDBRANCH   5   6
BRANCH   1  12
ATOM     12  S   UNL     1       1.640  -2.642   2.703  0.00  0.00    -0.080 S 
BRANCH  12  18
ATOM     13  C   UNL     1       0.103   1.970   0.770  0.00  0.00    +0.007 C 
ATOM     14  C   UNL     1       0.027   0.461   0.533  0.00  0.00    -0.013 C 
ATOM     15  C   UNL     1      -1.436   0.014   0.555  0.00  0.00    +0.004 C 
ATOM     16  C   UNL     1      -1.511  -1.496   0.318  0.00  0.00    +0.020 C 
ATOM     17  C   UNL     1      -0.739  -2.225   1.419  0.00  0.00    +0.105 C 
ATOM     18  C   UNL     1       0.724  -1.778   1.397  0.00  0.00    +0.071 C 
ATOM     19  C   UNL     1       0.800  -0.268   1.634  0.00  0.00    +0.019 C 
BRANCH  17  20
ATOM     20  C   UNL     1      -0.812  -3.677   1.191  0.00  0.00    +0.067 C 
ATOM     21  N   UNL     1      -0.868  -4.798   1.014  0.00  0.00    -0.196 NA
ENDBRANCH  17  20
ENDBRANCH  12  18
ENDBRANCH   1  12
TORSDOF 4
