REMARK  Name = ZINC20207878
REMARK  11 active torsions:
REMARK  status: ('A' for Active; 'I' for Inactive)
REMARK    1  A    between atoms: C_1  and  C_2
REMARK    2  A    between atoms: C_6  and  C_35
REMARK    3  A    between atoms: C_7  and  O_8
REMARK    4  A    between atoms: O_8  and  C_9
REMARK    5  A    between atoms: C_9  and  C_10
REMARK    6  A    between atoms: C_10  and  C_11
REMARK    7  A    between atoms: C_11  and  O_12
REMARK    8  A    between atoms: O_12  and  C_13
REMARK    9  A    between atoms: C_16  and  C_19
REMARK   10  A    between atoms: C_29  and  S_31
REMARK   11  A    between atoms: S_31  and  C_34
REMARK                            x       y       z     vdW  Elec       q    Type
REMARK                         _______ _______ _______ _____ _____    ______ ____
ROOT
ATOM      1  C   UNL     1      -3.315   2.579   6.987  0.00  0.00    +0.121 A 
ATOM      2  C   UNL     1      -4.548   2.475   6.352  0.00  0.00    +0.046 A 
ATOM      3  C   UNL     1      -5.697   2.763   7.034  0.00  0.00    +0.011 A 
ATOM      4  C   UNL     1      -5.631   3.162   8.376  0.00  0.00    -0.024 A 
ATOM      5  C   UNL     1      -4.384   3.264   9.011  0.00  0.00    +0.011 A 
ATOM      6  C   UNL     1      -3.243   2.969   8.320  0.00  0.00    +0.046 A 
ENDROOT
BRANCH   4   7
ATOM      7  C   UNL     1      -6.858   3.472   9.113  0.00  0.00    +0.024 C 
ATOM      8  C   UNL     1      -8.021   2.792   8.829  0.00  0.00    +0.081 C 
ATOM      9  C   UNL     1      -8.039   1.613   7.917  0.00  0.00    +0.153 C 
ATOM     10  N   UNL     1      -7.047   0.770   7.816  0.00  0.00    -0.283 NA
ATOM     11  N   UNL     1      -9.234   1.498   7.175  0.00  0.00    -0.150 N 
ATOM     12  C   UNL     1     -10.362   2.104   7.685  0.00  0.00    +0.182 C 
ATOM     13  N   UNL     1     -10.447   2.867   8.746  0.00  0.00    -0.152 NA
ATOM     14  C   UNL     1      -9.323   3.189   9.421  0.00  0.00    +0.273 C 
ATOM     15  O   UNL     1      -9.374   3.792  10.481  0.00  0.00    -0.268 OA
ATOM     16  S   UNL     1     -11.610   1.597   6.532  0.00  0.00    -0.015 S 
ATOM     17  C   UNL     1     -10.542   0.710   5.407  0.00  0.00    +0.235 C 
ATOM     18  N   UNL     1      -9.380   0.821   5.983  0.00  0.00    -0.145 NA
ATOM     19  H   UNL     1      -7.111   0.018   7.206  0.00  0.00    +0.188 HD
BRANCH  17  20
ATOM     20  S   UNL     1     -10.957  -0.108   3.902  0.00  0.00    +0.019 S 
ATOM     21  O   UNL     1     -12.049   0.634   3.375  0.00  0.00    -0.168 OA
ATOM     22  O   UNL     1      -9.732  -0.198   3.188  0.00  0.00    -0.168 OA
ATOM     23  C   UNL     1     -11.510  -1.760   4.406  0.00  0.00    +0.202 C 
ENDBRANCH  17  20
ENDBRANCH   4   7
BRANCH   1  24
ATOM     24  O   UNL     1      -2.178   2.293   6.305  0.00  0.00    -0.492 OA
BRANCH  24  25
ATOM     25  C   UNL     1      -2.322   1.898   4.939  0.00  0.00    +0.232 C 
BRANCH  25  26
ATOM     26  C   UNL     1      -0.943   1.619   4.340  0.00  0.00    +0.082 C 
BRANCH  26  27
ATOM     27  C   UNL     1      -1.098   1.196   2.878  0.00  0.00    +0.232 C 
BRANCH  27  28
ATOM     28  O   UNL     1       0.191   0.935   2.318  0.00  0.00    -0.491 OA
BRANCH  28  35
ATOM     29  C   UNL     1       0.406   2.959   0.359  0.00  0.00    +0.047 C 
ATOM     30  C   UNL     1       0.336   1.495   0.010  0.00  0.00    -0.009 A 
ATOM     31  C   UNL     1       0.383   1.097  -1.312  0.00  0.00    +0.007 A 
ATOM     32  C   UNL     1       0.320  -0.247  -1.633  0.00  0.00    +0.001 A 
ATOM     33  C   UNL     1       0.209  -1.194  -0.632  0.00  0.00    +0.007 A 
ATOM     34  C   UNL     1       0.162  -0.801   0.692  0.00  0.00    -0.009 A 
ATOM     35  C   UNL     1       0.231   0.546   1.016  0.00  0.00    +0.126 A 
ATOM     36  C   UNL     1       0.041  -1.835   1.782  0.00  0.00    +0.047 C 
ENDBRANCH  28  35
ENDBRANCH  27  28
ENDBRANCH  26  27
ENDBRANCH  25  26
ENDBRANCH  24  25
ENDBRANCH   1  24
TORSDOF 8
