REMARK  Name = ZINC35114466
REMARK  6 active torsions:
REMARK  status: ('A' for Active; 'I' for Inactive)
REMARK    1  A    between atoms: C_1  and  O_2
REMARK    2  A    between atoms: O_2  and  C_3
REMARK    3  A    between atoms: C_3  and  C_5
REMARK    4  A    between atoms: C_9  and  C_24
REMARK    5  A    between atoms: C_12  and  C_14
REMARK    6  A    between atoms: C_17  and  N_21
REMARK                            x       y       z     vdW  Elec       q    Type
REMARK                         _______ _______ _______ _____ _____    ______ ____
ROOT
ATOM      1  C   UNL     1      -1.290  -2.115   0.199  0.00  0.00    +0.196 C 
ATOM      2  C   UNL     1      -0.558  -2.708  -1.040  0.00  0.00    +0.105 C 
ATOM      3  S   UNL     1      -1.300  -4.402  -1.006  0.00  0.00    -0.131 S 
ATOM      4  C   UNL     1      -2.928  -3.927  -0.284  0.00  0.00    +0.166 C 
ATOM      5  N   UNL     1      -2.673  -2.579   0.255  0.00  0.00    -0.267 N 
ATOM      6  C   UNL     1      -3.660  -1.820   0.770  0.00  0.00    +0.250 C 
ATOM      7  O   UNL     1      -3.441  -0.665   1.079  0.00  0.00    -0.270 OA
ENDROOT
BRANCH   6   8
ATOM      8  C   UNL     1      -5.009  -2.392   0.961  0.00  0.00    +0.055 A 
ATOM      9  C   UNL     1      -5.324  -3.641   0.422  0.00  0.00    +0.017 A 
ATOM     10  C   UNL     1      -6.585  -4.170   0.604  0.00  0.00    +0.033 A 
ATOM     11  C   UNL     1      -7.538  -3.465   1.319  0.00  0.00    +0.128 A 
ATOM     12  C   UNL     1      -7.235  -2.228   1.856  0.00  0.00    +0.053 A 
ATOM     13  C   UNL     1      -5.974  -1.689   1.687  0.00  0.00    +0.055 A 
ATOM     14 CL   UNL     1      -5.592  -0.138   2.367  0.00  0.00    -0.083 Cl
BRANCH  11  15
ATOM     15  N   UNL     1      -8.889  -4.040   1.510  0.00  0.00    +0.056 N 
ATOM     16  O   UNL     1      -9.157  -5.121   1.041  0.00  0.00    -0.126 OA
ATOM     17  O   UNL     1      -9.724  -3.427   2.133  0.00  0.00    -0.126 OA
ENDBRANCH  11  15
ENDBRANCH   6   8
BRANCH   4  18
ATOM     18  C   UNL     1      -3.321  -4.880   0.815  0.00  0.00    -0.017 A 
ATOM     19  C   UNL     1      -2.954  -4.618   2.122  0.00  0.00    +0.006 A 
ATOM     20  C   UNL     1      -3.315  -5.492   3.130  0.00  0.00    +0.000 A 
ATOM     21  C   UNL     1      -4.043  -6.628   2.832  0.00  0.00    +0.000 A 
ATOM     22  C   UNL     1      -4.411  -6.891   1.525  0.00  0.00    +0.000 A 
ATOM     23  C   UNL     1      -4.053  -6.014   0.517  0.00  0.00    +0.006 A 
ENDBRANCH   4  18
BRANCH   1  24
ATOM     24  C   UNL     1      -1.275  -0.610   0.110  0.00  0.00    +0.328 C 
ATOM     25  O   UNL     1      -2.179  -0.029  -0.441  0.00  0.00    -0.249 OA
BRANCH  24  27
ATOM     26  C   UNL     1      -0.308   1.506   0.522  0.00  0.00    +0.280 C 
ATOM     27  O   UNL     1      -0.257   0.083   0.643  0.00  0.00    -0.467 OA
ENDBRANCH  24  27
ENDBRANCH   1  24
TORSDOF 5
