REMARK  Name = ZINC01299135
REMARK  11 active torsions:
REMARK  status: ('A' for Active; 'I' for Inactive)
REMARK    1  A    between atoms: C_1  and  C_2
REMARK    2  A    between atoms: C_3  and  C_25
REMARK    3  A    between atoms: C_15  and  C_19
REMARK    4  A    between atoms: C_16  and  N_18
REMARK    5  A    between atoms: C_19  and  O_21
REMARK    6  A    between atoms: O_21  and  C_22
REMARK    7  A    between atoms: C_22  and  C_23
REMARK    8  A    between atoms: C_22  and  C_24
REMARK    9  A    between atoms: C_25  and  O_27
REMARK   10  A    between atoms: O_27  and  C_28
REMARK   11  A    between atoms: C_28  and  C_29
REMARK                            x       y       z     vdW  Elec       q    Type
REMARK                         _______ _______ _______ _____ _____    ______ ____
ROOT
ATOM      1  C   UNL     1      -0.027   1.502  -0.071  0.00  0.00    +0.087 C 
ATOM      2  C   UNL     1      -0.002  -0.005  -0.036  0.00  0.00    +0.116 C 
ATOM      3  C   UNL     1      -1.160  -0.672   0.074  0.00  0.00    +0.098 C 
ATOM      4  C   UNL     1      -1.185  -2.172   0.113  0.00  0.00    +0.145 C 
ATOM      5  C   UNL     1      -1.722  -2.726  -1.183  0.00  0.00    -0.001 A 
ATOM      6  C   UNL     1      -1.295  -2.645  -2.489  0.00  0.00    +0.022 A 
ATOM      7  C   UNL     1      -2.014  -3.274  -3.492  0.00  0.00    +0.018 A 
ATOM      8  C   UNL     1      -3.160  -3.983  -3.176  0.00  0.00    +0.017 A 
ATOM      9  C   UNL     1      -3.590  -4.066  -1.868  0.00  0.00    +0.025 A 
ATOM     10  C   UNL     1      -2.872  -3.435  -0.854  0.00  0.00    +0.038 A 
ATOM     11  N   UNL     1      -3.100  -3.372   0.522  0.00  0.00    -0.284 N 
ATOM     12  C   UNL     1      -2.161  -2.653   1.161  0.00  0.00    +0.237 C 
ATOM     13  O   UNL     1      -2.108  -2.432   2.353  0.00  0.00    -0.274 OA
ATOM     14 BR   UNL     1      -1.431  -3.165  -5.288  0.00  0.00    -0.050 Br
ATOM     15  C   UNL     1       0.186  -2.718   0.390  0.00  0.00    +0.117 C 
ATOM     16  C   UNL     1       1.283  -1.924   0.262  0.00  0.00    +0.195 C 
ATOM     17  O   UNL     1       1.177  -0.639  -0.122  0.00  0.00    -0.446 OA
ATOM     18  H   UNL     1      -3.850  -3.799   0.965  0.00  0.00    +0.155 HD
ENDROOT
BRANCH  16  19
ATOM     19  N   UNL     1       2.522  -2.446   0.525  0.00  0.00    -0.329 N 
ATOM     20  H   UNL     1       2.619  -3.393   0.712  0.00  0.00    +0.145 HD
ATOM     21  H   UNL     1       3.301  -1.869   0.523  0.00  0.00    +0.145 HD
ENDBRANCH  16  19
BRANCH  15  22
ATOM     22  C   UNL     1       0.337  -4.056   0.783  0.00  0.00    +0.342 C 
ATOM     23  O   UNL     1       0.287  -4.945  -0.048  0.00  0.00    -0.245 OA
BRANCH  22  24
ATOM     24  O   UNL     1       0.537  -4.359   2.084  0.00  0.00    -0.458 OA
BRANCH  24  25
ATOM     25  C   UNL     1       0.682  -5.742   2.413  0.00  0.00    +0.171 C 
ATOM     26  C   UNL     1       1.589  -5.883   3.637  0.00  0.00    +0.052 C 
ATOM     27  C   UNL     1      -0.692  -6.338   2.726  0.00  0.00    +0.052 C 
ENDBRANCH  24  25
ENDBRANCH  22  24
ENDBRANCH  15  22
BRANCH   3  28
ATOM     28  C   UNL     1      -2.377   0.050   0.154  0.00  0.00    +0.340 C 
ATOM     29  O   UNL     1      -2.366   1.266   0.123  0.00  0.00    -0.245 OA
BRANCH  28  30
ATOM     30  O   UNL     1      -3.547  -0.612   0.266  0.00  0.00    -0.457 OA
BRANCH  30  31
ATOM     31  C   UNL     1      -4.735   0.179   0.342  0.00  0.00    +0.268 C 
BRANCH  31  32
ATOM     32  C   UNL     1      -5.934  -0.726   0.462  0.00  0.00    -0.010 A 
ATOM     33  C   UNL     1      -6.577  -1.176  -0.676  0.00  0.00    +0.007 A 
ATOM     34  C   UNL     1      -7.677  -2.006  -0.566  0.00  0.00    +0.000 A 
ATOM     35  C   UNL     1      -8.134  -2.387   0.681  0.00  0.00    +0.000 A 
ATOM     36  C   UNL     1      -7.490  -1.938   1.820  0.00  0.00    +0.000 A 
ATOM     37  C   UNL     1      -6.387  -1.111   1.710  0.00  0.00    +0.007 A 
ENDBRANCH  31  32
ENDBRANCH  30  31
ENDBRANCH  28  30
ENDBRANCH   3  28
TORSDOF 8
