REMARK  Name = ZINC39357784
REMARK  13 active torsions:
REMARK  status: ('A' for Active; 'I' for Inactive)
REMARK    1  A    between atoms: C_1  and  C_2
REMARK    2  A    between atoms: C_7  and  C_8
REMARK    3  A    between atoms: N_10  and  C_11
REMARK    4  A    between atoms: C_16  and  C_26
REMARK    5  A    between atoms: C_20  and  C_22
REMARK    6  A    between atoms: C_22  and  O_24
REMARK    7  A    between atoms: O_24  and  C_25
REMARK    8  A    between atoms: C_26  and  N_27
REMARK    9  A    between atoms: N_27  and  C_28
REMARK   10  A    between atoms: N_27  and  C_29
REMARK   11  A    between atoms: C_29  and  C_30
REMARK   12  A    between atoms: C_31  and  C_37
REMARK   13  A    between atoms: C_34  and  C_36
REMARK                            x       y       z     vdW  Elec       q    Type
REMARK                         _______ _______ _______ _____ _____    ______ ____
ROOT
ATOM      1  C   UNL     1       0.578   0.067   4.894  0.00  0.00    +0.130 C 
ATOM      2  C   UNL     1      -0.803   0.297   5.453  0.00  0.00    +0.006 A 
ATOM      3  C   UNL     1      -1.954   0.629   4.734  0.00  0.00    +0.010 A 
ATOM      4  C   UNL     1      -3.146   0.822   5.409  0.00  0.00    +0.022 A 
ATOM      5  C   UNL     1      -3.188   0.687   6.783  0.00  0.00    +0.026 A 
ATOM      6  N   UNL     1      -2.094   0.366   7.448  0.00  0.00    -0.247 NA
ATOM      7  C   UNL     1      -0.944   0.166   6.835  0.00  0.00    +0.103 A 
ATOM      8  S   UNL     1       0.655  -0.308   7.458  0.00  0.00    -0.089 S 
ATOM      9  C   UNL     1       1.457  -0.754   5.865  0.00  0.00    +0.186 C 
ENDROOT
BRANCH   1  12
ATOM     10  C   UNL     1       0.242   0.021   2.481  0.00  0.00    +0.245 C 
ATOM     11  O   UNL     1       0.135   1.232   2.503  0.00  0.00    -0.270 OA
ATOM     12  N   UNL     1       0.465  -0.656   3.625  0.00  0.00    -0.303 N 
ATOM     13  H   UNL     1       0.551  -1.622   3.607  0.00  0.00    +0.150 HD
BRANCH  10  20
ATOM     14  C   UNL     1      -0.511   1.452   0.082  0.00  0.00    +0.044 C 
ATOM     15  C   UNL     1      -0.234  -0.028   0.036  0.00  0.00    -0.038 A 
ATOM     16  C   UNL     1      -0.334  -0.714  -1.157  0.00  0.00    +0.004 A 
ATOM     17  C   UNL     1      -0.080  -2.073  -1.200  0.00  0.00    +0.000 A 
ATOM     18  C   UNL     1       0.275  -2.754  -0.049  0.00  0.00    +0.001 A 
ATOM     19  C   UNL     1       0.378  -2.080   1.150  0.00  0.00    +0.013 A 
ATOM     20  C   UNL     1       0.128  -0.708   1.200  0.00  0.00    +0.040 A 
ENDBRANCH  10  20
ENDBRANCH   1  12
BRANCH   9  21
ATOM     21  C   UNL     1       2.892  -0.297   5.827  0.00  0.00    +0.322 C 
ATOM     22  O   UNL     1       3.150   0.872   5.663  0.00  0.00    -0.250 OA
BRANCH  21  23
ATOM     23  O   UNL     1       3.885  -1.188   5.976  0.00  0.00    -0.467 OA
ATOM     24  C   UNL     1       5.221  -0.685   5.930  0.00  0.00    +0.280 C 
ENDBRANCH  21  23
ENDBRANCH   9  21
BRANCH   5  25
ATOM     25  C   UNL     1      -4.483   0.906   7.522  0.00  0.00    -0.022 C 
BRANCH  25  26
ATOM     26  N   UNL     1      -5.155  -0.384   7.726  0.00  0.00    +0.384 N 
ATOM     27  C   UNL     1      -4.340  -1.226   8.611  0.00  0.00    -0.095 C 
ATOM     28  H   UNL     1      -5.273  -0.846   6.837  0.00  0.00    -0.081 HD
BRANCH  26  29
ATOM     29  C   UNL     1      -6.471  -0.159   8.339  0.00  0.00    -0.043 C 
BRANCH  29  30
ATOM     30  C   UNL     1      -7.210  -1.469   8.436  0.00  0.00    -0.038 C 
ATOM     31  C   UNL     1      -7.276  -2.301   9.477  0.00  0.00    +0.060 C 
ATOM     32  N   UNL     1      -8.038  -3.378   9.184  0.00  0.00    -0.159 NA
ATOM     33  N   UNL     1      -8.508  -3.377   8.043  0.00  0.00    -0.180 NA
ATOM     34  C   UNL     1      -8.059  -2.145   7.373  0.00  0.00    +0.151 C 
ATOM     35  C   UNL     1      -7.218  -2.478   6.140  0.00  0.00    +0.039 C 
ATOM     36  C   UNL     1      -6.593  -2.072  10.801  0.00  0.00    +0.067 C 
ENDBRANCH  29  30
ENDBRANCH  26  29
ENDBRANCH  25  26
ENDBRANCH   5  25
TORSDOF 8
