REMARK  Name = ZINC06807501
REMARK  9 active torsions:
REMARK  status: ('A' for Active; 'I' for Inactive)
REMARK    1  A    between atoms: C_1  and  C_2
REMARK    2  A    between atoms: C_2  and  C_3
REMARK    3  A    between atoms: C_3  and  C_5
REMARK    4  A    between atoms: C_3  and  N_17
REMARK    5  A    between atoms: N_7  and  C_8
REMARK    6  A    between atoms: C_8  and  C_9
REMARK    7  A    between atoms: C_9  and  N_58
REMARK    8  A    between atoms: C_14  and  C_16
REMARK    9  A    between atoms: C_25  and  C_27
REMARK                            x       y       z     vdW  Elec       q    Type
REMARK                         _______ _______ _______ _____ _____    ______ ____
ROOT
ATOM      1  C   UNL     1       4.118   2.218   5.034  0.00  0.00    +0.196 C 
ENDROOT
BRANCH   1   2
ATOM      2  N   UNL     1       5.302   3.080   5.064  0.00  0.00    -0.214 N 
ATOM      3  C   UNL     1       6.538   2.532   5.045  0.00  0.00    +0.292 A 
ATOM      4  O   UNL     1       6.687   1.324   5.002  0.00  0.00    -0.264 OA
ATOM      5  C   UNL     1       7.692   3.434   5.071  0.00  0.00    +0.118 A 
ATOM      6  C   UNL     1       9.050   3.218   5.060  0.00  0.00    +0.080 A 
ATOM      7  C   UNL     1       9.678   4.469   5.107  0.00  0.00    +0.154 A 
ATOM      8  C   UNL     1       8.678   5.437   5.147  0.00  0.00    +0.094 A 
ATOM      9  N   UNL     1       7.464   4.801   5.125  0.00  0.00    -0.288 N 
ATOM     10  C   UNL     1       6.164   5.269   5.146  0.00  0.00    +0.132 A 
ATOM     11  N   UNL     1       5.154   4.469   5.118  0.00  0.00    -0.154 NA
ATOM     12  C   UNL     1       5.921   6.755   5.205  0.00  0.00    +0.088 C 
ATOM     13  C   UNL     1       9.340   6.688   5.193  0.00  0.00    +0.068 A 
ATOM     14  C   UNL     1      10.660   6.440   5.180  0.00  0.00    +0.198 A 
ATOM     15  O   UNL     1      10.866   5.112   5.129  0.00  0.00    -0.461 OA
ENDBRANCH   1   2
BRANCH   1  16
ATOM     16  C   UNL     1       3.290   2.544   3.817  0.00  0.00    +0.238 C 
ATOM     17  O   UNL     1       3.654   3.411   3.051  0.00  0.00    -0.273 OA
ATOM     18  N   UNL     1       2.146   1.872   3.581  0.00  0.00    -0.315 N 
ATOM     19  H   UNL     1       1.855   1.179   4.194  0.00  0.00    +0.149 HD
BRANCH  18  20
ATOM     20  C   UNL     1       1.341   2.189   2.398  0.00  0.00    +0.086 C 
BRANCH  20  21
ATOM     21  C   UNL     1       0.105   1.288   2.367  0.00  0.00    -0.059 C 
BRANCH  21  28
ATOM     22  C   UNL     1      -0.034   1.155  -0.046  0.00  0.00    -0.078 C 
ATOM     23  C   UNL     1      -0.829   1.630  -1.265  0.00  0.00    -0.019 C 
ATOM     24  C   UNL     1      -2.248   1.060  -1.196  0.00  0.00    -0.003 C 
ATOM     25  C   UNL     1      -2.905   1.504   0.115  0.00  0.00    -0.016 C 
ATOM     26  C   UNL     1      -2.050   1.033   1.293  0.00  0.00    -0.072 C 
ATOM     27  C   UNL     1      -2.691   1.492   2.604  0.00  0.00    -0.013 C 
ATOM     28  N   UNL     1      -0.705   1.636   1.181  0.00  0.00    +0.382 N 
ATOM     29  H   UNL     1      -0.800   2.657   1.130  0.00  0.00    -0.081 HD
ENDBRANCH  21  28
ENDBRANCH  20  21
ENDBRANCH  18  20
ENDBRANCH   1  16
BRANCH   1  31
ATOM     30  C   UNL     1       4.080   2.004   7.523  0.00  0.00    +0.006 C 
ATOM     31  C   UNL     1       3.284   2.452   6.295  0.00  0.00    +0.033 C 
ENDBRANCH   1  31
TORSDOF 6
