REMARK  Name = ZINC05605661
REMARK  8 active torsions:
REMARK  status: ('A' for Active; 'I' for Inactive)
REMARK    1  A    between atoms: C_1  and  C_2
REMARK    2  A    between atoms: C_2  and  C_3
REMARK    3  A    between atoms: C_2  and  C_4
REMARK    4  A    between atoms: C_7  and  S_10
REMARK    5  A    between atoms: N_8  and  N_9
REMARK    6  A    between atoms: S_10  and  C_11
REMARK    7  A    between atoms: C_11  and  C_12
REMARK    8  A    between atoms: N_14  and  C_15
REMARK                            x       y       z     vdW  Elec       q    Type
REMARK                         _______ _______ _______ _____ _____    ______ ____
ROOT
ATOM      1  C   UNL     1      -4.729   2.149  -0.501  0.00  0.00    +0.173 C 
ENDROOT
BRANCH   1   2
ATOM      2  C   UNL     1      -5.868   2.052   0.481  0.00  0.00    +0.228 C 
ATOM      3  O   UNL     1      -5.667   1.644   1.605  0.00  0.00    -0.275 OA
ATOM      4  N   UNL     1      -7.111   2.418   0.110  0.00  0.00    -0.284 N 
ATOM      5  H   UNL     1      -7.261   2.805  -0.766  0.00  0.00    +0.155 HD
BRANCH   4   6
ATOM      6  C   UNL     1      -8.186   2.240   0.990  0.00  0.00    +0.053 A 
ATOM      7  C   UNL     1      -7.997   2.394   2.357  0.00  0.00    +0.046 A 
ATOM      8  C   UNL     1      -9.060   2.222   3.224  0.00  0.00    +0.061 A 
ATOM      9  C   UNL     1     -10.311   1.887   2.730  0.00  0.00    +0.061 A 
ATOM     10  C   UNL     1     -10.499   1.729   1.369  0.00  0.00    +0.043 A 
ATOM     11  C   UNL     1      -9.441   1.904   0.498  0.00  0.00    +0.064 A 
ATOM     12 CL   UNL     1      -9.678   1.706  -1.210  0.00  0.00    -0.082 Cl
ATOM     13 CL   UNL     1     -11.643   1.666   3.821  0.00  0.00    -0.082 Cl
ATOM     14 CL   UNL     1      -8.828   2.420   4.933  0.00  0.00    -0.082 Cl
ENDBRANCH   4   6
ENDBRANCH   1   2
BRANCH   1  15
ATOM     15  S   UNL     1      -3.201   1.589   0.290  0.00  0.00    -0.075 S 
BRANCH  15  19
ATOM     16  C   UNL     1      -0.271   1.855  -2.271  0.00  0.00    +0.154 A 
ATOM     17  N   UNL     1      -1.290   2.277  -2.964  0.00  0.00    -0.132 NA
ATOM     18  N   UNL     1      -2.354   2.251  -2.244  0.00  0.00    -0.121 NA
ATOM     19  C   UNL     1      -2.070   1.803  -1.043  0.00  0.00    +0.209 A 
ATOM     20  N   UNL     1      -0.732   1.533  -1.024  0.00  0.00    -0.228 N 
BRANCH  16  22
ATOM     21  C   UNL     1       1.210   0.786  -3.948  0.00  0.00    +0.015 C 
ATOM     22  C   UNL     1       1.152   1.741  -2.754  0.00  0.00    +0.052 C 
ATOM     23  C   UNL     1       1.659   3.121  -3.179  0.00  0.00    +0.015 C 
ENDBRANCH  16  22
BRANCH  20  24
ATOM     24  N   UNL     1      -0.003   1.048   0.025  0.00  0.00    -0.295 N 
ATOM     25  H   UNL     1       0.017   0.039   0.015  0.00  0.00    +0.163 HD
ATOM     26  H   UNL     1       0.932   1.428   0.022  0.00  0.00    +0.163 HD
ENDBRANCH  20  24
ENDBRANCH  15  19
ENDBRANCH   1  15
TORSDOF 6
