REMARK  Name = ZINC22240215
REMARK  6 active torsions:
REMARK  status: ('A' for Active; 'I' for Inactive)
REMARK    1  A    between atoms: C_1  and  C_2
REMARK    2  A    between atoms: C_2  and  C_3
REMARK    3  A    between atoms: C_3  and  C_24
REMARK    4  A    between atoms: N_6  and  C_10
REMARK    5  A    between atoms: C_10  and  C_11
REMARK    6  A    between atoms: C_16  and  C_18
REMARK                            x       y       z     vdW  Elec       q    Type
REMARK                         _______ _______ _______ _____ _____    ______ ____
ROOT
ATOM      1  C   UNL     1       5.074  -6.256   0.559  0.00  0.00    +0.138 C 
ATOM      2  C   UNL     1       4.400  -4.992   1.052  0.00  0.00    +0.251 C 
ATOM      3  O   UNL     1       4.228  -4.655   2.204  0.00  0.00    -0.272 OA
ATOM      4  N   UNL     1       4.031  -4.319  -0.057  0.00  0.00    -0.215 N 
ATOM      5  C   UNL     1       4.372  -4.979  -1.170  0.00  0.00    +0.310 C 
ATOM      6  O   UNL     1       4.141  -4.574  -2.292  0.00  0.00    -0.252 OA
ATOM      7  N   UNL     1       5.001  -6.139  -0.908  0.00  0.00    -0.281 N 
ATOM      8  H   UNL     1       5.425  -6.929  -1.545  0.00  0.00    +0.152 HD
ENDROOT
BRANCH   1   9
ATOM      9  C   UNL     1       4.327  -7.476   1.034  0.00  0.00    -0.015 A 
ATOM     10  C   UNL     1       4.671  -8.074   2.232  0.00  0.00    +0.007 A 
ATOM     11  C   UNL     1       3.983  -9.189   2.671  0.00  0.00    +0.020 A 
ATOM     12  C   UNL     1       2.956  -9.713   1.906  0.00  0.00    +0.041 A 
ATOM     13  C   UNL     1       2.616  -9.118   0.704  0.00  0.00    +0.020 A 
ATOM     14  C   UNL     1       3.302  -8.000   0.269  0.00  0.00    +0.007 A 
ATOM     15 CL   UNL     1       2.096 -11.118   2.453  0.00  0.00    -0.084 Cl
ENDBRANCH   1   9
BRANCH   1  17
ATOM     16  C   UNL     1       7.280  -5.085   0.483  0.00  0.00    +0.007 C 
ATOM     17  C   UNL     1       6.532  -6.305   1.023  0.00  0.00    +0.037 C 
ENDBRANCH   1  17
BRANCH   4  18
ATOM     18  C   UNL     1       3.338  -3.029  -0.044  0.00  0.00    +0.215 C 
BRANCH  18  19
ATOM     19  C   UNL     1       4.353  -1.914  -0.048  0.00  0.00    +0.253 C 
ATOM     20  O   UNL     1       5.538  -2.172  -0.060  0.00  0.00    -0.272 OA
ATOM     21  N   UNL     1       3.943  -0.630  -0.038  0.00  0.00    -0.191 N 
ATOM     22  C   UNL     1       4.823   0.549  -0.040  0.00  0.00    +0.141 C 
ATOM     23  C   UNL     1       3.838   1.735  -0.025  0.00  0.00    +0.078 C 
ATOM     24  C   UNL     1       2.477   1.078  -0.015  0.00  0.00    +0.068 C 
ATOM     25  N   UNL     1       2.617  -0.203  -0.018  0.00  0.00    -0.181 NA
BRANCH  24  26
ATOM     26  C   UNL     1       1.187   1.792   0.000  0.00  0.00    -0.002 A 
ATOM     27  C   UNL     1      -0.013   1.076   0.008  0.00  0.00    +0.010 A 
ATOM     28  C   UNL     1      -1.215   1.751   0.017  0.00  0.00    +0.001 A 
ATOM     29  C   UNL     1      -1.236   3.134   0.030  0.00  0.00    +0.000 A 
ATOM     30  C   UNL     1      -0.052   3.851   0.023  0.00  0.00    +0.001 A 
ATOM     31  C   UNL     1       1.158   3.189   0.008  0.00  0.00    +0.010 A 
ENDBRANCH  24  26
ENDBRANCH  18  19
ENDBRANCH   4  18
TORSDOF 5
