REMARK  Name = ZINC12462419
REMARK  9 active torsions:
REMARK  status: ('A' for Active; 'I' for Inactive)
REMARK    1  A    between atoms: C_1  and  C_2
REMARK    2  A    between atoms: C_5  and  N_32
REMARK    3  A    between atoms: C_7  and  S_8
REMARK    4  A    between atoms: S_8  and  N_11
REMARK    5  A    between atoms: N_11  and  C_12
REMARK    6  A    between atoms: C_15  and  C_18
REMARK    7  A    between atoms: C_18  and  O_20
REMARK    8  A    between atoms: O_20  and  C_21
REMARK    9  A    between atoms: C_21  and  C_22
REMARK                            x       y       z     vdW  Elec       q    Type
REMARK                         _______ _______ _______ _____ _____    ______ ____
ROOT
ATOM      1  C   UNL     1       1.323  -0.588  -0.031  0.00  0.00    +0.048 A 
ATOM      2  C   UNL     1       0.151   0.160   0.047  0.00  0.00    +0.025 A 
ATOM      3  C   UNL     1       0.208   1.530   0.038  0.00  0.00    +0.017 A 
ATOM      4  C   UNL     1       1.446   2.176  -0.049  0.00  0.00    +0.059 A 
ATOM      5  C   UNL     1       2.621   1.421  -0.127  0.00  0.00    +0.017 A 
ATOM      6  C   UNL     1       2.556   0.052  -0.117  0.00  0.00    +0.025 A 
ENDROOT
BRANCH   1   7
ATOM      7  N   UNL     1       1.261  -1.977  -0.021  0.00  0.00    -0.216 N 
ATOM      8  H   UNL     1       0.702  -2.433   0.627  0.00  0.00    +0.174 HD
BRANCH   7   9
ATOM      9  S   UNL     1       2.141  -2.852  -1.117  0.00  0.00    +0.073 S 
ATOM     10  O   UNL     1       3.483  -2.394  -1.019  0.00  0.00    -0.150 OA
ATOM     11  O   UNL     1       1.786  -4.215  -0.928  0.00  0.00    -0.150 OA
BRANCH   9  18
ATOM     12  C   UNL     1      -0.672  -3.330  -2.115  0.00  0.00    +0.046 C 
ATOM     13  C   UNL     1       0.264  -2.662  -3.089  0.00  0.00    -0.024 A 
ATOM     14  C   UNL     1      -0.188  -2.309  -4.348  0.00  0.00    +0.007 A 
ATOM     15  C   UNL     1       0.667  -1.696  -5.243  0.00  0.00    +0.028 A 
ATOM     16  C   UNL     1       1.981  -1.434  -4.878  0.00  0.00    +0.071 A 
ATOM     17  C   UNL     1       2.429  -1.784  -3.611  0.00  0.00    +0.057 A 
ATOM     18  C   UNL     1       1.571  -2.402  -2.722  0.00  0.00    +0.113 A 
BRANCH  16  19
ATOM     19  N   UNL     1       2.852  -0.812  -5.784  0.00  0.00    -0.200 N 
ATOM     20  C   UNL     1       2.550  -0.323  -7.007  0.00  0.00    +0.250 A 
ATOM     21  N   UNL     1       3.651   0.170  -7.510  0.00  0.00    -0.116 NA
ATOM     22  N   UNL     1       4.629   0.025  -6.689  0.00  0.00    -0.023 NA
ATOM     23  N   UNL     1       4.224  -0.558  -5.613  0.00  0.00    -0.039 NA
ENDBRANCH  16  19
ENDBRANCH   9  18
ENDBRANCH   7   9
ENDBRANCH   1   7
BRANCH   4  24
ATOM     24  C   UNL     1       1.511   3.648  -0.059  0.00  0.00    +0.339 C 
ATOM     25  O   UNL     1       0.489   4.302   0.009  0.00  0.00    -0.245 OA
BRANCH  24  26
ATOM     26  O   UNL     1       2.704   4.269  -0.143  0.00  0.00    -0.461 OA
BRANCH  26  27
ATOM     27  C   UNL     1       2.693   5.721  -0.148  0.00  0.00    +0.239 C 
BRANCH  27  28
ATOM     28  C   UNL     1       4.128   6.242  -0.248  0.00  0.00    +0.006 C 
ATOM     29  C   UNL     1       4.937   5.742   0.950  0.00  0.00    +0.013 C 
ATOM     30  C   UNL     1       6.372   6.263   0.850  0.00  0.00    -0.010 C 
ATOM     31  C   UNL     1       6.360   7.793   0.845  0.00  0.00    +0.007 C 
ATOM     32  C   UNL     1       5.551   8.293  -0.354  0.00  0.00    -0.010 C 
ATOM     33  C   UNL     1       4.116   7.772  -0.253  0.00  0.00    +0.013 C 
ATOM     34  C   UNL     1       6.189   7.784  -1.648  0.00  0.00    +0.007 C 
ATOM     35  C   UNL     1       6.201   6.254  -1.643  0.00  0.00    -0.010 C 
ATOM     36  C   UNL     1       7.010   5.754  -0.445  0.00  0.00    +0.007 C 
ATOM     37  C   UNL     1       4.766   5.733  -1.542  0.00  0.00    +0.013 C 
ENDBRANCH  27  28
ENDBRANCH  26  27
ENDBRANCH  24  26
ENDBRANCH   4  24
TORSDOF 8
