REMARK  Name = ZINC39953394
REMARK  4 active torsions:
REMARK  status: ('A' for Active; 'I' for Inactive)
REMARK    1  A    between atoms: C_2  and  C_3
REMARK    2  A    between atoms: C_3  and  N_4
REMARK    3  A    between atoms: C_8  and  C_9
REMARK    4  A    between atoms: N_20  and  C_21
REMARK                            x       y       z     vdW  Elec       q    Type
REMARK                         _______ _______ _______ _____ _____    ______ ____
ROOT
ATOM      1  N   UNL     1       1.384  -1.691   1.105  0.00  0.00    -0.242 N 
ATOM      2  C   UNL     1       1.824  -1.273   2.280  0.00  0.00    +0.259 C 
ATOM      3  O   UNL     1       2.151  -0.116   2.464  0.00  0.00    -0.269 OA
ATOM      4  C   UNL     1       1.899  -2.284   3.363  0.00  0.00    +0.078 C 
ATOM      5  C   UNL     1       2.314  -2.137   4.674  0.00  0.00    +0.026 C 
ATOM      6  S   UNL     1       1.308  -3.743   2.516  0.00  0.00    -0.049 S 
ATOM      7  C   UNL     1       1.013  -3.003   0.919  0.00  0.00    +0.171 C 
ATOM      8  N   UNL     1       0.554  -3.575  -0.174  0.00  0.00    -0.199 NA
ENDROOT
BRANCH   5   9
ATOM      9  C   UNL     1       2.926  -0.954   5.083  0.00  0.00    -0.018 C 
ATOM     10  C   UNL     1       3.512  -0.690   6.324  0.00  0.00    +0.003 A 
ATOM     11  C   UNL     1       3.668  -1.469   7.489  0.00  0.00    +0.010 A 
ATOM     12  C   UNL     1       4.293  -0.942   8.573  0.00  0.00    +0.001 A 
ATOM     13  C   UNL     1       4.791   0.364   8.568  0.00  0.00    +0.002 A 
ATOM     14  C   UNL     1       4.676   1.169   7.484  0.00  0.00    +0.026 A 
ATOM     15  C   UNL     1       4.035   0.687   6.312  0.00  0.00    +0.043 A 
ATOM     16  N   UNL     1       3.800   1.259   5.150  0.00  0.00    -0.380 N 
ATOM     17  C   UNL     1       3.103   0.312   4.274  0.00  0.00    +0.149 C 
ATOM     18  H   UNL     1       4.052   2.164   4.909  0.00  0.00    +0.160 HD
ENDBRANCH   5   9
BRANCH   8  19
ATOM     19  C   UNL     1       0.239  -4.889  -0.168  0.00  0.00    +0.195 A 
ATOM     20  N   UNL     1       0.313  -5.770   0.826  0.00  0.00    -0.230 NA
ATOM     21  C   UNL     1      -0.040  -7.023   0.649  0.00  0.00    +0.121 A 
ATOM     22  C   UNL     1      -0.488  -7.437  -0.565  0.00  0.00    +0.068 A 
ATOM     23  S   UNL     1      -0.395  -5.910  -1.492  0.00  0.00    -0.056 S 
ENDBRANCH   8  19
BRANCH   1  24
ATOM     24  C   UNL     1       1.285  -0.745  -0.009  0.00  0.00    +0.142 C 
BRANCH  24  26
ATOM     25  C   UNL     1      -0.185   1.205   0.023  0.00  0.00    +0.005 C 
ATOM     26  C   UNL     1      -0.078  -0.101  -0.001  0.00  0.00    -0.015 C 
ENDBRANCH  24  26
ENDBRANCH   1  24
TORSDOF 4
