REMARK  Name = ZINC55334387
REMARK  4 active torsions:
REMARK  status: ('A' for Active; 'I' for Inactive)
REMARK    1  A    between atoms: C_1  and  C_2
REMARK    2  A    between atoms: C_5  and  C_7
REMARK    3  A    between atoms: C_8  and  C_13
REMARK    4  A    between atoms: C_9  and  N_12
REMARK                            x       y       z     vdW  Elec       q    Type
REMARK                         _______ _______ _______ _____ _____    ______ ____
ROOT
ATOM      1  C   UNL     1       1.665  -3.224  -0.025  0.00  0.00    +0.158 A 
ATOM      2  C   UNL     1       2.963  -3.297  -0.703  0.00  0.00    +0.075 A 
ATOM      3  C   UNL     1       3.474  -4.553  -0.447  0.00  0.00    +0.224 A 
ATOM      4  O   UNL     1       2.590  -5.212   0.318  0.00  0.00    -0.339 OA
ATOM      5  N   UNL     1       1.479  -4.378   0.577  0.00  0.00    -0.072 NA
ENDROOT
BRANCH   2   6
ATOM      6  C   UNL     1       3.601  -2.230  -1.508  0.00  0.00    +0.003 A 
ATOM      7  C   UNL     1       4.449  -1.305  -0.899  0.00  0.00    +0.010 A 
ATOM      8  C   UNL     1       5.040  -0.313  -1.655  0.00  0.00    +0.001 A 
ATOM      9  C   UNL     1       4.794  -0.234  -3.014  0.00  0.00    +0.001 A 
ATOM     10  C   UNL     1       3.954  -1.148  -3.624  0.00  0.00    +0.016 A 
ATOM     11  C   UNL     1       3.361  -2.149  -2.881  0.00  0.00    +0.026 A 
ATOM     12 BR   UNL     1       2.219  -3.403  -3.718  0.00  0.00    -0.050 Br
ENDBRANCH   2   6
BRANCH   1  17
ATOM     13  C   UNL     1      -0.018   1.503   0.010  0.00  0.00    +0.086 C 
ATOM     14  C   UNL     1       0.002  -0.004   0.002  0.00  0.00    +0.103 A 
ATOM     15  C   UNL     1      -1.083  -0.805   0.003  0.00  0.00    +0.045 A 
ATOM     16  C   UNL     1      -0.615  -2.133  -0.008  0.00  0.00    +0.052 A 
ATOM     17  C   UNL     1       0.744  -2.070  -0.014  0.00  0.00    +0.157 A 
ATOM     18  O   UNL     1       1.103  -0.772  -0.013  0.00  0.00    -0.458 OA
ENDBRANCH   1  17
BRANCH   3  19
ATOM     19  N   UNL     1       4.682  -5.044  -0.897  0.00  0.00    -0.327 N 
ATOM     20  H   UNL     1       5.256  -4.490  -1.448  0.00  0.00    +0.145 HD
ATOM     21  H   UNL     1       4.956  -5.945  -0.663  0.00  0.00    +0.145 HD
ENDBRANCH   3  19
TORSDOF 3
