REMARK  Name = ZINC21326064
REMARK  10 active torsions:
REMARK  status: ('A' for Active; 'I' for Inactive)
REMARK    1  A    between atoms: C_1  and  C_2
REMARK    2  A    between atoms: C_2  and  C_25
REMARK    3  A    between atoms: N_3  and  N_4
REMARK    4  A    between atoms: C_8  and  S_11
REMARK    5  A    between atoms: N_9  and  N_10
REMARK    6  A    between atoms: S_11  and  C_12
REMARK    7  A    between atoms: C_12  and  C_13
REMARK    8  A    between atoms: C_13  and  C_15
REMARK    9  A    between atoms: C_29  and  O_31
REMARK   10  A    between atoms: O_31  and  C_32
REMARK                            x       y       z     vdW  Elec       q    Type
REMARK                         _______ _______ _______ _____ _____    ______ ____
ROOT
ATOM      1  N   UNL     1       0.043   5.663   0.804  0.00  0.00    -0.204 N 
ATOM      2  C   UNL     1      -1.165   6.340   0.713  0.00  0.00    +0.254 A 
ATOM      3  N   UNL     1      -2.358   5.804   0.807  0.00  0.00    -0.109 NA
ATOM      4  N   UNL     1      -3.305   6.827   0.659  0.00  0.00    -0.119 NA
ATOM      5  C   UNL     1      -2.659   7.954   0.479  0.00  0.00    +0.210 A 
ATOM      6  N   UNL     1      -1.320   7.684   0.513  0.00  0.00    -0.211 N 
ATOM      7  H   UNL     1       0.990   6.214   0.710  0.00  0.00    +0.178 HD
ENDROOT
BRANCH   1  10
ATOM      8  C   UNL     1       2.484   4.400   0.974  0.00  0.00    +0.068 C 
ATOM      9  C   UNL     1       1.186   3.646   1.103  0.00  0.00    +0.063 C 
ATOM     10  N   UNL     1       0.055   4.279   1.017  0.00  0.00    -0.184 NA
BRANCH   9  11
ATOM     11  C   UNL     1       1.199   2.188   1.327  0.00  0.00    +0.001 A 
ATOM     12  C   UNL     1       2.414   1.504   1.421  0.00  0.00    +0.010 A 
ATOM     13  C   UNL     1       2.422   0.141   1.631  0.00  0.00    +0.004 A 
ATOM     14  C   UNL     1       1.231  -0.552   1.750  0.00  0.00    +0.045 A 
ATOM     15  C   UNL     1       0.019   0.118   1.658  0.00  0.00    +0.121 A 
ATOM     16  C   UNL     1      -0.002   1.487   1.448  0.00  0.00    +0.055 A 
BRANCH  15  17
ATOM     17  O   UNL     1      -1.148  -0.569   1.775  0.00  0.00    -0.495 OA
ATOM     18  C   UNL     1      -1.052  -1.978   1.992  0.00  0.00    +0.277 C 
ENDBRANCH  15  17
ENDBRANCH   9  11
ENDBRANCH   1  10
BRANCH   6  19
ATOM     19  N   UNL     1      -0.313   8.596   0.369  0.00  0.00    -0.294 N 
ATOM     20  H   UNL     1      -0.552   9.658   0.212  0.00  0.00    +0.163 HD
ATOM     21  H   UNL     1       0.736   8.268   0.410  0.00  0.00    +0.163 HD
ENDBRANCH   6  19
BRANCH   5  22
ATOM     22  S   UNL     1      -3.390   9.540   0.241  0.00  0.00    -0.077 S 
BRANCH  22  23
ATOM     23  C   UNL     1      -5.173   9.215   0.310  0.00  0.00    +0.152 C 
BRANCH  23  24
ATOM     24  C   UNL     1      -5.926  10.507   0.118  0.00  0.00    +0.147 C 
ATOM     25  O   UNL     1      -5.322  11.539  -0.048  0.00  0.00    -0.296 OA
BRANCH  24  26
ATOM     26  C   UNL     1      -7.433  10.509   0.133  0.00  0.00    +0.062 C 
ATOM     27  C   UNL     1      -7.957   9.907  -1.172  0.00  0.00    +0.000 C 
ATOM     28  C   UNL     1      -9.487   9.910  -1.157  0.00  0.00    +0.007 C 
ATOM     29  C   UNL     1      -9.993  11.347  -1.019  0.00  0.00    -0.010 C 
ATOM     30  C   UNL     1      -9.493  12.180  -2.202  0.00  0.00    +0.007 C 
ATOM     31  C   UNL     1      -7.964  12.177  -2.217  0.00  0.00    -0.010 C 
ATOM     32  C   UNL     1      -7.458  10.739  -2.355  0.00  0.00    +0.007 C 
ATOM     33  C   UNL     1      -7.439  12.779  -0.912  0.00  0.00    +0.007 C 
ATOM     34  C   UNL     1      -7.939  11.947   0.271  0.00  0.00    +0.000 C 
ATOM     35  C   UNL     1      -9.469  11.950   0.286  0.00  0.00    +0.007 C 
ENDBRANCH  24  26
ENDBRANCH  23  24
ENDBRANCH  22  23
ENDBRANCH   5  22
TORSDOF 8
