REMARK  Name = ZINC09620588
REMARK  7 active torsions:
REMARK  status: ('A' for Active; 'I' for Inactive)
REMARK    1  A    between atoms: C_4  and  C_7
REMARK    2  A    between atoms: C_7  and  C_9
REMARK    3  A    between atoms: C_7  and  N_14
REMARK    4  A    between atoms: C_15  and  C_17
REMARK    5  A    between atoms: C_17  and  N_53
REMARK    6  A    between atoms: N_20  and  S_23
REMARK    7  A    between atoms: S_23  and  C_26
REMARK                            x       y       z     vdW  Elec       q    Type
REMARK                         _______ _______ _______ _____ _____    ______ ____
ROOT
ATOM      1  N   UNL     1      -0.704   1.975   1.216  0.00  0.00    -0.306 N 
ATOM      2  C   UNL     1      -1.289   3.189   1.226  0.00  0.00    +0.197 C 
ATOM      3  O   UNL     1      -1.248   3.891   0.237  0.00  0.00    -0.278 OA
ATOM      4  H   UNL     1      -0.737   1.414   2.006  0.00  0.00    +0.150 HD
ENDROOT
BRANCH   1   5
ATOM      5  C   UNL     1      -0.018   1.503   0.010  0.00  0.00    +0.140 C 
BRANCH   5   9
ATOM      6  C   UNL     1       0.040  -2.768  -0.013  0.00  0.00    +0.000 A 
ATOM      7  C   UNL     1      -0.189  -2.074  -1.186  0.00  0.00    +0.000 A 
ATOM      8  C   UNL     1      -0.208  -0.692  -1.179  0.00  0.00    +0.006 A 
ATOM      9  C   UNL     1       0.002  -0.004   0.002  0.00  0.00    -0.022 A 
ATOM     10  C   UNL     1       0.236  -0.699   1.174  0.00  0.00    +0.006 A 
ATOM     11  C   UNL     1       0.251  -2.081   1.167  0.00  0.00    +0.000 A 
ENDBRANCH   5   9
BRANCH   5  12
ATOM     12  C   UNL     1       1.395   2.024  -0.000  0.00  0.00    +0.014 A 
ATOM     13  C   UNL     1       2.125   2.492  -1.043  0.00  0.00    +0.013 A 
ATOM     14  C   UNL     1       3.417   2.927  -0.815  0.00  0.00    +0.008 A 
ATOM     15  C   UNL     1       3.920   2.864   0.442  0.00  0.00    +0.045 A 
ATOM     16  S   UNL     1       2.547   2.180   1.355  0.00  0.00    -0.099 S 
ENDBRANCH   5  12
ENDBRANCH   1   5
BRANCH   2  17
ATOM     17  C   UNL     1      -1.994   3.675   2.466  0.00  0.00    +0.019 C 
BRANCH  17  23
ATOM     18  C   UNL     1      -1.469   5.996   2.017  0.00  0.00    -0.061 C 
ATOM     19  C   UNL     1      -2.078   7.335   1.590  0.00  0.00    +0.091 C 
ATOM     20  N   UNL     1      -3.093   7.724   2.581  0.00  0.00    -0.180 NA
ATOM     21  C   UNL     1      -4.126   6.742   2.942  0.00  0.00    +0.091 C 
ATOM     22  C   UNL     1      -3.436   5.425   3.316  0.00  0.00    -0.061 C 
ATOM     23  N   UNL     1      -2.560   5.014   2.197  0.00  0.00    +0.387 N 
ATOM     24  H   UNL     1      -3.117   4.974   1.336  0.00  0.00    -0.081 HD
BRANCH  20  25
ATOM     25  S   UNL     1      -3.072   9.229   3.273  0.00  0.00    +0.067 S 
ATOM     26  O   UNL     1      -2.380  10.081   2.371  0.00  0.00    -0.152 OA
ATOM     27  O   UNL     1      -4.399   9.495   3.705  0.00  0.00    -0.152 OA
BRANCH  25  28
ATOM     28  C   UNL     1      -2.081   9.121   4.725  0.00  0.00    +0.143 A 
ATOM     29  C   UNL     1      -0.746   9.311   4.864  0.00  0.00    +0.036 A 
ATOM     30  C   UNL     1      -0.176   9.176   6.116  0.00  0.00    +0.010 A 
ATOM     31  C   UNL     1      -0.968   8.848   7.166  0.00  0.00    +0.047 A 
ATOM     32  S   UNL     1      -2.573   8.726   6.395  0.00  0.00    -0.077 S 
ENDBRANCH  25  28
ENDBRANCH  20  25
ENDBRANCH  17  23
ENDBRANCH   2  17
TORSDOF 7
