REMARK  Name = ZINC67129335
REMARK  5 active torsions:
REMARK  status: ('A' for Active; 'I' for Inactive)
REMARK    1  A    between atoms: C_1  and  C_2
REMARK    2  A    between atoms: C_14  and  C_16
REMARK    3  A    between atoms: C_16  and  N_17
REMARK    4  A    between atoms: C_19  and  O_27
REMARK    5  A    between atoms: C_22  and  C_24
REMARK                            x       y       z     vdW  Elec       q    Type
REMARK                         _______ _______ _______ _____ _____    ______ ____
ROOT
ATOM      1  C   UNL     1      -0.019   1.526   0.010  0.00  0.00    +0.019 C 
ATOM      2  C   UNL     1       0.002  -0.004   0.002  0.00  0.00    +0.050 C 
ATOM      3  C   UNL     1       0.709  -0.492  -1.253  0.00  0.00    +0.033 C 
ATOM      4  C   UNL     1       0.596  -1.969  -1.525  0.00  0.00    +0.115 C 
ATOM      5  N   UNL     1       1.327  -2.758  -0.522  0.00  0.00    -0.272 N 
ATOM      6  C   UNL     1       0.641  -3.176   0.626  0.00  0.00    +0.050 A 
ATOM      7  C   UNL     1       0.290  -4.514   0.771  0.00  0.00    +0.024 A 
ATOM      8  C   UNL     1      -0.428  -4.918   1.881  0.00  0.00    +0.002 A 
ATOM      9  C   UNL     1      -0.805  -4.005   2.849  0.00  0.00    +0.001 A 
ATOM     10  C   UNL     1      -0.445  -2.673   2.722  0.00  0.00    +0.016 A 
ATOM     11  C   UNL     1       0.292  -2.277   1.624  0.00  0.00    +0.030 A 
ATOM     12  S   UNL     1       0.875  -0.603   1.479  0.00  0.00    -0.120 S 
ATOM     13  C   UNL     1       2.625  -3.072  -0.704  0.00  0.00    +0.203 C 
ATOM     14  O   UNL     1       3.205  -2.703  -1.703  0.00  0.00    -0.277 OA
ENDROOT
BRANCH  13  15
ATOM     15  C   UNL     1       3.356  -3.882   0.336  0.00  0.00    +0.020 C 
BRANCH  15  16
ATOM     16  N   UNL     1       4.746  -4.088  -0.093  0.00  0.00    +0.395 N 
ATOM     17  C   UNL     1       5.485  -2.808  -0.061  0.00  0.00    -0.045 C 
ATOM     18  C   UNL     1       6.926  -3.128   0.379  0.00  0.00    +0.097 C 
ATOM     19  C   UNL     1       6.943  -4.655   0.622  0.00  0.00    +0.023 C 
ATOM     20  C   UNL     1       5.449  -4.985   0.860  0.00  0.00    +0.022 C 
ATOM     21  H   UNL     1       4.770  -4.481  -1.022  0.00  0.00    -0.080 HD
BRANCH  20  22
ATOM     22  C   UNL     1       5.165  -6.430   0.538  0.00  0.00    +0.197 C 
ATOM     23  O   UNL     1       4.446  -6.713  -0.396  0.00  0.00    -0.278 OA
ATOM     24  N   UNL     1       5.711  -7.407   1.289  0.00  0.00    -0.331 N 
ATOM     25  H   UNL     1       6.286  -7.181   2.037  0.00  0.00    +0.145 HD
ATOM     26  H   UNL     1       5.529  -8.337   1.082  0.00  0.00    +0.145 HD
ENDBRANCH  20  22
BRANCH  18  27
ATOM     27  O   UNL     1       7.849  -2.777  -0.653  0.00  0.00    -0.394 OA
ATOM     28  H   UNL     1       8.774  -2.957  -0.432  0.00  0.00    +0.210 HD
ENDBRANCH  18  27
ENDBRANCH  15  16
ENDBRANCH  13  15
TORSDOF 4
