REMARK  Name = ZINC64055306
REMARK  8 active torsions:
REMARK  status: ('A' for Active; 'I' for Inactive)
REMARK    1  A    between atoms: C_1  and  C_2
REMARK    2  A    between atoms: C_5  and  C_9
REMARK    3  A    between atoms: C_6  and  C_8
REMARK    4  A    between atoms: C_9  and  O_11
REMARK    5  A    between atoms: O_11  and  C_12
REMARK    6  A    between atoms: C_12  and  C_13
REMARK    7  A    between atoms: C_13  and  C_15
REMARK    8  A    between atoms: C_23  and  C_25
REMARK                            x       y       z     vdW  Elec       q    Type
REMARK                         _______ _______ _______ _____ _____    ______ ____
ROOT
ATOM      1  C   UNL     1       3.202  -4.647  -5.728  0.00  0.00    +0.034 C 
ATOM      2  C   UNL     1       3.878  -5.803  -5.377  0.00  0.00    +0.007 A 
ATOM      3  C   UNL     1       4.212  -6.381  -4.130  0.00  0.00    +0.010 A 
ATOM      4  C   UNL     1       4.895  -7.547  -4.081  0.00  0.00    +0.001 A 
ATOM      5  C   UNL     1       5.300  -8.232  -5.238  0.00  0.00    +0.002 A 
ATOM      6  C   UNL     1       5.032  -7.766  -6.476  0.00  0.00    +0.026 A 
ATOM      7  C   UNL     1       4.291  -6.501  -6.619  0.00  0.00    +0.044 A 
ATOM      8  N   UNL     1       3.904  -5.834  -7.669  0.00  0.00    -0.373 N 
ATOM      9  C   UNL     1       3.189  -4.628  -7.240  0.00  0.00    +0.144 C 
ATOM     10  H   UNL     1       4.061  -6.096  -8.589  0.00  0.00    +0.161 HD
ENDROOT
BRANCH   9  11
ATOM     11  C   UNL     1       1.770  -4.655  -7.747  0.00  0.00    -0.021 A 
ATOM     12  C   UNL     1       1.076  -5.849  -7.794  0.00  0.00    +0.006 A 
ATOM     13  C   UNL     1      -0.226  -5.874  -8.258  0.00  0.00    +0.000 A 
ATOM     14  C   UNL     1      -0.834  -4.705  -8.676  0.00  0.00    +0.000 A 
ATOM     15  C   UNL     1      -0.139  -3.510  -8.628  0.00  0.00    +0.000 A 
ATOM     16  C   UNL     1       1.161  -3.484  -8.159  0.00  0.00    +0.006 A 
ENDBRANCH   9  11
BRANCH   1  17
ATOM     17  C   UNL     1       2.639  -3.691  -4.856  0.00  0.00    +0.199 C 
ATOM     18  O   UNL     1       2.066  -2.721  -5.309  0.00  0.00    -0.289 OA
BRANCH  17  19
ATOM     19  C   UNL     1       2.748  -3.873  -3.365  0.00  0.00    +0.311 C 
BRANCH  19  20
ATOM     20  O   UNL     1       2.105  -2.783  -2.703  0.00  0.00    -0.453 OA
BRANCH  20  21
ATOM     21  C   UNL     1       2.113  -2.794  -1.354  0.00  0.00    +0.339 C 
ATOM     22  O   UNL     1       2.652  -3.706  -0.756  0.00  0.00    -0.245 OA
BRANCH  21  26
ATOM     23  C   UNL     1      -0.019   1.526   0.010  0.00  0.00    +0.052 C 
ATOM     24  C   UNL     1       0.002  -0.004   0.002  0.00  0.00    +0.175 C 
ATOM     25  C   UNL     1       0.782  -0.538  -1.224  0.00  0.00    +0.090 C 
ATOM     26  C   UNL     1       1.494  -1.744  -0.633  0.00  0.00    +0.077 C 
ATOM     27  C   UNL     1       1.424  -1.623   0.705  0.00  0.00    +0.105 C 
ATOM     28  O   UNL     1       0.776  -0.513   1.104  0.00  0.00    -0.493 OA
ATOM     29  C   UNL     1       2.007  -2.632   1.661  0.00  0.00    +0.086 C 
ENDBRANCH  21  26
ENDBRANCH  20  21
ENDBRANCH  19  20
ENDBRANCH  17  19
ENDBRANCH   1  17
TORSDOF 6
