REMARK  Name = ZINC00634049
REMARK  8 active torsions:
REMARK  status: ('A' for Active; 'I' for Inactive)
REMARK    1  A    between atoms: C_1  and  C_2
REMARK    2  A    between atoms: C_4  and  C_26
REMARK    3  A    between atoms: C_6  and  C_25
REMARK    4  A    between atoms: C_7  and  C_11
REMARK    5  A    between atoms: N_13  and  C_14
REMARK    6  A    between atoms: C_14  and  C_15
REMARK    7  A    between atoms: C_18  and  S_21
REMARK    8  A    between atoms: S_21  and  N_24
REMARK                            x       y       z     vdW  Elec       q    Type
REMARK                         _______ _______ _______ _____ _____    ______ ____
ROOT
ATOM      1  C   UNL     1       0.558  -5.485   2.482  0.00  0.00    +0.280 C 
ATOM      2  O   UNL     1       0.652  -6.562   1.924  0.00  0.00    -0.267 OA
ATOM      3  N   UNL     1       0.498  -5.426   3.827  0.00  0.00    -0.305 N 
ATOM      4  H   UNL     1       0.423  -4.567   4.272  0.00  0.00    +0.149 HD
ENDROOT
BRANCH   1  11
ATOM      5  C   UNL     1       0.204   1.492   0.014  0.00  0.00    +0.044 C 
ATOM      6  C   UNL     1       0.303  -0.012   0.013  0.00  0.00    -0.047 A 
ATOM      7  C   UNL     1       0.399  -0.693  -1.193  0.00  0.00    +0.007 A 
ATOM      8  C   UNL     1       0.489  -2.056  -1.213  0.00  0.00    -0.039 A 
ATOM      9  C   UNL     1       0.485  -2.768  -0.011  0.00  0.00    +0.027 A 
ATOM     10  C   UNL     1       0.564  -4.187   0.333  0.00  0.00    +0.008 A 
ATOM     11  C   UNL     1       0.511  -4.249   1.689  0.00  0.00    +0.193 A 
ATOM     12  O   UNL     1       0.408  -3.003   2.198  0.00  0.00    -0.450 OA
ATOM     13  C   UNL     1       0.389  -2.083   1.214  0.00  0.00    +0.137 A 
ATOM     14  C   UNL     1       0.303  -0.695   1.210  0.00  0.00    +0.050 A 
ATOM     15  C   UNL     1       0.681  -5.346  -0.623  0.00  0.00    +0.048 C 
ATOM     16  C   UNL     1       0.592  -2.788  -2.526  0.00  0.00    +0.044 C 
ENDBRANCH   1  11
BRANCH   3  17
ATOM     17  C   UNL     1       0.545  -6.659   4.617  0.00  0.00    +0.140 C 
BRANCH  17  18
ATOM     18  C   UNL     1       0.461  -6.319   6.083  0.00  0.00    -0.030 A 
ATOM     19  C   UNL     1       1.616  -6.080   6.804  0.00  0.00    +0.007 A 
ATOM     20  C   UNL     1       1.539  -5.768   8.149  0.00  0.00    +0.029 A 
ATOM     21  C   UNL     1       0.307  -5.696   8.772  0.00  0.00    +0.105 A 
ATOM     22  C   UNL     1      -0.848  -5.934   8.051  0.00  0.00    +0.029 A 
ATOM     23  C   UNL     1      -0.771  -6.242   6.705  0.00  0.00    +0.007 A 
BRANCH  21  24
ATOM     24  S   UNL     1       0.209  -5.300  10.486  0.00  0.00    +0.056 S 
ATOM     25  O   UNL     1      -1.023  -5.830  10.956  0.00  0.00    -0.153 OA
ATOM     26  O   UNL     1       1.459  -5.658  11.058  0.00  0.00    -0.153 OA
BRANCH  24  27
ATOM     27  N   UNL     1       0.090  -3.652  10.602  0.00  0.00    -0.204 NA
ATOM     28  H   UNL     1       0.085  -3.108   9.799  0.00  0.00    +0.144 HD
ATOM     29  H   UNL     1       0.025  -3.231  11.473  0.00  0.00    +0.144 HD
ENDBRANCH  24  27
ENDBRANCH  21  24
ENDBRANCH  17  18
ENDBRANCH   3  17
TORSDOF 5
