REMARK  Name = ZINC22852320
REMARK  7 active torsions:
REMARK  status: ('A' for Active; 'I' for Inactive)
REMARK    1  A    between atoms: C_3  and  C_6
REMARK    2  A    between atoms: C_11  and  O_38
REMARK    3  A    between atoms: C_12  and  C_14
REMARK    4  A    between atoms: C_14  and  C_16
REMARK    5  A    between atoms: C_14  and  N_25
REMARK    6  A    between atoms: C_19  and  N_22
REMARK    7  A    between atoms: N_28  and  C_31
REMARK                            x       y       z     vdW  Elec       q    Type
REMARK                         _______ _______ _______ _____ _____    ______ ____
ROOT
ATOM      1  C   UNL     1       1.669   7.546  -1.035  0.00  0.00    +0.129 C 
ENDROOT
BRANCH   1   8
ATOM      2  C   UNL     1      -0.440   9.661   4.132  0.00  0.00    +0.218 A 
ATOM      3  N   UNL     1      -1.068   8.613   3.583  0.00  0.00    -0.197 NA
ATOM      4  C   UNL     1      -0.475   8.290   2.469  0.00  0.00    +0.200 A 
ATOM      5  N   UNL     1       0.581   9.132   2.247  0.00  0.00    -0.173 N 
ATOM      6  N   UNL     1       0.566  10.012   3.360  0.00  0.00    -0.138 NA
ATOM      7  C   UNL     1       1.317   8.925   1.105  0.00  0.00    +0.228 A 
ATOM      8  C   UNL     1       1.001   7.939   0.258  0.00  0.00    +0.076 A 
ATOM      9  S   UNL     1      -0.424   7.214   1.055  0.00  0.00    -0.047 S 
BRANCH   2  12
ATOM     10  C   UNL     1      -1.839  10.852   7.301  0.00  0.00    +0.042 A 
ATOM     11  C   UNL     1      -1.852   9.963   6.207  0.00  0.00    +0.053 A 
ATOM     12  C   UNL     1      -0.815  10.318   5.402  0.00  0.00    +0.173 A 
ATOM     13  O   UNL     1      -0.187  11.367   5.965  0.00  0.00    -0.460 OA
ATOM     14  C   UNL     1      -0.806  11.697   7.111  0.00  0.00    +0.196 A 
ENDBRANCH   2  12
BRANCH   7  15
ATOM     15  O   UNL     1       2.377   9.732   0.833  0.00  0.00    -0.492 OA
ATOM     16  H   UNL     1       2.971   9.572  -0.079  0.00  0.00    +0.294 HD
ENDBRANCH   7  15
ENDBRANCH   1   8
BRANCH   1  17
ATOM     17  C   UNL     1       0.816   7.990  -2.196  0.00  0.00    -0.025 A 
ATOM     18  C   UNL     1      -0.351   7.312  -2.494  0.00  0.00    +0.008 A 
ATOM     19  C   UNL     1      -1.136   7.721  -3.556  0.00  0.00    +0.033 A 
ATOM     20  C   UNL     1      -0.749   8.803  -4.325  0.00  0.00    +0.126 A 
ATOM     21  C   UNL     1       0.421   9.477  -4.030  0.00  0.00    +0.033 A 
ATOM     22  C   UNL     1       1.203   9.071  -2.965  0.00  0.00    +0.008 A 
BRANCH  20  23
ATOM     23  N   UNL     1      -1.587   9.238  -5.465  0.00  0.00    +0.056 N 
ATOM     24  O   UNL     1      -1.245  10.191  -6.143  0.00  0.00    -0.126 OA
ATOM     25  O   UNL     1      -2.617   8.644  -5.725  0.00  0.00    -0.126 OA
ENDBRANCH  20  23
ENDBRANCH   1  17
BRANCH   1  26
ATOM     26  N   UNL     1       1.833   6.088  -1.077  0.00  0.00    -0.288 NA
ATOM     27  C   UNL     1       2.536   5.672  -2.300  0.00  0.00    +0.104 C 
ATOM     28  C   UNL     1       2.617   4.145  -2.345  0.00  0.00    +0.120 C 
ATOM     29  N   UNL     1       3.317   3.659  -1.147  0.00  0.00    -0.327 N 
ATOM     30  C   UNL     1       2.615   4.074   0.075  0.00  0.00    +0.120 C 
ATOM     31  C   UNL     1       2.533   5.601   0.120  0.00  0.00    +0.104 C 
BRANCH  29  32
ATOM     32  C   UNL     1       3.474   2.270  -1.188  0.00  0.00    +0.030 A 
ATOM     33  C   UNL     1       4.114   1.611  -0.146  0.00  0.00    +0.026 A 
ATOM     34  C   UNL     1       4.267   0.239  -0.188  0.00  0.00    +0.040 A 
ATOM     35  C   UNL     1       3.784  -0.479  -1.268  0.00  0.00    +0.124 A 
ATOM     36  C   UNL     1       3.146   0.175  -2.308  0.00  0.00    +0.040 A 
ATOM     37  C   UNL     1       2.991   1.547  -2.270  0.00  0.00    +0.026 A 
ATOM     38  F   UNL     1       3.936  -1.821  -1.307  0.00  0.00    -0.205 F 
ENDBRANCH  29  32
ENDBRANCH   1  26
TORSDOF 7
