REMARK  Name = ZINC61672313
REMARK  4 active torsions:
REMARK  status: ('A' for Active; 'I' for Inactive)
REMARK    1  A    between atoms: C_1  and  N_2
REMARK    2  A    between atoms: N_2  and  C_3
REMARK    3  A    between atoms: C_3  and  C_5
REMARK    4  A    between atoms: C_3  and  C_18
REMARK                            x       y       z     vdW  Elec       q    Type
REMARK                         _______ _______ _______ _____ _____    ______ ____
ROOT
ATOM      1  C   UNL     1       2.106  -0.006  -1.003  0.00  0.00    -0.045 A 
ATOM      2  C   UNL     1       2.534   0.361   0.258  0.00  0.00    +0.031 A 
ATOM      3  C   UNL     1       3.838   0.795   0.446  0.00  0.00    +0.067 A 
ATOM      4  C   UNL     1       4.713   0.859  -0.641  0.00  0.00    +0.068 A 
ATOM      5  C   UNL     1       4.275   0.488  -1.903  0.00  0.00    +0.043 A 
ATOM      6  C   UNL     1       2.975   0.052  -2.079  0.00  0.00    +0.022 A 
ATOM      7 BR   UNL     1       2.380  -0.462  -3.799  0.00  0.00    -0.050 Br
ATOM      8  N   UNL     1       5.931   1.323  -0.150  0.00  0.00    -0.306 N 
ATOM      9  H   UNL     1       6.734   1.471  -0.673  0.00  0.00    +0.170 HD
ATOM     10  C   UNL     1       5.803   1.532   1.174  0.00  0.00    +0.325 A 
ATOM     11  O   UNL     1       6.684   1.940   1.908  0.00  0.00    -0.247 OA
ATOM     12  N   UNL     1       4.551   1.222   1.563  0.00  0.00    -0.306 N 
ATOM     13  H   UNL     1       4.206   1.286   2.467  0.00  0.00    +0.170 HD
ENDROOT
BRANCH   1  14
ATOM     14  C   UNL     1       0.690  -0.478  -1.207  0.00  0.00    -0.037 C 
BRANCH  14  15
ATOM     15  C   UNL     1       0.597  -1.970  -0.880  0.00  0.00    -0.017 C 
ATOM     16  C   UNL     1       1.492  -2.761  -1.838  0.00  0.00    +0.030 C 
ATOM     17  C   UNL     1       1.332  -4.257  -1.555  0.00  0.00    +0.160 C 
ATOM     18  O   UNL     1      -0.042  -4.623  -1.696  0.00  0.00    -0.380 OA
ATOM     19  C   UNL     1      -0.921  -3.949  -0.792  0.00  0.00    +0.160 C 
ATOM     20  C   UNL     1      -0.852  -2.441  -1.044  0.00  0.00    +0.030 C 
ENDBRANCH  14  15
BRANCH  14  22
ATOM     21  C   UNL     1      -0.210   1.690  -0.713  0.00  0.00    -0.100 C 
ATOM     22  N   UNL     1      -0.209   0.275  -0.321  0.00  0.00    +0.382 N 
ATOM     23  H   UNL     1       0.110   0.190   0.632  0.00  0.00    -0.085 HD
ATOM     24  H   UNL     1      -1.144  -0.097  -0.397  0.00  0.00    -0.085 HD
ENDBRANCH  14  22
ENDBRANCH   1  14
TORSDOF 3
