REMARK  Name = ZINC02860285
REMARK  9 active torsions:
REMARK  status: ('A' for Active; 'I' for Inactive)
REMARK    1  A    between atoms: C_4  and  C_7
REMARK    2  A    between atoms: C_7  and  N_54
REMARK    3  A    between atoms: C_8  and  C_10
REMARK    4  A    between atoms: C_8  and  P_16
REMARK    5  A    between atoms: C_8  and  N_54
REMARK    6  A    between atoms: P_16  and  O_18
REMARK    7  A    between atoms: P_16  and  O_25
REMARK    8  A    between atoms: O_18  and  C_19
REMARK    9  A    between atoms: O_25  and  C_26
REMARK                            x       y       z     vdW  Elec       q    Type
REMARK                         _______ _______ _______ _____ _____    ______ ____
ROOT
ATOM      1  C   UNL     1       5.598  -1.714  -1.807  0.00  0.00    +0.102 C 
ENDROOT
BRANCH   1   2
ATOM      2  C   UNL     1       5.419  -3.111  -1.270  0.00  0.00    -0.048 A 
ATOM      3  C   UNL     1       4.982  -4.122  -2.106  0.00  0.00    +0.002 A 
ATOM      4  C   UNL     1       4.822  -5.404  -1.614  0.00  0.00    +0.000 A 
ATOM      5  C   UNL     1       5.091  -5.673  -0.285  0.00  0.00    +0.000 A 
ATOM      6  C   UNL     1       5.523  -4.661   0.551  0.00  0.00    +0.000 A 
ATOM      7  C   UNL     1       5.687  -3.380   0.059  0.00  0.00    +0.002 A 
ENDBRANCH   1   2
BRANCH   1   8
ATOM      8  N   UNL     1       6.141  -1.786  -3.177  0.00  0.00    +0.395 N 
ATOM      9  H   UNL     1       6.501  -2.731  -3.349  0.00  0.00    -0.084 HD
ATOM     10  H   UNL     1       5.394  -1.576  -3.849  0.00  0.00    -0.084 HD
BRANCH   8  11
ATOM     11  C   UNL     1       7.235  -0.810  -3.345  0.00  0.00    -0.045 C 
BRANCH  11  15
ATOM     12  C   UNL     1       8.751  -1.081  -7.330  0.00  0.00    +0.000 A 
ATOM     13  C   UNL     1       7.715  -0.212  -7.042  0.00  0.00    +0.000 A 
ATOM     14  C   UNL     1       7.224  -0.125  -5.753  0.00  0.00    +0.002 A 
ATOM     15  C   UNL     1       7.769  -0.906  -4.751  0.00  0.00    -0.064 A 
ATOM     16  C   UNL     1       8.809  -1.770  -5.037  0.00  0.00    +0.002 A 
ATOM     17  C   UNL     1       9.296  -1.862  -6.328  0.00  0.00    +0.000 A 
ENDBRANCH  11  15
ENDBRANCH   8  11
ENDBRANCH   1   8
BRANCH   1  18
ATOM     18  P   UNL     1       3.985  -0.865  -1.840  0.00  0.00    +0.424 P 
ATOM     19  O   UNL     1       4.136   0.458  -2.486  0.00  0.00    -0.234 OA
BRANCH  18  20
ATOM     20  O   UNL     1       3.451  -0.668  -0.334  0.00  0.00    -0.416 OA
BRANCH  20  21
ATOM     21  C   UNL     1       3.939   0.439   0.285  0.00  0.00    +0.131 A 
ATOM     22  C   UNL     1       3.295   1.658   0.138  0.00  0.00    +0.046 A 
ATOM     23  C   UNL     1       3.792   2.782   0.769  0.00  0.00    +0.004 A 
ATOM     24  C   UNL     1       4.932   2.692   1.546  0.00  0.00    +0.000 A 
ATOM     25  C   UNL     1       5.576   1.477   1.695  0.00  0.00    +0.004 A 
ATOM     26  C   UNL     1       5.082   0.351   1.066  0.00  0.00    +0.046 A 
ENDBRANCH  20  21
ENDBRANCH  18  20
BRANCH  18  27
ATOM     27  O   UNL     1       2.929  -1.750  -2.672  0.00  0.00    -0.416 OA
BRANCH  27  28
ATOM     28  C   UNL     1       1.720  -1.153  -2.845  0.00  0.00    +0.131 A 
ATOM     29  C   UNL     1       0.739  -1.277  -1.872  0.00  0.00    +0.046 A 
ATOM     30  C   UNL     1      -0.487  -0.665  -2.047  0.00  0.00    +0.004 A 
ATOM     31  C   UNL     1      -0.740   0.063  -3.196  0.00  0.00    +0.000 A 
ATOM     32  C   UNL     1       0.235   0.184  -4.169  0.00  0.00    +0.004 A 
ATOM     33  C   UNL     1       1.464  -0.422  -3.996  0.00  0.00    +0.046 A 
ENDBRANCH  27  28
ENDBRANCH  18  27
ENDBRANCH   1  18
TORSDOF 9
