REMARK  Name = ZINC09253681
REMARK  6 active torsions:
REMARK  status: ('A' for Active; 'I' for Inactive)
REMARK    1  A    between atoms: C_1  and  C_2
REMARK    2  A    between atoms: C_2  and  O_3
REMARK    3  A    between atoms: O_3  and  C_4
REMARK    4  A    between atoms: C_7  and  C_10
REMARK    5  A    between atoms: N_19  and  C_22
REMARK    6  A    between atoms: C_32  and  C_34
REMARK                            x       y       z     vdW  Elec       q    Type
REMARK                         _______ _______ _______ _____ _____    ______ ____
ROOT
ATOM      1  C   UNL     1       0.607  -4.257  -3.227  0.00  0.00    +0.132 C 
ATOM      2  C   UNL     1      -0.237  -5.453  -3.705  0.00  0.00    +0.082 C 
ATOM      3  C   UNL     1       0.595  -6.084  -4.798  0.00  0.00    +0.041 C 
ATOM      4  C   UNL     1       0.243  -7.201  -5.534  0.00  0.00    +0.120 C 
ATOM      5  C   UNL     1      -1.036  -7.903  -5.309  0.00  0.00    +0.278 C 
ATOM      6  N   UNL     1      -1.314  -8.982  -6.059  0.00  0.00    -0.123 NA
ATOM      7  C   UNL     1      -0.487  -9.421  -6.975  0.00  0.00    +0.340 C 
ATOM      8  O   UNL     1      -0.844 -10.510  -7.684  0.00  0.00    -0.250 OA
ATOM      9  N   UNL     1       0.710  -8.838  -7.251  0.00  0.00    -0.188 N 
ATOM     10  C   UNL     1       1.125  -7.742  -6.582  0.00  0.00    +0.265 C 
ATOM     11  O   UNL     1       2.195  -7.219  -6.833  0.00  0.00    -0.269 OA
ATOM     12  O   UNL     1      -1.822  -7.513  -4.461  0.00  0.00    -0.268 OA
ATOM     13  N   UNL     1       1.729  -5.383  -4.939  0.00  0.00    -0.264 N 
ATOM     14  N   UNL     1       1.817  -4.302  -4.059  0.00  0.00    -0.215 N 
ATOM     15  C   UNL     1       2.846  -3.435  -3.986  0.00  0.00    +0.229 C 
ATOM     16  O   UNL     1       2.818  -2.527  -3.182  0.00  0.00    -0.274 OA
ATOM     17  C   UNL     1       4.032  -3.594  -4.902  0.00  0.00    +0.111 C 
ATOM     18  H   UNL     1       2.419  -5.604  -5.583  0.00  0.00    +0.170 HD
ENDROOT
BRANCH   9  19
ATOM     19  C   UNL     1       1.526  -9.383  -8.252  0.00  0.00    +0.046 A 
ATOM     20  C   UNL     1       1.401  -8.949  -9.565  0.00  0.00    +0.025 A 
ATOM     21  C   UNL     1       2.206  -9.487 -10.549  0.00  0.00    +0.022 A 
ATOM     22  C   UNL     1       3.138 -10.459 -10.228  0.00  0.00    +0.041 A 
ATOM     23  C   UNL     1       3.264 -10.894  -8.921  0.00  0.00    +0.022 A 
ATOM     24  C   UNL     1       2.466 -10.354  -7.932  0.00  0.00    +0.025 A 
ATOM     25 CL   UNL     1       4.148 -11.134 -11.468  0.00  0.00    -0.084 Cl
ENDBRANCH   9  19
BRANCH   1  29
ATOM     26  C   UNL     1      -1.502  -0.594  -3.856  0.00  0.00    +0.121 A 
ATOM     27  C   UNL     1      -1.450  -1.157  -2.589  0.00  0.00    +0.046 A 
ATOM     28  C   UNL     1      -0.767  -2.341  -2.388  0.00  0.00    +0.009 A 
ATOM     29  C   UNL     1      -0.137  -2.966  -3.449  0.00  0.00    -0.025 A 
ATOM     30  C   UNL     1      -0.188  -2.407  -4.712  0.00  0.00    +0.009 A 
ATOM     31  C   UNL     1      -0.874  -1.226  -4.919  0.00  0.00    +0.046 A 
BRANCH  26  32
ATOM     32  O   UNL     1      -2.174   0.570  -4.056  0.00  0.00    -0.492 OA
BRANCH  32  34
ATOM     33  C   UNL     1      -3.498   2.458  -3.333  0.00  0.00    +0.048 C 
ATOM     34  C   UNL     1      -2.796   1.164  -2.915  0.00  0.00    +0.225 C 
ENDBRANCH  32  34
ENDBRANCH  26  32
ENDBRANCH   1  29
TORSDOF 4
