REMARK  Name = ZINC39012451
REMARK  4 active torsions:
REMARK  status: ('A' for Active; 'I' for Inactive)
REMARK    1  A    between atoms: C_4  and  C_7
REMARK    2  A    between atoms: C_10  and  C_13
REMARK    3  A    between atoms: N_14  and  N_15
REMARK    4  A    between atoms: C_16  and  C_22
REMARK                            x       y       z     vdW  Elec       q    Type
REMARK                         _______ _______ _______ _____ _____    ______ ____
ROOT
ATOM      1  C   UNL     1       7.419  -2.771   0.127  0.00  0.00    +0.138 C 
ATOM      2  N   UNL     1       7.429  -4.051  -0.097  0.00  0.00    -0.183 NA
ENDROOT
BRANCH   2   3
ATOM      3  N   UNL     1       8.648  -4.731  -0.218  0.00  0.00    -0.172 N 
ATOM      4  C   UNL     1       8.861  -6.184  -0.359  0.00  0.00    +0.264 C 
ATOM      5  N   UNL     1      10.323  -6.319  -0.445  0.00  0.00    -0.189 NA
ATOM      6  N   UNL     1      10.817  -5.191  -0.369  0.00  0.00    -0.219 N 
ATOM      7  C   UNL     1       9.891  -4.203  -0.239  0.00  0.00    +0.174 C 
ATOM      8  S   UNL     1      10.249  -2.534  -0.117  0.00  0.00    -0.015 S 
ATOM      9  H   UNL     1      11.772  -5.025  -0.402  0.00  0.00    +0.176 HD
BRANCH   4  10
ATOM     10  C   UNL     1       8.204  -6.696  -1.615  0.00  0.00    -0.002 A 
ATOM     11  C   UNL     1       7.073  -6.072  -2.107  0.00  0.00    +0.010 A 
ATOM     12  C   UNL     1       6.471  -6.540  -3.259  0.00  0.00    +0.039 A 
ATOM     13  C   UNL     1       7.001  -7.635  -3.921  0.00  0.00    +0.123 A 
ATOM     14  C   UNL     1       8.133  -8.259  -3.427  0.00  0.00    +0.039 A 
ATOM     15  C   UNL     1       8.737  -7.786  -2.278  0.00  0.00    +0.010 A 
ATOM     16  F   UNL     1       6.412  -8.094  -5.047  0.00  0.00    -0.205 F 
ENDBRANCH   4  10
ENDBRANCH   2   3
BRANCH   1  20
ATOM     17  C   UNL     1       3.737  -0.656   0.189  0.00  0.00    -0.018 A 
ATOM     18  C   UNL     1       4.936   0.024   0.408  0.00  0.00    +0.009 A 
ATOM     19  C   UNL     1       6.130  -0.660   0.389  0.00  0.00    +0.010 A 
ATOM     20  C   UNL     1       6.141  -2.038   0.148  0.00  0.00    -0.005 A 
ATOM     21  C   UNL     1       4.940  -2.718  -0.072  0.00  0.00    +0.010 A 
ATOM     22  C   UNL     1       3.747  -2.031  -0.046  0.00  0.00    +0.009 A 
BRANCH  17  26
ATOM     23  C   UNL     1       0.052   1.462   0.251  0.00  0.00    +0.000 A 
ATOM     24  C   UNL     1       1.239   2.139   0.464  0.00  0.00    +0.001 A 
ATOM     25  C   UNL     1       2.438   1.457   0.445  0.00  0.00    +0.008 A 
ATOM     26  C   UNL     1       2.452   0.082   0.210  0.00  0.00    -0.018 A 
ATOM     27  C   UNL     1       1.252  -0.595  -0.004  0.00  0.00    +0.008 A 
ATOM     28  C   UNL     1       0.059   0.098   0.018  0.00  0.00    +0.001 A 
ENDBRANCH  17  26
ENDBRANCH   1  20
TORSDOF 4
