REMARK  Name = ZINC39672760
REMARK  9 active torsions:
REMARK  status: ('A' for Active; 'I' for Inactive)
REMARK    1  A    between atoms: C_1  and  C_2
REMARK    2  A    between atoms: C_2  and  C_3
REMARK    3  A    between atoms: C_3  and  C_4
REMARK    4  A    between atoms: C_4  and  C_6
REMARK    5  A    between atoms: C_4  and  C_7
REMARK    6  A    between atoms: C_11  and  C_20
REMARK    7  A    between atoms: N_22  and  C_23
REMARK    8  A    between atoms: C_23  and  C_24
REMARK    9  A    between atoms: C_24  and  N_30
REMARK                            x       y       z     vdW  Elec       q    Type
REMARK                         _______ _______ _______ _____ _____    ______ ____
ROOT
ATOM      1  C   UNL     1       1.014  -2.237  -2.505  0.00  0.00    +0.218 C 
ATOM      2  O   UNL     1       1.386  -1.427  -3.328  0.00  0.00    -0.275 OA
ATOM      3  N   UNL     1       1.209  -3.553  -2.720  0.00  0.00    -0.300 N 
ATOM      4  C   UNL     1       0.822  -4.683  -1.843  0.00  0.00    +0.121 C 
ATOM      5  C   UNL     1       0.327  -5.779  -2.814  0.00  0.00    +0.100 C 
ATOM      6  C   UNL     1       1.011  -5.455  -4.153  0.00  0.00    -0.004 C 
ATOM      7  C   UNL     1       1.852  -4.197  -3.890  0.00  0.00    +0.115 C 
ATOM      8  C   UNL     1      -0.035  -5.169  -5.225  0.00  0.00    -0.010 C 
ATOM      9  C   UNL     1       0.668  -4.906  -6.560  0.00  0.00    -0.082 C 
ATOM     10  N   UNL     1       1.471  -6.078  -6.931  0.00  0.00    +0.379 N 
ATOM     11  C   UNL     1       2.534  -6.291  -5.941  0.00  0.00    -0.082 C 
ATOM     12  C   UNL     1       1.909  -6.612  -4.580  0.00  0.00    -0.010 C 
ATOM     13  H   UNL     1       0.877  -6.893  -6.966  0.00  0.00    -0.086 HD
ATOM     14  H   UNL     1       1.884  -5.927  -7.839  0.00  0.00    -0.086 HD
ENDROOT
BRANCH   5  15
ATOM     15  C   UNL     1      -1.171  -5.713  -2.959  0.00  0.00    +0.218 C 
ATOM     16  O   UNL     1      -1.750  -4.658  -2.809  0.00  0.00    -0.275 OA
ATOM     17  N   UNL     1      -1.869  -6.828  -3.255  0.00  0.00    -0.313 N 
ATOM     18  H   UNL     1      -1.407  -7.672  -3.374  0.00  0.00    +0.149 HD
BRANCH  17  19
ATOM     19  C   UNL     1      -3.326  -6.765  -3.395  0.00  0.00    +0.126 C 
BRANCH  19  20
ATOM     20  C   UNL     1      -3.881  -8.176  -3.599  0.00  0.00    +0.038 C 
ATOM     21  C   UNL     1      -5.383  -8.098  -3.877  0.00  0.00    +0.024 C 
ATOM     22  C   UNL     1      -6.088  -7.440  -2.688  0.00  0.00    +0.002 C 
ATOM     23  C   UNL     1      -5.844  -8.271  -1.427  0.00  0.00    +0.000 C 
ATOM     24  C   UNL     1      -4.341  -8.349  -1.150  0.00  0.00    +0.002 C 
ATOM     25  C   UNL     1      -3.637  -9.007  -2.338  0.00  0.00    +0.024 C 
BRANCH  20  26
ATOM     26  N   UNL     1      -3.204  -8.807  -4.740  0.00  0.00    -0.291 NA
ATOM     27  C   UNL     1      -3.360  -8.000  -5.958  0.00  0.00    +0.113 C 
ATOM     28  C   UNL     1      -2.592  -8.662  -7.105  0.00  0.00    +0.175 C 
ATOM     29  O   UNL     1      -3.065 -10.000  -7.279  0.00  0.00    -0.377 OA
ATOM     30  C   UNL     1      -2.928 -10.815  -6.112  0.00  0.00    +0.175 C 
ATOM     31  C   UNL     1      -3.699 -10.175  -4.955  0.00  0.00    +0.113 C 
ENDBRANCH  20  26
ENDBRANCH  19  20
ENDBRANCH  17  19
ENDBRANCH   5  15
BRANCH   1  32
ATOM     32  C   UNL     1       0.335  -1.772  -1.243  0.00  0.00    +0.072 C 
ATOM     33  C   UNL     1       1.147  -2.228  -0.029  0.00  0.00    +0.017 C 
BRANCH  32  34
ATOM     34  C   UNL     1       0.240  -0.244  -1.248  0.00  0.00    +0.012 C 
BRANCH  34  36
ATOM     35  C   UNL     1      -0.654   1.748  -0.034  0.00  0.00    +0.004 C 
ATOM     36  C   UNL     1      -0.559   0.221  -0.029  0.00  0.00    -0.003 C 
ENDBRANCH  34  36
ENDBRANCH  32  34
ENDBRANCH   1  32
TORSDOF 7
