REMARK  Name = ZINC39355175
REMARK  6 active torsions:
REMARK  status: ('A' for Active; 'I' for Inactive)
REMARK    1  A    between atoms: C_1  and  C_2
REMARK    2  A    between atoms: C_8  and  C_20
REMARK    3  A    between atoms: C_10  and  C_16
REMARK    4  A    between atoms: C_11  and  N_15
REMARK    5  A    between atoms: C_16  and  O_18
REMARK    6  A    between atoms: O_18  and  C_19
REMARK                            x       y       z     vdW  Elec       q    Type
REMARK                         _______ _______ _______ _____ _____    ______ ____
ROOT
ATOM      1  C   UNL     1      -0.002   1.507   0.034  0.00  0.00    +0.063 C 
ATOM      2  C   UNL     1      -0.019   0.001   0.004  0.00  0.00    +0.034 C 
ATOM      3  N   UNL     1      -0.122  -0.591  -1.161  0.00  0.00    -0.185 NA
ATOM      4  C   UNL     1      -0.137  -1.918  -1.310  0.00  0.00    +0.248 C 
ATOM      5  O   UNL     1      -0.252  -2.421  -2.409  0.00  0.00    -0.273 OA
ATOM      6  C   UNL     1      -0.005  -2.778  -0.069  0.00  0.00    +0.155 C 
ATOM      7  C   UNL     1      -1.274  -3.632   0.026  0.00  0.00    +0.080 C 
ATOM      8  C   UNL     1      -1.343  -4.293   1.375  0.00  0.00    +0.102 C 
ATOM      9  C   UNL     1      -0.672  -3.831   2.456  0.00  0.00    +0.194 C 
ATOM     10  O   UNL     1       0.128  -2.741   2.389  0.00  0.00    -0.445 OA
ATOM     11  C   UNL     1       0.102  -2.028   1.249  0.00  0.00    +0.122 C 
ATOM     12  C   UNL     1       0.082  -0.681   1.220  0.00  0.00    +0.063 C 
ENDROOT
BRANCH   7  13
ATOM     13  C   UNL     1      -2.484  -2.753  -0.163  0.00  0.00    -0.037 A 
ATOM     14  C   UNL     1      -2.716  -1.702   0.704  0.00  0.00    +0.006 A 
ATOM     15  C   UNL     1      -3.826  -0.896   0.532  0.00  0.00    +0.022 A 
ATOM     16  C   UNL     1      -4.704  -1.140  -0.508  0.00  0.00    +0.059 A 
ATOM     17  C   UNL     1      -4.471  -2.193  -1.377  0.00  0.00    +0.060 A 
ATOM     18  C   UNL     1      -3.357  -2.996  -1.206  0.00  0.00    +0.025 A 
ATOM     19 CL   UNL     1      -5.573  -2.502  -2.683  0.00  0.00    -0.082 Cl
ATOM     20 CL   UNL     1      -6.098  -0.129  -0.724  0.00  0.00    -0.082 Cl
ENDBRANCH   7  13
BRANCH   9  21
ATOM     21  N   UNL     1      -0.806  -4.484   3.652  0.00  0.00    -0.329 N 
ATOM     22  H   UNL     1      -1.301  -5.318   3.696  0.00  0.00    +0.145 HD
ATOM     23  H   UNL     1      -0.407  -4.114   4.454  0.00  0.00    +0.145 HD
ENDBRANCH   9  21
BRANCH   8  24
ATOM     24  C   UNL     1      -2.140  -5.440   1.519  0.00  0.00    +0.340 C 
ATOM     25  O   UNL     1      -1.730  -6.519   1.131  0.00  0.00    -0.245 OA
BRANCH  24  26
ATOM     26  O   UNL     1      -3.361  -5.346   2.088  0.00  0.00    -0.465 OA
ATOM     27  C   UNL     1      -4.117  -6.554   2.203  0.00  0.00    +0.280 C 
ENDBRANCH  24  26
ENDBRANCH   8  24
TORSDOF 4
