REMARK  Name = ZINC09835128
REMARK  9 active torsions:
REMARK  status: ('A' for Active; 'I' for Inactive)
REMARK    1  A    between atoms: C_1  and  C_2
REMARK    2  A    between atoms: C_2  and  O_3
REMARK    3  A    between atoms: O_3  and  C_4
REMARK    4  A    between atoms: C_4  and  C_6
REMARK    5  A    between atoms: C_13  and  C_15
REMARK    6  A    between atoms: C_15  and  N_16
REMARK    7  A    between atoms: C_23  and  S_27
REMARK    8  A    between atoms: C_24  and  C_26
REMARK    9  A    between atoms: S_27  and  N_30
REMARK                            x       y       z     vdW  Elec       q    Type
REMARK                         _______ _______ _______ _____ _____    ______ ____
ROOT
ATOM      1  N   UNL     1       5.430  -1.093  -6.390  0.00  0.00    -0.290 N 
ATOM      2  C   UNL     1       4.706  -0.400  -7.307  0.00  0.00    +0.203 A 
ATOM      3  N   UNL     1       5.280   0.438  -8.127  0.00  0.00    -0.230 NA
ATOM      4  C   UNL     1       6.593   0.642  -8.091  0.00  0.00    +0.117 A 
ATOM      5  C   UNL     1       7.425  -0.029  -7.176  0.00  0.00    +0.099 A 
ATOM      6  C   UNL     1       6.763  -0.938  -6.288  0.00  0.00    +0.264 A 
ATOM      7  O   UNL     1       7.397  -1.563  -5.456  0.00  0.00    -0.267 OA
ATOM      8  C   UNL     1       8.834   0.306  -7.268  0.00  0.00    +0.130 A 
ATOM      9  C   UNL     1       9.236   1.201  -8.185  0.00  0.00    +0.016 A 
ATOM     10  S   UNL     1       7.722   1.663  -9.004  0.00  0.00    -0.072 S 
ATOM     11  C   UNL     1      10.634   1.696  -8.457  0.00  0.00    +0.053 C 
ENDROOT
BRANCH   8  12
ATOM     12  S   UNL     1      10.002  -0.451  -6.188  0.00  0.00    +0.063 S 
ATOM     13  O   UNL     1       9.498  -1.744  -5.886  0.00  0.00    -0.153 OA
ATOM     14  O   UNL     1      11.283  -0.249  -6.770  0.00  0.00    -0.153 OA
BRANCH  12  15
ATOM     15  N   UNL     1       9.986   0.406  -4.771  0.00  0.00    -0.172 NA
ATOM     16  C   UNL     1      10.879   1.559  -4.573  0.00  0.00    +0.137 C 
ATOM     17  C   UNL     1      10.038   2.743  -4.081  0.00  0.00    +0.177 C 
ATOM     18  O   UNL     1       9.267   2.334  -2.948  0.00  0.00    -0.377 OA
ATOM     19  C   UNL     1       8.325   1.295  -3.225  0.00  0.00    +0.177 C 
ATOM     20  C   UNL     1       9.075   0.041  -3.675  0.00  0.00    +0.137 C 
ENDBRANCH  12  15
ENDBRANCH   8  12
BRANCH   1  21
ATOM     21  C   UNL     1       4.745  -2.023  -5.489  0.00  0.00    +0.222 C 
BRANCH  21  28
ATOM     22  C   UNL     1       1.739  -1.488  -1.838  0.00  0.00    +0.115 C 
ATOM     23  C   UNL     1       1.459  -2.992  -1.831  0.00  0.00    +0.018 C 
ATOM     24  C   UNL     1       1.860  -3.594  -3.179  0.00  0.00    +0.020 C 
ATOM     25  C   UNL     1       3.361  -3.383  -3.401  0.00  0.00    +0.108 C 
ATOM     26  N   UNL     1       3.662  -1.952  -3.266  0.00  0.00    -0.299 N 
ATOM     27  C   UNL     1       3.238  -1.252  -2.046  0.00  0.00    +0.122 C 
ATOM     28  C   UNL     1       4.316  -1.292  -4.243  0.00  0.00    +0.236 C 
ATOM     29  O   UNL     1       4.558  -0.110  -4.120  0.00  0.00    -0.274 OA
BRANCH  22  30
ATOM     30  C   UNL     1       1.313  -0.890  -0.522  0.00  0.00    +0.312 C 
ATOM     31  O   UNL     1       0.834  -1.595   0.335  0.00  0.00    -0.250 OA
BRANCH  30  32
ATOM     32  O   UNL     1       1.467   0.425  -0.301  0.00  0.00    -0.465 OA
BRANCH  32  34
ATOM     33  C   UNL     1       1.294   2.431   1.036  0.00  0.00    +0.048 C 
ATOM     34  C   UNL     1       1.042   0.923   0.969  0.00  0.00    +0.229 C 
ENDBRANCH  32  34
ENDBRANCH  30  32
ENDBRANCH  22  30
ENDBRANCH  21  28
ENDBRANCH   1  21
TORSDOF 7
