REMARK  Name = ZINC36609461
REMARK  13 active torsions:
REMARK  status: ('A' for Active; 'I' for Inactive)
REMARK    1  A    between atoms: C_1  and  C_2
REMARK    2  A    between atoms: C_2  and  C_3
REMARK    3  A    between atoms: C_2  and  C_4
REMARK    4  A    between atoms: C_2  and  N_5
REMARK    5  A    between atoms: C_6  and  C_8
REMARK    6  A    between atoms: C_8  and  C_10
REMARK    7  A    between atoms: C_8  and  N_18
REMARK    8  A    between atoms: C_13  and  O_16
REMARK    9  A    between atoms: O_16  and  C_17
REMARK   10  A    between atoms: N_18  and  C_19
REMARK   11  A    between atoms: C_25  and  C_27
REMARK   12  A    between atoms: C_29  and  N_34
REMARK   13  A    between atoms: C_32  and  O_33
REMARK                            x       y       z     vdW  Elec       q    Type
REMARK                         _______ _______ _______ _____ _____    ______ ____
ROOT
ATOM      1  N   UNL     1       3.473   0.362  -4.255  0.00  0.00    -0.251 N 
ATOM      2  C   UNL     1       3.641   1.644  -3.873  0.00  0.00    +0.255 C 
ATOM      3  O   UNL     1       4.602   2.275  -4.269  0.00  0.00    -0.269 OA
ENDROOT
BRANCH   1   4
ATOM      4  C   UNL     1       4.382  -0.230  -5.138  0.00  0.00    +0.038 A 
ATOM      5  C   UNL     1       4.027  -0.440  -6.464  0.00  0.00    +0.023 A 
ATOM      6  C   UNL     1       4.927  -1.025  -7.333  0.00  0.00    +0.002 A 
ATOM      7  C   UNL     1       6.180  -1.400  -6.885  0.00  0.00    +0.000 A 
ATOM      8  C   UNL     1       6.536  -1.192  -5.565  0.00  0.00    +0.002 A 
ATOM      9  C   UNL     1       5.643  -0.603  -4.692  0.00  0.00    +0.023 A 
ENDBRANCH   1   4
BRANCH   2  10
ATOM     10  C   UNL     1       2.660   2.281  -2.975  0.00  0.00    +0.081 A 
ATOM     11  C   UNL     1       2.271   1.644  -1.794  0.00  0.00    +0.049 A 
ATOM     12  C   UNL     1       1.353   2.244  -0.960  0.00  0.00    +0.127 A 
ATOM     13  C   UNL     1       0.814   3.478  -1.286  0.00  0.00    +0.036 A 
ATOM     14  C   UNL     1       1.190   4.119  -2.450  0.00  0.00    +0.048 A 
ATOM     15  C   UNL     1       2.117   3.532  -3.299  0.00  0.00    +0.129 A 
BRANCH  12  16
ATOM     16  N   UNL     1       0.941   1.568   0.291  0.00  0.00    +0.056 N 
ATOM     17  O   UNL     1       1.317   0.442   0.521  0.00  0.00    -0.126 OA
ATOM     18  O   UNL     1       0.229   2.141   1.082  0.00  0.00    -0.126 OA
ENDBRANCH  12  16
BRANCH  15  19
ATOM     19  O   UNL     1       2.491   4.163  -4.439  0.00  0.00    -0.506 OA
ATOM     20  H   UNL     1       1.942   3.948  -5.206  0.00  0.00    +0.292 HD
ENDBRANCH  15  19
ENDBRANCH   2  10
BRANCH   1  21
ATOM     21  C   UNL     1       2.338  -0.411  -3.744  0.00  0.00    +0.197 C 
BRANCH  21  22
ATOM     22  C   UNL     1       1.426  -0.777  -4.887  0.00  0.00    -0.018 A 
ATOM     23  C   UNL     1       1.651  -1.938  -5.604  0.00  0.00    +0.009 A 
ATOM     24  C   UNL     1       0.816  -2.276  -6.652  0.00  0.00    +0.046 A 
ATOM     25  C   UNL     1      -0.248  -1.450  -6.984  0.00  0.00    +0.120 A 
ATOM     26  C   UNL     1      -0.472  -0.287  -6.262  0.00  0.00    +0.046 A 
ATOM     27  C   UNL     1       0.362   0.044  -5.212  0.00  0.00    +0.009 A 
BRANCH  25  28
ATOM     28  O   UNL     1      -1.071  -1.780  -8.014  0.00  0.00    -0.495 OA
ATOM     29  C   UNL     1      -2.146  -0.884  -8.299  0.00  0.00    +0.277 C 
ENDBRANCH  25  28
ENDBRANCH  21  22
BRANCH  21  31
ATOM     30  N   UNL     1       1.971  -2.537  -2.536  0.00  0.00    -0.309 N 
ATOM     31  C   UNL     1       2.843  -1.666  -3.082  0.00  0.00    +0.239 C 
ATOM     32  O   UNL     1       4.033  -1.893  -3.040  0.00  0.00    -0.273 OA
ATOM     33  H   UNL     1       1.019  -2.356  -2.569  0.00  0.00    +0.149 HD
BRANCH  30  35
ATOM     34  C   UNL     1       3.388  -3.386  -0.732  0.00  0.00    +0.031 C 
ATOM     35  C   UNL     1       2.462  -3.758  -1.891  0.00  0.00    +0.026 C 
ATOM     36  C   UNL     1       3.234  -4.598  -2.911  0.00  0.00    +0.031 C 
ATOM     37  C   UNL     1       1.276  -4.566  -1.359  0.00  0.00    +0.031 C 
ENDBRANCH  30  35
ENDBRANCH  21  31
ENDBRANCH   1  21
TORSDOF 9
