REMARK  Name = ZINC01129263
REMARK  5 active torsions:
REMARK  status: ('A' for Active; 'I' for Inactive)
REMARK    1  A    between atoms: C_4  and  C_7
REMARK    2  A    between atoms: C_7  and  O_8
REMARK    3  A    between atoms: O_8  and  C_9
REMARK    4  A    between atoms: C_12  and  C_15
REMARK    5  A    between atoms: C_18  and  C_26
REMARK                            x       y       z     vdW  Elec       q    Type
REMARK                         _______ _______ _______ _____ _____    ______ ____
ROOT
ATOM      1  C   UNL     1       9.022  -3.675   1.977  0.00  0.00    +0.143 C 
ATOM      2  C   UNL     1       8.781  -4.974   2.757  0.00  0.00    +0.058 C 
ATOM      3  C   UNL     1      10.124  -5.580   3.181  0.00  0.00    +0.106 C 
ATOM      4  N   UNL     1      10.803  -4.632   4.085  0.00  0.00    -0.307 N 
ATOM      5  C   UNL     1      10.771  -3.295   3.710  0.00  0.00    +0.215 A 
ATOM      6  N   UNL     1       9.953  -2.836   2.730  0.00  0.00    -0.226 N 
ATOM      7  N   UNL     1      10.192  -1.465   2.621  0.00  0.00    -0.156 NA
ATOM      8  C   UNL     1      11.110  -1.169   3.507  0.00  0.00    +0.247 A 
ATOM      9  N   UNL     1      11.457  -2.284   4.170  0.00  0.00    -0.202 NA
ATOM     10  H   UNL     1      11.247  -4.926   4.896  0.00  0.00    +0.149 HD
ENDROOT
BRANCH   3  11
ATOM     11  C   UNL     1      10.977  -5.822   1.963  0.00  0.00    -0.027 A 
ATOM     12  C   UNL     1      11.677  -4.776   1.390  0.00  0.00    +0.007 A 
ATOM     13  C   UNL     1      12.460  -4.998   0.273  0.00  0.00    +0.020 A 
ATOM     14  C   UNL     1      12.543  -6.267  -0.273  0.00  0.00    +0.041 A 
ATOM     15  C   UNL     1      11.842  -7.313   0.301  0.00  0.00    +0.020 A 
ATOM     16  C   UNL     1      11.064  -7.091   1.422  0.00  0.00    +0.007 A 
ATOM     17 CL   UNL     1      13.525  -6.546  -1.676  0.00  0.00    -0.084 Cl
ENDBRANCH   3  11
BRANCH   1  21
ATOM     18  C   UNL     1       5.319  -1.605   1.466  0.00  0.00    +0.121 A 
ATOM     19  C   UNL     1       6.048  -2.007   0.357  0.00  0.00    +0.046 A 
ATOM     20  C   UNL     1       7.245  -2.676   0.525  0.00  0.00    +0.009 A 
ATOM     21  C   UNL     1       7.716  -2.945   1.797  0.00  0.00    -0.023 A 
ATOM     22  C   UNL     1       6.990  -2.545   2.904  0.00  0.00    +0.009 A 
ATOM     23  C   UNL     1       5.796  -1.871   2.742  0.00  0.00    +0.046 A 
BRANCH  18  24
ATOM     24  O   UNL     1       4.141  -0.946   1.304  0.00  0.00    -0.487 OA
BRANCH  24  25
ATOM     25  C   UNL     1       3.711  -0.707  -0.038  0.00  0.00    +0.264 C 
BRANCH  25  29
ATOM     26  C   UNL     1      -0.017   1.378   0.010  0.00  0.00    +0.000 A 
ATOM     27  C   UNL     1       1.171   2.086   0.002  0.00  0.00    +0.000 A 
ATOM     28  C   UNL     1       2.377   1.411  -0.013  0.00  0.00    +0.007 A 
ATOM     29  C   UNL     1       2.396   0.029  -0.020  0.00  0.00    -0.010 A 
ATOM     30  C   UNL     1       1.208  -0.679  -0.012  0.00  0.00    +0.007 A 
ATOM     31  C   UNL     1       0.002  -0.004   0.002  0.00  0.00    +0.000 A 
ENDBRANCH  25  29
ENDBRANCH  24  25
ENDBRANCH  18  24
ENDBRANCH   1  21
TORSDOF 5
