REMARK  Name = ZINC18272445
REMARK  6 active torsions:
REMARK  status: ('A' for Active; 'I' for Inactive)
REMARK    1  A    between atoms: C_1  and  N_2
REMARK    2  A    between atoms: N_2  and  C_3
REMARK    3  A    between atoms: N_2  and  C_4
REMARK    4  A    between atoms: C_7  and  N_10
REMARK    5  A    between atoms: C_14  and  C_15
REMARK    6  A    between atoms: N_21  and  C_22
REMARK                            x       y       z     vdW  Elec       q    Type
REMARK                         _______ _______ _______ _____ _____    ______ ____
ROOT
ATOM      1  C   UNL     1      -2.042  -1.736  -5.842  0.00  0.00    +0.046 C 
ATOM      2  C   UNL     1      -2.713  -1.493  -4.681  0.00  0.00    +0.079 C 
ATOM      3  C   UNL     1      -2.404  -1.939  -3.314  0.00  0.00    +0.256 C 
ATOM      4  O   UNL     1      -1.429  -2.630  -3.076  0.00  0.00    -0.269 OA
ATOM      5  N   UNL     1      -3.230  -1.557  -2.354  0.00  0.00    -0.260 N 
ATOM      6  C   UNL     1      -4.327  -0.775  -2.643  0.00  0.00    +0.166 C 
ATOM      7  N   UNL     1      -5.240  -0.311  -1.820  0.00  0.00    -0.226 NA
ATOM      8  S   UNL     1      -4.200  -0.540  -4.409  0.00  0.00    -0.049 S 
ATOM      9  H   UNL     1      -3.062  -1.830  -1.439  0.00  0.00    +0.157 HD
ENDROOT
BRANCH   7  10
ATOM     10  C   UNL     1      -6.267   0.457  -2.300  0.00  0.00    +0.067 A 
ATOM     11  C   UNL     1      -6.010   1.479  -3.216  0.00  0.00    +0.030 A 
ATOM     12  C   UNL     1      -7.048   2.249  -3.696  0.00  0.00    +0.040 A 
ATOM     13  C   UNL     1      -8.345   2.012  -3.270  0.00  0.00    +0.124 A 
ATOM     14  C   UNL     1      -8.607   1.000  -2.360  0.00  0.00    +0.040 A 
ATOM     15  C   UNL     1      -7.577   0.219  -1.878  0.00  0.00    +0.030 A 
ATOM     16  F   UNL     1      -9.358   2.770  -3.743  0.00  0.00    -0.205 F 
ENDBRANCH   7  10
BRANCH   1  21
ATOM     17  N   UNL     1       0.306  -2.060  -5.074  0.00  0.00    -0.316 N 
ATOM     18  C   UNL     1       1.295  -2.964  -5.313  0.00  0.00    +0.092 A 
ATOM     19  C   UNL     1       0.842  -3.887  -6.195  0.00  0.00    +0.020 A 
ATOM     20  C   UNL     1      -0.476  -3.557  -6.526  0.00  0.00    +0.027 A 
ATOM     21  C   UNL     1      -0.801  -2.416  -5.814  0.00  0.00    +0.048 A 
BRANCH  17  25
ATOM     22  C   UNL     1       0.577   1.225  -2.517  0.00  0.00    +0.029 A 
ATOM     23  C   UNL     1       0.955  -0.035  -2.072  0.00  0.00    +0.025 A 
ATOM     24  C   UNL     1       0.865  -1.122  -2.918  0.00  0.00    +0.028 A 
ATOM     25  C   UNL     1       0.397  -0.956  -4.214  0.00  0.00    +0.047 A 
ATOM     26  C   UNL     1       0.018   0.304  -4.660  0.00  0.00    +0.028 A 
ATOM     27  C   UNL     1       0.102   1.390  -3.813  0.00  0.00    +0.025 A 
BRANCH  22  29
ATOM     28  C   UNL     1       0.262   3.654  -2.129  0.00  0.00    +0.129 C 
ATOM     29  N   UNL     1       0.667   2.326  -1.661  0.00  0.00    -0.336 N 
ATOM     30  C   UNL     1       1.167   2.153  -0.294  0.00  0.00    +0.129 C 
ENDBRANCH  22  29
ENDBRANCH  17  25
ENDBRANCH   1  21
TORSDOF 4
