REMARK  Name = ZINC40509531
REMARK  6 active torsions:
REMARK  status: ('A' for Active; 'I' for Inactive)
REMARK    1  A    between atoms: C_1  and  C_2
REMARK    2  A    between atoms: C_4  and  C_20
REMARK    3  A    between atoms: C_7  and  C_8
REMARK    4  A    between atoms: C_8  and  N_9
REMARK    5  A    between atoms: N_10  and  C_11
REMARK    6  A    between atoms: N_10  and  C_12
REMARK                            x       y       z     vdW  Elec       q    Type
REMARK                         _______ _______ _______ _____ _____    ______ ____
ROOT
ATOM      1  C   UNL     1      -0.180   1.220  -0.086  0.00  0.00    +0.044 C 
ATOM      2  C   UNL     1       0.124  -0.256  -0.120  0.00  0.00    -0.044 A 
ATOM      3  C   UNL     1       0.351  -0.907  -1.325  0.00  0.00    +0.024 A 
ATOM      4  C   UNL     1       0.628  -2.259  -1.322  0.00  0.00    +0.015 A 
ATOM      5  N   UNL     1       0.678  -2.937  -0.191  0.00  0.00    -0.347 N 
ATOM      6  C   UNL     1       0.467  -2.353   0.979  0.00  0.00    +0.101 A 
ATOM      7  C   UNL     1       0.189  -0.991   1.050  0.00  0.00    -0.024 A 
ATOM      8  N   UNL     1       0.529  -3.105   2.146  0.00  0.00    -0.315 N 
ATOM      9  C   UNL     1      -0.691  -3.693   2.704  0.00  0.00    +0.131 C 
ATOM     10  C   UNL     1       0.875  -2.971  -2.627  0.00  0.00    +0.063 C 
ATOM     11  H   UNL     1       0.875  -3.886  -0.216  0.00  0.00    +0.167 HD
ENDROOT
BRANCH   8  12
ATOM     12  C   UNL     1       1.815  -3.309   2.818  0.00  0.00    +0.097 C 
ATOM     13  C   UNL     1       2.114  -4.814   2.920  0.00  0.00    +0.046 C 
ATOM     14  C   UNL     1       3.291  -5.053   3.896  0.00  0.00    +0.168 C 
ATOM     15  S   UNL     1       3.161  -3.622   5.043  0.00  0.00    -0.029 S 
ATOM     16  O   UNL     1       4.334  -2.828   4.926  0.00  0.00    -0.174 OA
ATOM     17  O   UNL     1       2.758  -4.090   6.323  0.00  0.00    -0.174 OA
ATOM     18  C   UNL     1       1.752  -2.730   4.260  0.00  0.00    +0.188 C 
ENDBRANCH   8  12
BRANCH   7  19
ATOM     19  C   UNL     1      -0.045  -0.328   2.383  0.00  0.00    -0.047 C 
BRANCH  19  20
ATOM     20  N   UNL     1      -1.488  -0.265   2.652  0.00  0.00    +0.381 N 
ATOM     21  H   UNL     1      -1.644   0.179   3.545  0.00  0.00    -0.090 HD
ATOM     22  H   UNL     1      -1.942   0.270   1.927  0.00  0.00    -0.090 HD
ATOM     23  H   UNL     1      -1.868  -1.199   2.670  0.00  0.00    -0.090 HD
ENDBRANCH  19  20
ENDBRANCH   7  19
TORSDOF 3
