REMARK  Name = ZINC35319019
REMARK  3 active torsions:
REMARK  status: ('A' for Active; 'I' for Inactive)
REMARK    1  A    between atoms: C_6  and  C_7
REMARK    2  A    between atoms: C_9  and  C_12
REMARK    3  A    between atoms: C_18  and  C_20
REMARK                            x       y       z     vdW  Elec       q    Type
REMARK                         _______ _______ _______ _____ _____    ______ ____
ROOT
ATOM      1  C   UNL     1      -1.272  -0.766   0.011  0.00  0.00    +0.202 A 
ATOM      2  N   UNL     1      -1.384  -2.106   0.010  0.00  0.00    -0.190 NA
ATOM      3  C   UNL     1      -2.641  -2.448   0.019  0.00  0.00    +0.248 A 
ATOM      4  O   UNL     1      -3.384  -1.334   0.026  0.00  0.00    -0.336 OA
ATOM      5  N   UNL     1      -2.474  -0.245   0.026  0.00  0.00    -0.056 NA
ENDROOT
BRANCH   1  11
ATOM      6  C   UNL     1      -0.017   1.389   0.010  0.00  0.00    +0.013 A 
ATOM      7  C   UNL     1       1.170   2.093   0.002  0.00  0.00    +0.021 A 
ATOM      8  C   UNL     1       2.378   1.417  -0.013  0.00  0.00    +0.041 A 
ATOM      9  C   UNL     1       2.402   0.033  -0.022  0.00  0.00    +0.021 A 
ATOM     10  C   UNL     1       1.221  -0.680  -0.014  0.00  0.00    +0.013 A 
ATOM     11  C   UNL     1       0.002  -0.004   0.002  0.00  0.00    +0.023 A 
ATOM     12 CL   UNL     1       3.868   2.308  -0.024  0.00  0.00    -0.084 Cl
ENDBRANCH   1  11
BRANCH   3  13
ATOM     13  C   UNL     1      -3.169  -3.860   0.021  0.00  0.00    +0.165 C 
ATOM     14  C   UNL     1      -3.734  -4.207   1.414  0.00  0.00    +0.034 C 
ATOM     15  C   UNL     1      -5.255  -3.954   1.246  0.00  0.00    +0.021 C 
ATOM     16  C   UNL     1      -5.486  -4.409  -0.217  0.00  0.00    +0.108 C 
ATOM     17  N   UNL     1      -4.272  -3.982  -0.944  0.00  0.00    -0.289 N 
ATOM     18  C   UNL     1      -4.189  -3.741  -2.267  0.00  0.00    +0.219 C 
ATOM     19  O   UNL     1      -3.135  -3.392  -2.755  0.00  0.00    -0.275 OA
BRANCH  18  20
ATOM     20  C   UNL     1      -5.405  -3.907  -3.141  0.00  0.00    +0.075 C 
ATOM     21  C   UNL     1      -5.401  -5.061  -4.146  0.00  0.00    +0.013 C 
ATOM     22  C   UNL     1      -5.246  -3.620  -4.635  0.00  0.00    +0.013 C 
ENDBRANCH  18  20
ENDBRANCH   3  13
TORSDOF 3
