REMARK  Name = ZINC35744215
REMARK  10 active torsions:
REMARK  status: ('A' for Active; 'I' for Inactive)
REMARK    1  A    between atoms: C_1  and  C_2
REMARK    2  A    between atoms: C_2  and  C_3
REMARK    3  A    between atoms: C_3  and  C_4
REMARK    4  A    between atoms: C_4  and  C_6
REMARK    5  A    between atoms: C_4  and  O_30
REMARK    6  A    between atoms: C_6  and  N_7
REMARK    7  A    between atoms: N_7  and  C_8
REMARK    8  A    between atoms: N_7  and  C_14
REMARK    9  A    between atoms: C_8  and  C_9
REMARK   10  A    between atoms: C_14  and  C_15
REMARK                            x       y       z     vdW  Elec       q    Type
REMARK                         _______ _______ _______ _____ _____    ______ ____
ROOT
ATOM      1  C   UNL     1       1.434  -4.896  -3.694  0.00  0.00    -0.003 C 
ENDROOT
BRANCH   1   2
ATOM      2  C   UNL     1       1.268  -6.380  -3.492  0.00  0.00    +0.094 A 
ATOM      3  N   UNL     1       1.607  -7.231  -4.495  0.00  0.00    -0.312 N 
ATOM      4  H   UNL     1       1.951  -6.871  -5.327  0.00  0.00    +0.170 HD
ATOM      5  C   UNL     1       1.475  -8.563  -4.357  0.00  0.00    +0.260 A 
ATOM      6  O   UNL     1       1.784  -9.314  -5.266  0.00  0.00    -0.267 OA
ATOM      7  C   UNL     1       0.965  -9.085  -3.123  0.00  0.00    +0.075 A 
ATOM      8  C   UNL     1       0.738 -10.481  -2.752  0.00  0.00    -0.023 A 
ATOM      9  C   UNL     1       0.245 -10.713  -1.517  0.00  0.00    -0.004 A 
ATOM     10  S   UNL     1       0.058  -9.109  -0.787  0.00  0.00    -0.073 S 
ATOM     11  C   UNL     1       0.643  -8.129  -2.147  0.00  0.00    +0.116 A 
ATOM     12  N   UNL     1       0.806  -6.825  -2.355  0.00  0.00    -0.229 NA
ATOM     13  C   UNL     1      -0.074 -12.042  -0.902  0.00  0.00    +0.043 C 
ATOM     14  C   UNL     1      -0.110 -13.096  -2.018  0.00  0.00    +0.005 C 
ATOM     15  C   UNL     1       1.138 -12.929  -2.890  0.00  0.00    +0.005 C 
ATOM     16  C   UNL     1       1.036 -11.637  -3.702  0.00  0.00    +0.037 C 
ENDBRANCH   1   2
BRANCH   1  17
ATOM     17  N   UNL     1       1.011  -4.186  -2.479  0.00  0.00    +0.391 N 
ATOM     18  H   UNL     1       0.069  -4.457  -2.242  0.00  0.00    -0.080 HD
BRANCH  17  19
ATOM     19  C   UNL     1       1.059  -2.738  -2.716  0.00  0.00    -0.046 C 
BRANCH  19  20
ATOM     20  C   UNL     1       0.017  -2.358  -3.769  0.00  0.00    +0.098 C 
BRANCH  20  21
ATOM     21  O   UNL     1      -1.288  -2.688  -3.289  0.00  0.00    -0.394 OA
ATOM     22  H   UNL     1      -1.558  -2.186  -2.508  0.00  0.00    +0.210 HD
ENDBRANCH  20  21
BRANCH  20  23
ATOM     23  C   UNL     1       0.093  -0.855  -4.045  0.00  0.00    +0.029 C 
BRANCH  23  25
ATOM     24  C   UNL     1      -0.784   1.006  -5.462  0.00  0.00    +0.004 C 
ATOM     25  C   UNL     1      -0.861  -0.497  -5.186  0.00  0.00    -0.001 C 
ENDBRANCH  23  25
ENDBRANCH  20  23
ENDBRANCH  19  20
ENDBRANCH  17  19
BRANCH  17  26
ATOM     26  C   UNL     1       1.913  -4.532  -1.371  0.00  0.00    -0.002 C 
BRANCH  26  27
ATOM     27  C   UNL     1       1.397  -3.920  -0.094  0.00  0.00    +0.089 A 
ATOM     28  C   UNL     1       0.465  -4.455   0.714  0.00  0.00    +0.042 A 
ATOM     29  C   UNL     1       0.286  -3.553   1.787  0.00  0.00    +0.041 A 
ATOM     30  C   UNL     1       1.120  -2.520   1.571  0.00  0.00    +0.195 A 
ATOM     31  O   UNL     1       1.795  -2.751   0.433  0.00  0.00    -0.470 OA
ENDBRANCH  26  27
ENDBRANCH  17  26
ENDBRANCH   1  17
TORSDOF 9
