REMARK  Name = ZINC05735670
REMARK  8 active torsions:
REMARK  status: ('A' for Active; 'I' for Inactive)
REMARK    1  A    between atoms: C_1  and  C_2
REMARK    2  A    between atoms: C_2  and  C_4
REMARK    3  A    between atoms: C_2  and  O_11
REMARK    4  A    between atoms: N_9  and  C_10
REMARK    5  A    between atoms: O_11  and  C_12
REMARK    6  A    between atoms: C_12  and  C_14
REMARK    7  A    between atoms: C_17  and  S_20
REMARK    8  A    between atoms: S_20  and  N_23
REMARK                            x       y       z     vdW  Elec       q    Type
REMARK                         _______ _______ _______ _____ _____    ______ ____
ROOT
ATOM      1  C   UNL     1      -3.330  -1.222  -1.250  0.00  0.00    +0.059 A 
ATOM      2  C   UNL     1      -4.033  -1.498  -0.076  0.00  0.00    +0.017 A 
ATOM      3  C   UNL     1      -5.328  -1.969  -0.146  0.00  0.00    +0.029 A 
ATOM      4  C   UNL     1      -5.926  -2.179  -1.376  0.00  0.00    +0.106 A 
ATOM      5  C   UNL     1      -5.233  -1.913  -2.543  0.00  0.00    +0.029 A 
ATOM      6  C   UNL     1      -3.940  -1.436  -2.488  0.00  0.00    +0.017 A 
ENDROOT
BRANCH   4   7
ATOM      7  S   UNL     1      -7.578  -2.787  -1.455  0.00  0.00    +0.061 S 
ATOM      8  O   UNL     1      -8.198  -2.440  -0.225  0.00  0.00    -0.153 OA
ATOM      9  O   UNL     1      -8.100  -2.381  -2.713  0.00  0.00    -0.153 OA
BRANCH   7  10
ATOM     10  N   UNL     1      -7.490  -4.440  -1.491  0.00  0.00    -0.177 NA
ATOM     11  C   UNL     1      -7.409  -5.103  -2.774  0.00  0.00    +0.109 C 
ATOM     12  C   UNL     1      -8.828  -5.400  -3.302  0.00  0.00    +0.017 C 
ATOM     13  C   UNL     1      -9.451  -6.473  -2.513  0.00  0.00    +0.001 C 
ATOM     14  C   UNL     1      -9.659  -6.132  -1.041  0.00  0.00    +0.001 C 
ATOM     15  C   UNL     1      -8.394  -6.432  -0.275  0.00  0.00    +0.017 C 
ATOM     16  C   UNL     1      -7.503  -5.177  -0.212  0.00  0.00    +0.109 C 
ENDBRANCH   7  10
ENDBRANCH   4   7
BRANCH   1  17
ATOM     17  C   UNL     1      -1.945  -0.712  -1.183  0.00  0.00    +0.340 C 
ATOM     18  O   UNL     1      -1.334  -0.477  -2.207  0.00  0.00    -0.245 OA
BRANCH  17  19
ATOM     19  O   UNL     1      -1.360  -0.507   0.012  0.00  0.00    -0.449 OA
BRANCH  19  21
ATOM     20  C   UNL     1      -0.019   1.526   0.010  0.00  0.00    +0.062 C 
ATOM     21  C   UNL     1       0.002  -0.004   0.002  0.00  0.00    +0.259 C 
BRANCH  21  22
ATOM     22  C   UNL     1       0.731  -0.503   1.223  0.00  0.00    +0.261 C 
ATOM     23  O   UNL     1       0.135  -1.137   2.068  0.00  0.00    -0.271 OA
ATOM     24  N   UNL     1       2.045  -0.246   1.375  0.00  0.00    -0.237 N 
ATOM     25  C   UNL     1       2.697  -0.692   2.467  0.00  0.00    +0.306 C 
ATOM     26  O   UNL     1       2.100  -1.327   3.314  0.00  0.00    -0.252 OA
ATOM     27  N   UNL     1       4.011  -0.435   2.620  0.00  0.00    -0.302 N 
ATOM     28  C   UNL     1       4.720  -0.920   3.807  0.00  0.00    +0.129 C 
ATOM     29  H   UNL     1       2.522   0.261   0.699  0.00  0.00    +0.159 HD
ATOM     30  H   UNL     1       4.488   0.072   1.944  0.00  0.00    +0.150 HD
ENDBRANCH  21  22
ENDBRANCH  19  21
ENDBRANCH  17  19
ENDBRANCH   1  17
TORSDOF 6
