REMARK  Name = ZINC36542527
REMARK  15 active torsions:
REMARK  status: ('A' for Active; 'I' for Inactive)
REMARK    1  A    between atoms: C_1  and  C_2
REMARK    2  A    between atoms: C_2  and  C_3
REMARK    3  A    between atoms: C_3  and  C_4
REMARK    4  A    between atoms: C_4  and  C_5
REMARK    5  A    between atoms: C_5  and  C_7
REMARK    6  A    between atoms: C_5  and  C_9
REMARK    7  A    between atoms: C_7  and  C_8
REMARK    8  A    between atoms: N_11  and  C_12
REMARK    9  A    between atoms: N_11  and  C_19
REMARK   10  A    between atoms: C_19  and  C_21
REMARK   11  A    between atoms: C_19  and  C_30
REMARK   12  A    between atoms: C_22  and  O_29
REMARK   13  A    between atoms: C_24  and  O_28
REMARK   14  A    between atoms: C_26  and  O_27
REMARK   15  A    between atoms: N_32  and  C_33
REMARK                            x       y       z     vdW  Elec       q    Type
REMARK                         _______ _______ _______ _____ _____    ______ ____
ROOT
ATOM      1  C   UNL     1       2.171  -6.175   3.456  0.00  0.00    +0.204 C 
ENDROOT
BRANCH   1   2
ATOM      2  C   UNL     1       3.532  -6.647   3.899  0.00  0.00    +0.065 A 
ATOM      3  C   UNL     1       4.161  -6.038   4.974  0.00  0.00    +0.129 A 
ATOM      4  C   UNL     1       5.413  -6.472   5.381  0.00  0.00    +0.091 A 
ATOM      5  C   UNL     1       6.036  -7.517   4.714  0.00  0.00    +0.124 A 
ATOM      6  C   UNL     1       5.406  -8.127   3.640  0.00  0.00    +0.091 A 
ATOM      7  C   UNL     1       4.152  -7.695   3.235  0.00  0.00    +0.129 A 
BRANCH   7   8
ATOM      8  O   UNL     1       3.533  -8.296   2.186  0.00  0.00    -0.506 OA
ATOM      9  H   UNL     1       3.733  -7.895   1.329  0.00  0.00    +0.292 HD
ENDBRANCH   7   8
BRANCH   5  10
ATOM     10  O   UNL     1       7.263  -7.942   5.113  0.00  0.00    -0.507 OA
ATOM     11  H   UNL     1       7.240  -8.643   5.779  0.00  0.00    +0.292 HD
ENDBRANCH   5  10
BRANCH   3  12
ATOM     12  O   UNL     1       3.551  -5.014   5.628  0.00  0.00    -0.506 OA
ATOM     13  H   UNL     1       2.995  -5.296   6.367  0.00  0.00    +0.292 HD
ENDBRANCH   3  12
ENDBRANCH   1   2
BRANCH   1  14
ATOM     14  C   UNL     1       1.199  -6.297   4.602  0.00  0.00    +0.239 C 
ATOM     15  O   UNL     1       0.632  -5.311   5.023  0.00  0.00    -0.273 OA
ATOM     16  N   UNL     1       0.961  -7.501   5.158  0.00  0.00    -0.311 N 
ATOM     17  H   UNL     1       1.415  -8.290   4.821  0.00  0.00    +0.149 HD
BRANCH  16  18
ATOM     18  C   UNL     1       0.017  -7.620   6.272  0.00  0.00    +0.073 C 
ATOM     19  C   UNL     1       0.739  -7.319   7.587  0.00  0.00    +0.022 C 
ATOM     20  C   UNL     1      -0.248  -7.443   8.750  0.00  0.00    +0.002 C 
ATOM     21  C   UNL     1      -0.812  -8.865   8.791  0.00  0.00    +0.000 C 
ATOM     22  C   UNL     1      -1.533  -9.165   7.476  0.00  0.00    +0.002 C 
ATOM     23  C   UNL     1      -0.547  -9.042   6.313  0.00  0.00    +0.022 C 
ENDBRANCH  16  18
ENDBRANCH   1  14
BRANCH   1  26
ATOM     24  C   UNL     1       1.152  -4.140   2.584  0.00  0.00    +0.224 C 
ATOM     25  O   UNL     1       0.118  -4.755   2.430  0.00  0.00    -0.275 OA
ATOM     26  N   UNL     1       2.253  -4.775   3.033  0.00  0.00    -0.253 N 
BRANCH  26  27
ATOM     27  C   UNL     1       3.476  -4.096   3.095  0.00  0.00    +0.056 A 
ATOM     28  C   UNL     1       3.722  -3.197   4.124  0.00  0.00    +0.025 A 
ATOM     29  C   UNL     1       4.930  -2.530   4.183  0.00  0.00    +0.002 A 
ATOM     30  C   UNL     1       5.894  -2.755   3.217  0.00  0.00    +0.002 A 
ATOM     31  C   UNL     1       5.653  -3.649   2.190  0.00  0.00    +0.022 A 
ATOM     32  C   UNL     1       4.449  -4.325   2.129  0.00  0.00    +0.062 A 
ATOM     33 CL   UNL     1       4.150  -5.453   0.844  0.00  0.00    -0.082 Cl
ENDBRANCH  26  27
BRANCH  24  34
ATOM     34  C   UNL     1       1.206  -2.666   2.275  0.00  0.00    +0.075 C 
BRANCH  34  35
ATOM     35  C   UNL     1      -0.139  -2.023   2.621  0.00  0.00    +0.009 C 
ATOM     36  C   UNL     1      -0.362  -2.091   4.133  0.00  0.00    +0.004 C 
ENDBRANCH  34  35
BRANCH  34  37
ATOM     37  C   UNL     1       1.498  -2.468   0.786  0.00  0.00    +0.013 C 
BRANCH  37  38
ATOM     38  C   UNL     1       1.675  -0.977   0.495  0.00  0.00    +0.000 C 
BRANCH  38  40
ATOM     39  C   UNL     1       2.145   0.713  -1.285  0.00  0.00    +0.004 C 
ATOM     40  C   UNL     1       1.967  -0.779  -0.994  0.00  0.00    -0.003 C 
ENDBRANCH  38  40
ENDBRANCH  37  38
ENDBRANCH  34  37
ENDBRANCH  24  34
ENDBRANCH   1  26
TORSDOF 13
