REMARK  Name = ZINC04786519
REMARK  2 active torsions:
REMARK  status: ('A' for Active; 'I' for Inactive)
REMARK    1  A    between atoms: C_1  and  C_2
REMARK    2  A    between atoms: C_4  and  O_30
REMARK                            x       y       z     vdW  Elec       q    Type
REMARK                         _______ _______ _______ _____ _____    ______ ____
ROOT
ATOM      1  C   UNL     1      -0.983   3.074   1.185  0.00  0.00    +0.009 C 
ATOM      2  C   UNL     1      -0.695   1.575   1.292  0.00  0.00    +0.005 C 
ATOM      3  C   UNL     1      -1.988   0.788   1.061  0.00  0.00    +0.115 C 
ATOM      4  C   UNL     1      -2.108   0.493  -0.439  0.00  0.00    +0.020 C 
ATOM      5  C   UNL     1      -1.536   1.679  -1.227  0.00  0.00    -0.034 C 
ATOM      6  C   UNL     1      -1.945   1.534  -2.666  0.00  0.00    -0.020 A 
ATOM      7  C   UNL     1      -3.118   0.856  -2.960  0.00  0.00    +0.005 A 
ATOM      8  C   UNL     1      -3.538   0.722  -4.270  0.00  0.00    +0.000 A 
ATOM      9  C   UNL     1      -2.788   1.264  -5.298  0.00  0.00    +0.004 A 
ATOM     10  C   UNL     1      -1.614   1.936  -5.010  0.00  0.00    +0.046 A 
ATOM     11  C   UNL     1      -1.190   2.073  -3.696  0.00  0.00    +0.122 A 
ATOM     12  O   UNL     1      -0.031   2.741  -3.441  0.00  0.00    -0.489 OA
ATOM     13  C   UNL     1       0.567   3.423  -4.544  0.00  0.00    +0.257 C 
ATOM     14  C   UNL     1       1.730   2.596  -5.095  0.00  0.00    +0.201 C 
ATOM     15  O   UNL     1       2.959   3.206  -4.693  0.00  0.00    -0.373 OA
ATOM     16  C   UNL     1       3.523   2.660  -3.497  0.00  0.00    +0.201 C 
ATOM     17  C   UNL     1       3.002   3.452  -2.293  0.00  0.00    +0.257 C 
ATOM     18  O   UNL     1       2.131   2.626  -1.514  0.00  0.00    -0.489 OA
ATOM     19  C   UNL     1       2.506   2.389  -0.231  0.00  0.00    +0.122 A 
ATOM     20  C   UNL     1       3.747   2.842   0.204  0.00  0.00    +0.046 A 
ATOM     21  C   UNL     1       4.160   2.615   1.503  0.00  0.00    +0.004 A 
ATOM     22  C   UNL     1       3.338   1.912   2.369  0.00  0.00    +0.000 A 
ATOM     23  C   UNL     1       2.106   1.461   1.942  0.00  0.00    +0.005 A 
ATOM     24  C   UNL     1       1.682   1.700   0.646  0.00  0.00    -0.019 A 
ATOM     25  C   UNL     1       0.334   1.175   0.230  0.00  0.00    -0.031 C 
ATOM     26  N   UNL     1      -0.069   1.707  -1.085  0.00  0.00    +0.389 N 
ATOM     27  H   UNL     1       0.261   2.676  -1.172  0.00  0.00    -0.084 HD
ATOM     28  H   UNL     1       0.353   1.134  -1.825  0.00  0.00    -0.084 HD
ENDROOT
BRANCH   3  29
ATOM     29  O   UNL     1      -3.108   1.563   1.491  0.00  0.00    -0.392 OA
ATOM     30  H   UNL     1      -3.962   1.131   1.356  0.00  0.00    +0.210 HD
ENDBRANCH   3  29
TORSDOF 1
