REMARK  Name = ZINC10765217
REMARK  7 active torsions:
REMARK  status: ('A' for Active; 'I' for Inactive)
REMARK    1  A    between atoms: C_1  and  C_2
REMARK    2  A    between atoms: C_2  and  C_3
REMARK    3  A    between atoms: N_12  and  C_13
REMARK    4  A    between atoms: C_13  and  C_14
REMARK    5  A    between atoms: C_20  and  C_22
REMARK    6  A    between atoms: N_27  and  S_29
REMARK    7  A    between atoms: S_29  and  C_32
REMARK                            x       y       z     vdW  Elec       q    Type
REMARK                         _______ _______ _______ _____ _____    ______ ____
ROOT
ATOM      1  C   UNL     1       3.489   2.869   2.356  0.00  0.00    -0.046 A 
ATOM      2  C   UNL     1       2.302   3.479   2.735  0.00  0.00    +0.006 A 
ATOM      3  C   UNL     1       1.085   2.907   2.469  0.00  0.00    +0.029 A 
ATOM      4  C   UNL     1       1.002   1.667   1.794  0.00  0.00    +0.080 A 
ATOM      5  C   UNL     1       2.231   1.074   1.424  0.00  0.00    +0.041 A 
ATOM      6  C   UNL     1       3.445   1.655   1.695  0.00  0.00    +0.021 A 
ATOM      7  S   UNL     1       1.703  -0.423   0.625  0.00  0.00    -0.052 S 
ATOM      8  C   UNL     1      -0.056  -0.176   0.827  0.00  0.00    +0.168 A 
ATOM      9  N   UNL     1      -0.107   0.973   1.458  0.00  0.00    -0.224 NA
ATOM     10  N   UNL     1      -1.099  -0.992   0.420  0.00  0.00    -0.248 N 
ATOM     11  C   UNL     1      -0.841  -2.211  -0.094  0.00  0.00    +0.226 C 
ATOM     12  O   UNL     1      -1.745  -2.883  -0.543  0.00  0.00    -0.275 OA
ENDROOT
BRANCH  11  13
ATOM     13  C   UNL     1       0.570  -2.739  -0.110  0.00  0.00    +0.091 C 
ATOM     14  C   UNL     1       1.286  -2.244  -1.369  0.00  0.00    +0.015 C 
ATOM     15  C   UNL     1       2.730  -2.752  -1.369  0.00  0.00    +0.018 C 
ATOM     16  C   UNL     1       2.727  -4.284  -1.385  0.00  0.00    +0.109 C 
ATOM     17  N   UNL     1       1.918  -4.767  -0.258  0.00  0.00    -0.175 NA
ATOM     18  C   UNL     1       0.543  -4.270  -0.110  0.00  0.00    +0.122 C 
BRANCH  17  19
ATOM     19  S   UNL     1       2.544  -5.851   0.827  0.00  0.00    +0.067 S 
ATOM     20  O   UNL     1       1.438  -6.527   1.409  0.00  0.00    -0.152 OA
ATOM     21  O   UNL     1       3.589  -6.540   0.155  0.00  0.00    -0.152 OA
BRANCH  19  22
ATOM     22  C   UNL     1       3.302  -4.920   2.116  0.00  0.00    +0.143 A 
ATOM     23  C   UNL     1       2.758  -4.458   3.268  0.00  0.00    +0.036 A 
ATOM     24  C   UNL     1       3.553  -3.744   4.146  0.00  0.00    +0.010 A 
ATOM     25  C   UNL     1       4.849  -3.518   3.822  0.00  0.00    +0.047 A 
ATOM     26  S   UNL     1       4.983  -4.332   2.240  0.00  0.00    -0.077 S 
ENDBRANCH  19  22
ENDBRANCH  17  19
ENDBRANCH  11  13
BRANCH   1  28
ATOM     27  C   UNL     1       5.309   3.052   4.029  0.00  0.00    +0.009 C 
ATOM     28  C   UNL     1       4.812   3.522   2.661  0.00  0.00    +0.032 C 
ENDBRANCH   1  28
BRANCH  10  29
ATOM     29  C   UNL     1      -2.483  -0.529   0.549  0.00  0.00    +0.147 C 
BRANCH  29  30
ATOM     30  C   UNL     1      -2.935   0.102  -0.770  0.00  0.00    +0.136 C 
ATOM     31  C   UNL     1      -4.390   0.592  -0.644  0.00  0.00    +0.035 C 
ATOM     32  C   UNL     1      -4.308   2.107  -0.952  0.00  0.00    +0.031 C 
ATOM     33  C   UNL     1      -2.972   2.208  -1.731  0.00  0.00    +0.160 C 
ATOM     34  O   UNL     1      -2.121   1.249  -1.066  0.00  0.00    -0.375 OA
ENDBRANCH  29  30
ENDBRANCH  10  29
TORSDOF 6
