REMARK  Name = ZINC12414311
REMARK  4 active torsions:
REMARK  status: ('A' for Active; 'I' for Inactive)
REMARK    1  A    between atoms: C_1  and  C_2
REMARK    2  A    between atoms: C_11  and  C_14
REMARK    3  A    between atoms: C_14  and  C_15
REMARK    4  A    between atoms: N_17  and  N_18
REMARK                            x       y       z     vdW  Elec       q    Type
REMARK                         _______ _______ _______ _____ _____    ______ ____
ROOT
ATOM      1  C   UNL     1      -2.848  -2.593   0.015  0.00  0.00    +0.104 C 
ENDROOT
BRANCH   1  10
ATOM      2  C   UNL     1      -0.019   1.526   0.010  0.00  0.00    +0.011 C 
ATOM      3  C   UNL     1       0.002  -0.004   0.002  0.00  0.00    -0.031 C 
ATOM      4  C   UNL     1       0.718  -0.497  -1.257  0.00  0.00    +0.010 C 
ATOM      5  C   UNL     1       0.739  -2.027  -1.265  0.00  0.00    -0.010 C 
ATOM      6  C   UNL     1       1.479  -2.534  -0.026  0.00  0.00    +0.007 C 
ATOM      7  C   UNL     1       0.763  -2.041   1.233  0.00  0.00    -0.010 C 
ATOM      8  C   UNL     1       0.742  -0.511   1.242  0.00  0.00    +0.010 C 
ATOM      9  C   UNL     1      -0.673  -2.570   1.244  0.00  0.00    +0.011 C 
ATOM     10  C   UNL     1      -1.413  -2.063   0.004  0.00  0.00    -0.020 C 
ATOM     11  C   UNL     1      -0.696  -2.557  -1.254  0.00  0.00    +0.011 C 
ATOM     12  C   UNL     1      -1.433  -0.534   0.013  0.00  0.00    +0.014 C 
ENDBRANCH   1  10
BRANCH   1  13
ATOM     13  C   UNL     1      -2.828  -4.100   0.007  0.00  0.00    +0.230 C 
ATOM     14  O   UNL     1      -1.769  -4.692  -0.006  0.00  0.00    -0.274 OA
ATOM     15  N   UNL     1      -3.985  -4.790   0.014  0.00  0.00    -0.233 N 
ATOM     16  H   UNL     1      -4.832  -4.316   0.025  0.00  0.00    +0.173 HD
BRANCH  15  17
ATOM     17  N   UNL     1      -3.966  -6.191   0.007  0.00  0.00    -0.218 N 
ATOM     18  C   UNL     1      -5.124  -6.880   0.014  0.00  0.00    +0.313 C 
ATOM     19  O   UNL     1      -5.108  -8.096   0.007  0.00  0.00    -0.252 OA
ATOM     20  N   UNL     1      -6.301  -6.222   0.029  0.00  0.00    -0.312 N 
ATOM     21  H   UNL     1      -3.120  -6.664  -0.004  0.00  0.00    +0.174 HD
ATOM     22  H   UNL     1      -6.314  -5.252   0.034  0.00  0.00    +0.147 HD
ATOM     23  H   UNL     1      -7.134  -6.719   0.034  0.00  0.00    +0.147 HD
ENDBRANCH  15  17
ENDBRANCH   1  13
TORSDOF 3
