REMARK  Name = ZINC40819429
REMARK  7 active torsions:
REMARK  status: ('A' for Active; 'I' for Inactive)
REMARK    1  A    between atoms: C_1  and  C_2
REMARK    2  A    between atoms: C_2  and  C_3
REMARK    3  A    between atoms: C_2  and  C_4
REMARK    4  A    between atoms: C_4  and  C_5
REMARK    5  A    between atoms: C_5  and  C_7
REMARK    6  A    between atoms: C_5  and  N_19
REMARK    7  A    between atoms: C_20  and  C_22
REMARK                            x       y       z     vdW  Elec       q    Type
REMARK                         _______ _______ _______ _____ _____    ______ ____
ROOT
ATOM      1  C   UNL     1      -1.229  -1.976  -0.242  0.00  0.00    +0.140 C 
ENDROOT
BRANCH   1   2
ATOM      2  C   UNL     1      -2.578  -2.512  -0.648  0.00  0.00    +0.131 A 
ATOM      3  N   UNL     1      -3.325  -3.152   0.289  0.00  0.00    -0.309 N 
ATOM      4  H   UNL     1      -2.982  -3.253   1.191  0.00  0.00    +0.170 HD
ATOM      5  C   UNL     1      -4.543  -3.651  -0.025  0.00  0.00    +0.259 A 
ATOM      6  O   UNL     1      -5.224  -4.227   0.804  0.00  0.00    -0.267 OA
ATOM      7  C   UNL     1      -5.013  -3.471  -1.406  0.00  0.00    +0.065 A 
ATOM      8  C   UNL     1      -6.252  -3.947  -1.832  0.00  0.00    +0.015 A 
ATOM      9  C   UNL     1      -6.642  -3.751  -3.138  0.00  0.00    +0.001 A 
ATOM     10  C   UNL     1      -5.813  -3.084  -4.031  0.00  0.00    +0.002 A 
ATOM     11  C   UNL     1      -4.585  -2.606  -3.631  0.00  0.00    +0.028 A 
ATOM     12  C   UNL     1      -4.167  -2.792  -2.311  0.00  0.00    +0.078 A 
ATOM     13  N   UNL     1      -2.968  -2.333  -1.873  0.00  0.00    -0.232 NA
ENDBRANCH   1   2
BRANCH   1  14
ATOM     14  N   UNL     1      -0.710  -2.760   0.882  0.00  0.00    -0.301 N 
ATOM     15  C   UNL     1       0.025  -3.865   0.650  0.00  0.00    +0.249 C 
ATOM     16  O   UNL     1       0.334  -4.162  -0.488  0.00  0.00    -0.270 OA
ATOM     17  H   UNL     1      -0.895  -2.482   1.793  0.00  0.00    +0.150 HD
BRANCH  15  18
ATOM     18  C   UNL     1       0.455  -4.715   1.778  0.00  0.00    +0.090 A 
ATOM     19  C   UNL     1      -0.299  -5.837   2.140  0.00  0.00    +0.137 A 
ATOM     20  C   UNL     1       0.111  -6.627   3.197  0.00  0.00    +0.039 A 
ATOM     21  C   UNL     1       1.262  -6.312   3.895  0.00  0.00    +0.004 A 
ATOM     22  C   UNL     1       2.013  -5.205   3.542  0.00  0.00    +0.021 A 
ATOM     23  C   UNL     1       1.620  -4.408   2.485  0.00  0.00    +0.056 A 
ATOM     24 CL   UNL     1       2.569  -3.023   2.040  0.00  0.00    -0.083 Cl
ATOM     25  F   UNL     1      -1.424  -6.145   1.460  0.00  0.00    -0.205 F 
ENDBRANCH  15  18
ENDBRANCH   1  14
BRANCH   1  26
ATOM     26  C   UNL     1      -1.367  -0.511   0.178  0.00  0.00    +0.033 C 
BRANCH  26  28
ATOM     27  C   UNL     1      -2.090   1.760  -0.572  0.00  0.00    +0.007 C 
ATOM     28  C   UNL     1      -1.814   0.324  -1.023  0.00  0.00    -0.015 C 
ATOM     29  C   UNL     1      -0.709   0.326  -2.082  0.00  0.00    +0.007 C 
ENDBRANCH  26  28
ENDBRANCH   1  26
TORSDOF 5
