REMARK  Name = ZINC11369637
REMARK  5 active torsions:
REMARK  status: ('A' for Active; 'I' for Inactive)
REMARK    1  A    between atoms: N_13  and  C_17
REMARK    2  A    between atoms: C_17  and  C_18
REMARK    3  A    between atoms: N_20  and  C_21
REMARK    4  A    between atoms: C_26  and  S_27
REMARK    5  A    between atoms: S_27  and  C_28
REMARK                            x       y       z     vdW  Elec       q    Type
REMARK                         _______ _______ _______ _____ _____    ______ ____
ROOT
ATOM      1  C   UNL     1      -0.007   1.371   0.025  0.00  0.00    +0.000 A 
ATOM      2  C   UNL     1       1.181   2.079   0.011  0.00  0.00    +0.000 A 
ATOM      3  C   UNL     1       2.382   1.401  -0.004  0.00  0.00    +0.006 A 
ATOM      4  C   UNL     1       2.409   0.013  -0.005  0.00  0.00    -0.012 A 
ATOM      5  C   UNL     1       1.226  -0.692   0.014  0.00  0.00    -0.042 A 
ATOM      6  C   UNL     1       0.018  -0.008   0.026  0.00  0.00    +0.004 A 
ATOM      7  C   UNL     1       1.182  -2.198   0.031  0.00  0.00    +0.035 C 
ATOM      8  C   UNL     1       2.517  -2.782  -0.428  0.00  0.00    +0.008 C 
ATOM      9  C   UNL     1       3.640  -2.129   0.387  0.00  0.00    +0.040 C 
ATOM     10  C   UNL     1       3.749  -0.667  -0.030  0.00  0.00    +0.138 C 
ATOM     11  C   UNL     1       4.363  -0.560  -1.408  0.00  0.00    +0.251 C 
ATOM     12  O   UNL     1       3.921  -1.006  -2.445  0.00  0.00    -0.272 OA
ATOM     13  N   UNL     1       5.507   0.136  -1.240  0.00  0.00    -0.215 N 
ATOM     14  C   UNL     1       5.693   0.477   0.040  0.00  0.00    +0.310 C 
ATOM     15  O   UNL     1       6.652   1.108   0.439  0.00  0.00    -0.252 OA
ATOM     16  N   UNL     1       4.698   0.043   0.838  0.00  0.00    -0.281 N 
ATOM     17  H   UNL     1       4.623   0.175   1.796  0.00  0.00    +0.152 HD
ENDROOT
BRANCH  13  18
ATOM     18  C   UNL     1       6.430   0.475  -2.325  0.00  0.00    +0.214 C 
BRANCH  18  19
ATOM     19  C   UNL     1       6.041   1.804  -2.919  0.00  0.00    +0.235 C 
ATOM     20  O   UNL     1       5.086   2.409  -2.479  0.00  0.00    -0.274 OA
ATOM     21  N   UNL     1       6.754   2.322  -3.939  0.00  0.00    -0.283 N 
ATOM     22  H   UNL     1       7.556   1.871  -4.248  0.00  0.00    +0.155 HD
BRANCH  21  23
ATOM     23  C   UNL     1       6.338   3.511  -4.553  0.00  0.00    +0.047 A 
ATOM     24  C   UNL     1       5.734   4.507  -3.801  0.00  0.00    +0.024 A 
ATOM     25  C   UNL     1       5.324   5.679  -4.409  0.00  0.00    +0.002 A 
ATOM     26  C   UNL     1       5.515   5.863  -5.766  0.00  0.00    +0.001 A 
ATOM     27  C   UNL     1       6.117   4.877  -6.523  0.00  0.00    +0.017 A 
ATOM     28  C   UNL     1       6.537   3.699  -5.921  0.00  0.00    +0.034 A 
BRANCH  28  29
ATOM     29  S   UNL     1       7.311   2.441  -6.882  0.00  0.00    -0.054 S 
BRANCH  29  30
ATOM     30  C   UNL     1       7.344   3.130  -8.560  0.00  0.00    +0.404 C 
ATOM     31  F   UNL     1       6.037   3.388  -8.985  0.00  0.00    -0.197 F 
ATOM     32  F   UNL     1       8.078   4.321  -8.561  0.00  0.00    -0.197 F 
ENDBRANCH  29  30
ENDBRANCH  28  29
ENDBRANCH  21  23
ENDBRANCH  18  19
ENDBRANCH  13  18
TORSDOF 5
