REMARK  Name = ZINC64349183
REMARK  3 active torsions:
REMARK  status: ('A' for Active; 'I' for Inactive)
REMARK    1  A    between atoms: C_1  and  C_2
REMARK    2  A    between atoms: C_2  and  N_3
REMARK    3  A    between atoms: C_6  and  C_12
REMARK                            x       y       z     vdW  Elec       q    Type
REMARK                         _______ _______ _______ _____ _____    ______ ____
ROOT
ATOM      1  C   UNL     1      -4.021  -1.498   2.493  0.00  0.00    -0.003 C 
ATOM      2  C   UNL     1      -4.101  -0.208   3.312  0.00  0.00    +0.097 C 
ATOM      3  C   UNL     1      -2.664   0.155   3.673  0.00  0.00    -0.041 C 
ATOM      4  C   UNL     1      -2.481   1.404   3.270  0.00  0.00    -0.001 A 
ATOM      5  C   UNL     1      -1.344   2.327   3.417  0.00  0.00    +0.010 A 
ATOM      6  C   UNL     1      -1.492   3.556   2.858  0.00  0.00    +0.001 A 
ATOM      7  C   UNL     1      -2.645   3.956   2.174  0.00  0.00    +0.002 A 
ATOM      8  C   UNL     1      -3.741   3.176   1.997  0.00  0.00    +0.026 A 
ATOM      9  C   UNL     1      -3.706   1.861   2.546  0.00  0.00    +0.043 A 
ATOM     10  N   UNL     1      -4.628   0.918   2.544  0.00  0.00    -0.379 N 
ATOM     11  C   UNL     1      -1.722  -0.861   4.273  0.00  0.00    +0.014 C 
ATOM     12  C   UNL     1      -1.860  -2.131   3.414  0.00  0.00    -0.077 C 
ATOM     13  N   UNL     1      -3.272  -2.497   3.271  0.00  0.00    +0.386 N 
ATOM     14  H   UNL     1      -3.685  -2.576   4.188  0.00  0.00    -0.085 HD
ATOM     15  H   UNL     1      -5.496   0.954   2.112  0.00  0.00    +0.160 HD
ATOM     16  H   UNL     1      -3.335  -3.390   2.806  0.00  0.00    -0.085 HD
ENDROOT
BRANCH   1  20
ATOM     17  N   UNL     1      -3.271  -1.298  -1.187  0.00  0.00    -0.289 N 
ATOM     18  C   UNL     1      -3.923  -1.546  -0.034  0.00  0.00    +0.260 A 
ATOM     19  O   UNL     1      -5.037  -2.041  -0.054  0.00  0.00    -0.267 OA
ATOM     20  C   UNL     1      -3.310  -1.231   1.192  0.00  0.00    +0.070 A 
ATOM     21  C   UNL     1      -2.063  -0.679   1.186  0.00  0.00    +0.257 A 
ATOM     22  N   UNL     1      -1.435  -0.443  -0.010  0.00  0.00    -0.302 N 
ATOM     23  C   UNL     1      -2.038  -0.758  -1.171  0.00  0.00    +0.163 A 
ATOM     24  S   UNL     1      -1.229  -0.460  -2.650  0.00  0.00    -0.013 S 
ATOM     25  O   UNL     1      -1.452  -0.366   2.349  0.00  0.00    -0.267 OA
ATOM     26  H   UNL     1      -0.548  -0.050  -0.019  0.00  0.00    +0.171 HD
BRANCH  17  28
ATOM     27  C   UNL     1      -3.547  -3.059  -2.861  0.00  0.00    +0.027 C 
ATOM     28  C   UNL     1      -3.905  -1.625  -2.466  0.00  0.00    +0.124 C 
ENDBRANCH  17  28
ENDBRANCH   1  20
TORSDOF 2
