REMARK  Name = ZINC09328762
REMARK  17 active torsions:
REMARK  status: ('A' for Active; 'I' for Inactive)
REMARK    1  A    between atoms: C_1  and  C_2
REMARK    2  A    between atoms: C_2  and  N_69
REMARK    3  A    between atoms: C_3  and  C_4
REMARK    4  A    between atoms: C_3  and  N_69
REMARK    5  A    between atoms: C_5  and  C_6
REMARK    6  A    between atoms: C_5  and  N_69
REMARK    7  A    between atoms: C_6  and  N_7
REMARK    8  A    between atoms: C_8  and  C_27
REMARK    9  A    between atoms: C_11  and  C_12
REMARK   10  A    between atoms: C_11  and  O_22
REMARK   11  A    between atoms: C_15  and  O_18
REMARK   12  A    between atoms: O_18  and  C_19
REMARK   13  A    between atoms: C_19  and  C_20
REMARK   14  A    between atoms: C_19  and  C_21
REMARK   15  A    between atoms: C_30  and  O_35
REMARK   16  A    between atoms: C_31  and  O_33
REMARK   17  A    between atoms: O_33  and  C_34
REMARK                            x       y       z     vdW  Elec       q    Type
REMARK                         _______ _______ _______ _____ _____    ______ ____
ROOT
ATOM      1  N   UNL     1       0.097  -0.669  -2.076  0.00  0.00    -0.285 N 
ATOM      2  C   UNL     1      -0.519  -0.327  -3.362  0.00  0.00    +0.144 C 
ATOM      3  C   UNL     1       0.550  -0.505  -4.415  0.00  0.00    +0.071 C 
ATOM      4  C   UNL     1       0.420  -0.293  -5.774  0.00  0.00    +0.133 C 
ATOM      5  C   UNL     1       1.699  -0.935  -3.735  0.00  0.00    +0.249 C 
ATOM      6  O   UNL     1       2.775  -1.192  -4.244  0.00  0.00    -0.282 OA
ATOM      7  C   UNL     1       1.375  -1.024  -2.286  0.00  0.00    +0.288 C 
ATOM      8  O   UNL     1       2.153  -1.367  -1.419  0.00  0.00    -0.266 OA
ENDROOT
BRANCH   4   9
ATOM      9  C   UNL     1       1.592  -0.418  -6.653  0.00  0.00    +0.017 A 
ATOM     10  C   UNL     1       2.785   0.240  -6.332  0.00  0.00    +0.015 A 
ATOM     11  C   UNL     1       3.881   0.115  -7.154  0.00  0.00    +0.046 A 
ATOM     12  C   UNL     1       3.801  -0.655  -8.310  0.00  0.00    +0.121 A 
ATOM     13  C   UNL     1       2.617  -1.307  -8.637  0.00  0.00    +0.046 A 
ATOM     14  C   UNL     1       1.517  -1.192  -7.818  0.00  0.00    +0.015 A 
BRANCH  12  15
ATOM     15  O   UNL     1       4.883  -0.771  -9.121  0.00  0.00    -0.489 OA
BRANCH  15  16
ATOM     16  C   UNL     1       6.027   0.021  -8.795  0.00  0.00    +0.167 C 
ATOM     17  C   UNL     1       6.922  -0.752  -7.824  0.00  0.00    +0.051 C 
ATOM     18  C   UNL     1       6.810   0.336 -10.071  0.00  0.00    +0.051 C 
ENDBRANCH  15  16
ENDBRANCH  12  15
ENDBRANCH   4   9
BRANCH   2  19
ATOM     19  C   UNL     1      -1.680  -1.247  -3.639  0.00  0.00    -0.019 A 
ATOM     20  C   UNL     1      -1.584  -2.591  -3.329  0.00  0.00    +0.009 A 
ATOM     21  C   UNL     1      -2.646  -3.440  -3.581  0.00  0.00    +0.049 A 
ATOM     22  C   UNL     1      -3.809  -2.944  -4.146  0.00  0.00    +0.158 A 
ATOM     23  C   UNL     1      -3.906  -1.591  -4.459  0.00  0.00    +0.162 A 
ATOM     24  C   UNL     1      -2.840  -0.745  -4.198  0.00  0.00    +0.055 A 
BRANCH  23  25
ATOM     25  O   UNL     1      -5.046  -1.100  -5.013  0.00  0.00    -0.491 OA
ATOM     26  C   UNL     1      -5.074   0.298  -5.308  0.00  0.00    +0.277 C 
ENDBRANCH  23  25
BRANCH  22  27
ATOM     27  O   UNL     1      -4.855  -3.777  -4.394  0.00  0.00    -0.503 OA
ATOM     28  H   UNL     1      -5.479  -3.855  -3.660  0.00  0.00    +0.292 HD
ENDBRANCH  22  27
ENDBRANCH   2  19
BRANCH   4  29
ATOM     29  O   UNL     1      -0.783   0.030  -6.295  0.00  0.00    -0.506 OA
ATOM     30  H   UNL     1      -0.698   0.147  -7.284  0.00  0.00    +0.292 HD
ENDBRANCH   4  29
BRANCH   1  31
ATOM     31  C   UNL     1      -0.575  -0.634  -0.775  0.00  0.00    +0.090 C 
BRANCH  31  32
ATOM     32  C   UNL     1      -0.400   0.749  -0.146  0.00  0.00    -0.060 C 
BRANCH  32  33
ATOM     33  N   UNL     1      -1.100   0.774   1.155  0.00  0.00    +0.380 N 
ATOM     34  H   UNL     1      -2.064   0.447   1.021  0.00  0.00    -0.082 HD
BRANCH  33  36
ATOM     35  C   UNL     1       0.996   0.389   2.408  0.00  0.00    -0.017 C 
ATOM     36  C   UNL     1      -0.417  -0.120   2.113  0.00  0.00    -0.082 C 
ENDBRANCH  33  36
BRANCH  33  37
ATOM     37  C   UNL     1      -1.131   2.154   1.685  0.00  0.00    -0.082 C 
ATOM     38  C   UNL     1      -2.133   2.214   2.840  0.00  0.00    -0.017 C 
ENDBRANCH  33  37
ENDBRANCH  32  33
ENDBRANCH  31  32
ENDBRANCH   1  31
TORSDOF 12
