REMARK  Name = ZINC39188347
REMARK  5 active torsions:
REMARK  status: ('A' for Active; 'I' for Inactive)
REMARK    1  A    between atoms: C_7  and  C_10
REMARK    2  A    between atoms: N_11  and  N_12
REMARK    3  A    between atoms: C_20  and  S_22
REMARK    4  A    between atoms: S_22  and  C_23
REMARK    5  A    between atoms: C_23  and  C_24
REMARK                            x       y       z     vdW  Elec       q    Type
REMARK                         _______ _______ _______ _____ _____    ______ ____
ROOT
ATOM      1  N   UNL     1       0.329  -5.354  -0.032  0.00  0.00    -0.175 N 
ATOM      2  C   UNL     1      -1.054  -5.301  -0.025  0.00  0.00    +0.229 C 
ATOM      3  N   UNL     1      -1.582  -6.462  -0.226  0.00  0.00    -0.170 NA
ATOM      4  N   UNL     1      -0.604  -7.418  -0.455  0.00  0.00    -0.190 N 
ATOM      5  C   UNL     1       0.676  -6.777  -0.044  0.00  0.00    +0.290 C 
ATOM      6  N   UNL     1       1.573  -7.143  -1.159  0.00  0.00    -0.216 NA
ATOM      7  N   UNL     1       1.207  -8.537  -1.457  0.00  0.00    -0.223 NA
ATOM      8  C   UNL     1      -0.178  -8.725  -0.963  0.00  0.00    +0.236 C 
ATOM      9  H   UNL     1       2.541  -7.074  -0.882  0.00  0.00    +0.144 HD
ATOM     10  H   UNL     1       1.837  -9.181  -1.002  0.00  0.00    +0.144 HD
ENDROOT
BRANCH   1  12
ATOM     11  C   UNL     1       0.680  -3.126  -0.022  0.00  0.00    +0.136 C 
ATOM     12  N   UNL     1       1.145  -4.356  -0.034  0.00  0.00    -0.184 NA
BRANCH  11  19
ATOM     13  C   UNL     1      -0.016   1.355   0.009  0.00  0.00    +0.001 A 
ATOM     14  C   UNL     1       1.163   2.101   0.002  0.00  0.00    +0.002 A 
ATOM     15  C   UNL     1       2.384   1.510  -0.013  0.00  0.00    +0.026 A 
ATOM     16  C   UNL     1       2.482   0.095  -0.022  0.00  0.00    +0.043 A 
ATOM     17  N   UNL     1       3.529  -0.707  -0.037  0.00  0.00    -0.380 N 
ATOM     18  C   UNL     1       3.074  -2.101  -0.040  0.00  0.00    +0.150 C 
ATOM     19  C   UNL     1       1.562  -2.047  -0.025  0.00  0.00    +0.000 C 
ATOM     20  C   UNL     1       1.235  -0.687  -0.013  0.00  0.00    +0.004 A 
ATOM     21  C   UNL     1       0.002  -0.004   0.002  0.00  0.00    +0.010 A 
ATOM     22  H   UNL     1       4.456  -0.420  -0.045  0.00  0.00    +0.160 HD
ENDBRANCH  11  19
ENDBRANCH   1  12
BRANCH   8  23
ATOM     23  S   UNL     1      -1.248  -9.241  -2.334  0.00  0.00    -0.116 S 
BRANCH  23  24
ATOM     24  C   UNL     1      -1.036  -7.934  -3.573  0.00  0.00    +0.107 C 
BRANCH  24  25
ATOM     25  C   UNL     1      -1.882  -8.244  -4.781  0.00  0.00    -0.036 A 
ATOM     26  C   UNL     1      -1.360  -8.997  -5.816  0.00  0.00    +0.004 A 
ATOM     27  C   UNL     1      -2.136  -9.282  -6.924  0.00  0.00    +0.001 A 
ATOM     28  C   UNL     1      -3.434  -8.813  -6.998  0.00  0.00    +0.015 A 
ATOM     29  C   UNL     1      -3.957  -8.060  -5.963  0.00  0.00    +0.018 A 
ATOM     30  C   UNL     1      -3.182  -7.779  -4.851  0.00  0.00    +0.019 A 
ATOM     31 BR   UNL     1      -5.733  -7.418  -6.063  0.00  0.00    -0.050 Br
ENDBRANCH  24  25
ENDBRANCH  23  24
ENDBRANCH   8  23
TORSDOF 5
