REMARK  Name = ZINC24764456
REMARK  6 active torsions:
REMARK  status: ('A' for Active; 'I' for Inactive)
REMARK    1  A    between atoms: C_4  and  C_7
REMARK    2  A    between atoms: C_8  and  C_9
REMARK    3  A    between atoms: C_9  and  N_10
REMARK    4  A    between atoms: N_13  and  C_16
REMARK    5  A    between atoms: C_16  and  C_17
REMARK    6  A    between atoms: N_19  and  C_20
REMARK                            x       y       z     vdW  Elec       q    Type
REMARK                         _______ _______ _______ _____ _____    ______ ____
ROOT
ATOM      1  N   UNL     1      -0.710   1.603  -1.192  0.00  0.00    -0.302 NA
ATOM      2  C   UNL     1      -0.005   1.107  -0.002  0.00  0.00    +0.066 C 
ATOM      3  C   UNL     1      -0.725   1.598   1.257  0.00  0.00    -0.063 C 
ATOM      4  N   UNL     1      -0.772   3.067   1.250  0.00  0.00    +0.387 N 
ATOM      5  C   UNL     1      -1.477   3.563   0.060  0.00  0.00    -0.063 C 
ATOM      6  C   UNL     1      -0.756   3.072  -1.198  0.00  0.00    +0.066 C 
ATOM      7  H   UNL     1       0.262   3.439   1.212  0.00  0.00    -0.081 HD
ENDROOT
BRANCH   1   8
ATOM      8  C   UNL     1      -0.092   1.091  -2.422  0.00  0.00    +0.111 C 
BRANCH   8  10
ATOM      9  C   UNL     1      -0.482   2.078  -4.635  0.00  0.00    +0.005 C 
ATOM     10  C   UNL     1      -0.975   1.413  -3.600  0.00  0.00    -0.011 C 
BRANCH   9  14
ATOM     11  C   UNL     1      -2.971   2.986  -7.955  0.00  0.00    +0.000 A 
ATOM     12  C   UNL     1      -1.647   3.386  -7.957  0.00  0.00    +0.001 A 
ATOM     13  C   UNL     1      -0.833   3.095  -6.881  0.00  0.00    +0.008 A 
ATOM     14  C   UNL     1      -1.349   2.394  -5.790  0.00  0.00    -0.025 A 
ATOM     15  C   UNL     1      -2.683   1.988  -5.797  0.00  0.00    +0.008 A 
ATOM     16  C   UNL     1      -3.488   2.291  -6.876  0.00  0.00    +0.001 A 
ENDBRANCH   9  14
ENDBRANCH   8  10
ENDBRANCH   1   8
BRANCH   4  17
ATOM     17  C   UNL     1      -1.390   3.579   2.480  0.00  0.00    +0.019 C 
BRANCH  17  18
ATOM     18  C   UNL     1      -0.507   3.257   3.658  0.00  0.00    +0.201 C 
ATOM     19  O   UNL     1       0.535   2.659   3.489  0.00  0.00    -0.278 OA
ATOM     20  N   UNL     1      -0.875   3.634   4.899  0.00  0.00    -0.286 N 
ATOM     21  H   UNL     1      -1.781   4.239   5.043  0.00  0.00    +0.155 HD
BRANCH  20  22
ATOM     22  C   UNL     1      -0.102   3.253   6.004  0.00  0.00    +0.051 A 
ATOM     23  C   UNL     1       1.278   3.162   5.889  0.00  0.00    +0.073 A 
ATOM     24  C   UNL     1       2.042   2.786   6.982  0.00  0.00    +0.164 A 
ATOM     25  C   UNL     1       1.424   2.502   8.195  0.00  0.00    +0.163 A 
ATOM     26  C   UNL     1       0.045   2.592   8.307  0.00  0.00    +0.066 A 
ATOM     27  C   UNL     1      -0.717   2.972   7.217  0.00  0.00    +0.043 A 
ATOM     28 BR   UNL     1      -2.596   3.101   7.377  0.00  0.00    -0.048 Br
ATOM     29  O   UNL     1       2.159   2.135   9.281  0.00  0.00    -0.485 OA
ATOM     30  C   UNL     1       3.498   1.692   9.033  0.00  0.00    +0.270 C 
ATOM     31  C   UNL     1       4.158   2.680   8.062  0.00  0.00    +0.270 C 
ATOM     32  O   UNL     1       3.394   2.697   6.852  0.00  0.00    -0.485 OA
ENDBRANCH  20  22
ENDBRANCH  17  18
ENDBRANCH   4  17
TORSDOF 6
