REMARK  Name = ZINC00850069
REMARK  11 active torsions:
REMARK  status: ('A' for Active; 'I' for Inactive)
REMARK    1  A    between atoms: C_1  and  C_2
REMARK    2  A    between atoms: C_5  and  C_8
REMARK    3  A    between atoms: C_8  and  S_9
REMARK    4  A    between atoms: S_9  and  C_10
REMARK    5  A    between atoms: N_14  and  C_15
REMARK    6  A    between atoms: C_15  and  C_16
REMARK    7  A    between atoms: C_16  and  C_18
REMARK    8  A    between atoms: C_16  and  O_30
REMARK    9  A    between atoms: C_18  and  O_19
REMARK   10  A    between atoms: O_19  and  C_20
REMARK   11  A    between atoms: N_37  and  C_38
REMARK                            x       y       z     vdW  Elec       q    Type
REMARK                         _______ _______ _______ _____ _____    ______ ____
ROOT
ATOM      1  C   UNL     1      -4.742  10.406  -0.678  0.00  0.00    +0.172 A 
ATOM      2  N   UNL     1      -4.565  11.615  -0.181  0.00  0.00    -0.204 NA
ATOM      3  C   UNL     1      -4.480  11.553   1.148  0.00  0.00    +0.169 A 
ATOM      4  C   UNL     1      -4.617  10.219   1.517  0.00  0.00    +0.152 A 
ATOM      5  N   UNL     1      -4.777   9.502   0.338  0.00  0.00    -0.311 N 
ATOM      6  C   UNL     1      -4.557   9.873   2.878  0.00  0.00    +0.280 A 
ATOM      7  O   UNL     1      -4.670   8.710   3.223  0.00  0.00    -0.265 OA
ATOM      8  N   UNL     1      -4.380  10.843   3.798  0.00  0.00    -0.273 N 
ATOM      9  H   UNL     1      -4.341  10.601   4.768  0.00  0.00    +0.173 HD
ATOM     10  C   UNL     1      -4.253  12.130   3.432  0.00  0.00    +0.331 A 
ATOM     11  O   UNL     1      -4.094  12.978   4.290  0.00  0.00    -0.246 OA
ATOM     12  N   UNL     1      -4.299  12.504   2.140  0.00  0.00    -0.280 N 
ATOM     13  C   UNL     1      -4.157  13.918   1.781  0.00  0.00    +0.155 C 
ENDROOT
BRANCH   1  14
ATOM     14  S   UNL     1      -4.906  10.022  -2.390  0.00  0.00    -0.083 S 
BRANCH  14  15
ATOM     15  C   UNL     1      -4.760  11.681  -3.099  0.00  0.00    +0.112 C 
BRANCH  15  20
ATOM     16  C   UNL     1      -5.198  11.361  -8.852  0.00  0.00    +0.044 C 
ATOM     17  C   UNL     1      -5.084  11.445  -7.352  0.00  0.00    -0.050 A 
ATOM     18  C   UNL     1      -6.218  11.622  -6.581  0.00  0.00    +0.003 A 
ATOM     19  C   UNL     1      -6.113  11.699  -5.205  0.00  0.00    +0.005 A 
ATOM     20  C   UNL     1      -4.874  11.597  -4.600  0.00  0.00    -0.037 A 
ATOM     21  C   UNL     1      -3.740  11.425  -5.371  0.00  0.00    +0.005 A 
ATOM     22  C   UNL     1      -3.845  11.344  -6.747  0.00  0.00    +0.003 A 
ENDBRANCH  15  20
ENDBRANCH  14  15
ENDBRANCH   1  14
BRANCH   5  23
ATOM     23  C   UNL     1      -4.957   8.053   0.213  0.00  0.00    +0.159 C 
BRANCH  23  24
ATOM     24  C   UNL     1      -3.590   7.381   0.071  0.00  0.00    +0.171 C 
BRANCH  24  25
ATOM     25  O   UNL     1      -2.981   7.793  -1.154  0.00  0.00    -0.387 OA
ATOM     26  H   UNL     1      -3.493   7.568  -1.943  0.00  0.00    +0.210 HD
ENDBRANCH  24  25
BRANCH  24  27
ATOM     27  C   UNL     1      -3.768   5.861   0.066  0.00  0.00    +0.262 C 
BRANCH  27  28
ATOM     28  O   UNL     1      -2.485   5.232   0.051  0.00  0.00    -0.489 OA
BRANCH  28  29
ATOM     29  C   UNL     1      -2.464   3.874   0.045  0.00  0.00    +0.128 A 
ATOM     30  C   UNL     1      -3.635   3.168   0.052  0.00  0.00    +0.046 A 
ATOM     31  C   UNL     1      -3.631   1.776   0.046  0.00  0.00    +0.004 A 
ATOM     32  C   UNL     1      -2.462   1.077   0.031  0.00  0.00    +0.009 A 
ATOM     33  C   UNL     1      -1.237   1.766   0.018  0.00  0.00    -0.014 A 
ATOM     34  C   UNL     1      -1.236   3.183   0.030  0.00  0.00    +0.024 A 
ATOM     35  C   UNL     1      -0.012   3.871   0.022  0.00  0.00    +0.012 A 
ATOM     36  C   UNL     1       1.155   3.170   0.008  0.00  0.00    +0.001 A 
ATOM     37  C   UNL     1       1.155   1.776   0.001  0.00  0.00    +0.001 A 
ATOM     38  C   UNL     1      -0.013   1.076   0.008  0.00  0.00    +0.008 A 
ENDBRANCH  28  29
ENDBRANCH  27  28
ENDBRANCH  24  27
ENDBRANCH  23  24
ENDBRANCH   5  23
TORSDOF 9
