REMARK  Name = ZINC20894305
REMARK  6 active torsions:
REMARK  status: ('A' for Active; 'I' for Inactive)
REMARK    1  A    between atoms: C_1  and  C_2
REMARK    2  A    between atoms: C_2  and  C_4
REMARK    3  A    between atoms: C_2  and  O_7
REMARK    4  A    between atoms: O_7  and  C_8
REMARK    5  A    between atoms: C_8  and  C_10
REMARK    6  A    between atoms: C_24  and  C_25
REMARK                            x       y       z     vdW  Elec       q    Type
REMARK                         _______ _______ _______ _____ _____    ______ ____
ROOT
ATOM      1  C   UNL     1      -0.529   0.978  -2.824  0.00  0.00    +0.073 A 
ATOM      2  C   UNL     1      -1.188   1.724  -3.897  0.00  0.00    +0.015 A 
ATOM      3  C   UNL     1      -0.637   1.800  -5.180  0.00  0.00    +0.011 A 
ATOM      4  C   UNL     1      -1.286   2.503  -6.152  0.00  0.00    +0.001 A 
ATOM      5  C   UNL     1      -2.491   3.148  -5.883  0.00  0.00    +0.002 A 
ATOM      6  C   UNL     1      -3.055   3.094  -4.645  0.00  0.00    +0.028 A 
ATOM      7  C   UNL     1      -2.414   2.378  -3.617  0.00  0.00    +0.072 A 
ATOM      8  N   UNL     1      -2.940   2.310  -2.394  0.00  0.00    -0.247 NA
ATOM      9  C   UNL     1      -2.363   1.645  -1.405  0.00  0.00    +0.072 A 
ATOM     10  C   UNL     1      -1.148   0.955  -1.582  0.00  0.00    -0.007 A 
ATOM     11  C   UNL     1      -0.498   0.191  -0.462  0.00  0.00    +0.038 C 
ATOM     12  C   UNL     1      -0.968   0.699   0.899  0.00  0.00    +0.009 C 
ATOM     13  C   UNL     1      -2.499   0.660   0.955  0.00  0.00    +0.037 C 
ATOM     14  C   UNL     1      -3.016   1.636  -0.081  0.00  0.00    -0.021 C 
ATOM     15  C   UNL     1      -4.041   2.470   0.197  0.00  0.00    +0.020 C 
ENDROOT
BRANCH  15  16
ATOM     16  C   UNL     1      -4.809   2.299   1.431  0.00  0.00    +0.013 A 
ATOM     17  C   UNL     1      -5.791   3.116   1.969  0.00  0.00    +0.015 A 
ATOM     18  C   UNL     1      -6.375   2.740   3.154  0.00  0.00    +0.008 A 
ATOM     19  C   UNL     1      -5.976   1.589   3.758  0.00  0.00    +0.046 A 
ATOM     20  S   UNL     1      -4.732   0.980   2.632  0.00  0.00    -0.097 S 
ENDBRANCH  15  16
BRANCH   1  21
ATOM     21  C   UNL     1       0.750   0.274  -3.055  0.00  0.00    +0.341 C 
ATOM     22  O   UNL     1       0.748  -0.882  -3.428  0.00  0.00    -0.245 OA
BRANCH  21  23
ATOM     23  O   UNL     1       1.917   0.915  -2.852  0.00  0.00    -0.449 OA
BRANCH  23  25
ATOM     24  C   UNL     1       3.557   0.341  -4.557  0.00  0.00    +0.062 C 
ATOM     25  C   UNL     1       3.134   0.162  -3.098  0.00  0.00    +0.259 C 
BRANCH  25  26
ATOM     26  C   UNL     1       4.228   0.666  -2.192  0.00  0.00    +0.251 C 
ATOM     27  O   UNL     1       4.004   1.570  -1.416  0.00  0.00    -0.272 OA
ATOM     28  N   UNL     1       5.455   0.111  -2.245  0.00  0.00    -0.326 N 
ATOM     29  H   UNL     1       6.254   0.479  -1.584  0.00  0.00    +0.145 HD
ATOM     30  H   UNL     1       5.658  -0.709  -2.950  0.00  0.00    +0.145 HD
ENDBRANCH  25  26
ENDBRANCH  23  25
ENDBRANCH  21  23
ENDBRANCH   1  21
TORSDOF 5
