REMARK  Name = ZINC39996956
REMARK  7 active torsions:
REMARK  status: ('A' for Active; 'I' for Inactive)
REMARK    1  A    between atoms: C_1  and  C_2
REMARK    2  A    between atoms: C_4  and  C_12
REMARK    3  A    between atoms: C_12  and  C_14
REMARK    4  A    between atoms: C_14  and  C_16
REMARK    5  A    between atoms: C_14  and  S_17
REMARK    6  A    between atoms: S_17  and  C_18
REMARK    7  A    between atoms: C_22  and  N_24
REMARK                            x       y       z     vdW  Elec       q    Type
REMARK                         _______ _______ _______ _____ _____    ______ ____
ROOT
ATOM      1  C   UNL     1      -3.750  -1.043  -0.781  0.00  0.00    +0.122 C 
ATOM      2  C   UNL     1      -4.706  -0.185   0.051  0.00  0.00    +0.028 C 
ENDROOT
BRANCH   1   3
ATOM      3  C   UNL     1      -2.428  -0.333  -0.919  0.00  0.00    +0.175 C 
ATOM      4  O   UNL     1      -2.208   0.355  -1.895  0.00  0.00    -0.291 OA
BRANCH   3   7
ATOM      5  C   UNL     1      -0.048   1.594  -0.054  0.00  0.00    +0.035 C 
ATOM      6  C   UNL     1      -0.032   0.068   0.061  0.00  0.00    +0.111 C 
ATOM      7  C   UNL     1      -1.447  -0.467   0.086  0.00  0.00    +0.027 C 
ATOM      8  C   UNL     1      -1.577  -1.116   1.301  0.00  0.00    +0.006 A 
ATOM      9  C   UNL     1      -2.647  -1.812   1.910  0.00  0.00    +0.010 A 
ATOM     10  C   UNL     1      -2.493  -2.361   3.136  0.00  0.00    +0.001 A 
ATOM     11  C   UNL     1      -1.290  -2.272   3.856  0.00  0.00    +0.002 A 
ATOM     12  C   UNL     1      -0.209  -1.630   3.364  0.00  0.00    +0.026 A 
ATOM     13  C   UNL     1      -0.292  -1.004   2.034  0.00  0.00    +0.043 A 
ATOM     14  N   UNL     1       0.579  -0.335   1.331  0.00  0.00    -0.377 N 
ATOM     15  H   UNL     1       1.488  -0.136   1.605  0.00  0.00    +0.160 HD
ENDBRANCH   3   7
ENDBRANCH   1   3
BRANCH   1  16
ATOM     16  S   UNL     1      -4.463  -1.320  -2.426  0.00  0.00    -0.075 S 
BRANCH  16  17
ATOM     17  C   UNL     1      -5.908  -2.276  -2.109  0.00  0.00    +0.192 A 
ATOM     18  N   UNL     1      -6.209  -2.596  -0.859  0.00  0.00    -0.207 NA
ATOM     19  C   UNL     1      -7.293  -3.317  -0.582  0.00  0.00    +0.122 A 
ATOM     20  C   UNL     1      -8.114  -3.734  -1.626  0.00  0.00    +0.086 A 
ATOM     21  C   UNL     1      -7.766  -3.378  -2.926  0.00  0.00    +0.122 A 
ATOM     22  N   UNL     1      -6.669  -2.651  -3.127  0.00  0.00    -0.207 NA
ATOM     23  N   UNL     1      -7.601  -3.648   0.729  0.00  0.00    -0.343 N 
ATOM     24  H   UNL     1      -7.024  -3.354   1.451  0.00  0.00    +0.144 HD
ATOM     25  H   UNL     1      -8.393  -4.173   0.923  0.00  0.00    +0.144 HD
BRANCH  21  26
ATOM     26  N   UNL     1      -8.554  -3.772  -3.996  0.00  0.00    -0.343 N 
ATOM     27  H   UNL     1      -9.354  -4.298  -3.842  0.00  0.00    +0.144 HD
ATOM     28  H   UNL     1      -8.305  -3.521  -4.899  0.00  0.00    +0.144 HD
ENDBRANCH  21  26
ENDBRANCH  16  17
ENDBRANCH   1  16
TORSDOF 5
