REMARK  Name = ZINC21232093
REMARK  11 active torsions:
REMARK  status: ('A' for Active; 'I' for Inactive)
REMARK    1  A    between atoms: C_1  and  C_2
REMARK    2  A    between atoms: C_6  and  N_9
REMARK    3  A    between atoms: C_7  and  C_8
REMARK    4  A    between atoms: C_13  and  C_32
REMARK    5  A    between atoms: C_14  and  C_31
REMARK    6  A    between atoms: C_18  and  S_19
REMARK    7  A    between atoms: S_19  and  C_20
REMARK    8  A    between atoms: C_20  and  C_22
REMARK    9  A    between atoms: C_20  and  C_25
REMARK   10  A    between atoms: C_22  and  C_23
REMARK   11  A    between atoms: C_22  and  C_24
REMARK                            x       y       z     vdW  Elec       q    Type
REMARK                         _______ _______ _______ _____ _____    ______ ____
ROOT
ATOM      1  N   UNL     1       0.711  -2.544   0.135  0.00  0.00    -0.255 N 
ATOM      2  C   UNL     1       1.691  -1.622   0.091  0.00  0.00    +0.268 A 
ATOM      3  O   UNL     1       2.861  -1.962   0.139  0.00  0.00    -0.267 OA
ATOM      4  C   UNL     1       1.342  -0.239  -0.014  0.00  0.00    +0.076 A 
ATOM      5  C   UNL     1       2.208   0.925  -0.078  0.00  0.00    -0.026 A 
ATOM      6  C   UNL     1       1.660   2.145  -0.176  0.00  0.00    -0.008 A 
ATOM      7  S   UNL     1      -0.091   1.812  -0.190  0.00  0.00    -0.073 S 
ATOM      8  C   UNL     1      -0.037   0.043  -0.064  0.00  0.00    +0.117 A 
ATOM      9  N   UNL     1      -0.954  -0.914  -0.016  0.00  0.00    -0.215 NA
ATOM     10  C   UNL     1      -0.606  -2.181   0.081  0.00  0.00    +0.178 A 
ATOM     11  C   UNL     1       2.358   3.479  -0.255  0.00  0.00    +0.052 C 
ATOM     12  C   UNL     1       3.706   0.764  -0.035  0.00  0.00    +0.045 C 
ENDROOT
BRANCH   1  18
ATOM     13  C   UNL     1       1.677  -6.467   2.939  0.00  0.00    +0.044 C 
ATOM     14  C   UNL     1       1.522  -5.826   1.584  0.00  0.00    -0.046 A 
ATOM     15  C   UNL     1       1.713  -6.578   0.439  0.00  0.00    +0.004 A 
ATOM     16  C   UNL     1       1.572  -5.994  -0.807  0.00  0.00    +0.002 A 
ATOM     17  C   UNL     1       1.240  -4.657  -0.911  0.00  0.00    +0.026 A 
ATOM     18  C   UNL     1       1.048  -3.900   0.237  0.00  0.00    +0.055 A 
ATOM     19  C   UNL     1       1.195  -4.488   1.486  0.00  0.00    -0.024 A 
ATOM     20  C   UNL     1       0.993  -3.668   2.735  0.00  0.00    +0.046 C 
ENDBRANCH   1  18
BRANCH  10  21
ATOM     21  S   UNL     1      -1.853  -3.424   0.142  0.00  0.00    -0.074 S 
BRANCH  21  22
ATOM     22  C   UNL     1      -3.333  -2.383   0.178  0.00  0.00    +0.143 C 
BRANCH  22  23
ATOM     23  C   UNL     1      -3.495  -1.695  -1.153  0.00  0.00    +0.234 C 
ATOM     24  O   UNL     1      -3.014  -2.186  -2.152  0.00  0.00    -0.274 OA
ATOM     25  N   UNL     1      -4.174  -0.534  -1.233  0.00  0.00    -0.239 N 
ATOM     26  C   UNL     1      -4.319   0.082  -2.423  0.00  0.00    +0.303 C 
ATOM     27  O   UNL     1      -3.837  -0.410  -3.425  0.00  0.00    -0.253 OA
ATOM     28  N   UNL     1      -4.998   1.243  -2.503  0.00  0.00    -0.313 N 
ATOM     29  H   UNL     1      -4.610  -0.088  -0.327  0.00  0.00    +0.159 HD
ATOM     30  H   UNL     1      -5.116   1.746  -3.474  0.00  0.00    +0.146 HD
ATOM     31  H   UNL     1      -5.434   1.689  -1.597  0.00  0.00    +0.146 HD
ENDBRANCH  22  23
BRANCH  22  32
ATOM     32  C   UNL     1      -4.561  -3.252   0.455  0.00  0.00    +0.005 C 
ATOM     33  C   UNL     1      -4.629  -4.383  -0.573  0.00  0.00    +0.009 C 
ATOM     34  C   UNL     1      -4.458  -3.847   1.861  0.00  0.00    +0.009 C 
ENDBRANCH  22  32
ENDBRANCH  21  22
ENDBRANCH  10  21
TORSDOF 5
