REMARK  Name = ZINC35991258
REMARK  13 active torsions:
REMARK  status: ('A' for Active; 'I' for Inactive)
REMARK    1  A    between atoms: C_1  and  C_2
REMARK    2  A    between atoms: C_2  and  N_3
REMARK    3  A    between atoms: N_6  and  C_9
REMARK    4  A    between atoms: C_9  and  C_10
REMARK    5  A    between atoms: C_11  and  C_28
REMARK    6  A    between atoms: C_12  and  C_19
REMARK    7  A    between atoms: N_17  and  C_18
REMARK    8  A    between atoms: C_22  and  C_25
REMARK    9  A    between atoms: C_25  and  C_26
REMARK   10  A    between atoms: C_25  and  C_27
REMARK   11  A    between atoms: C_28  and  O_30
REMARK   12  A    between atoms: O_30  and  C_31
REMARK   13  A    between atoms: C_31  and  C_32
REMARK                            x       y       z     vdW  Elec       q    Type
REMARK                         _______ _______ _______ _____ _____    ______ ____
ROOT
ATOM      1  C   UNL     1      -4.892  -4.146  -1.246  0.00  0.00    +0.041 C 
ATOM      2  C   UNL     1      -5.181  -4.893  -0.159  0.00  0.00    +0.080 C 
ATOM      3  C   UNL     1      -5.007  -6.394  -0.268  0.00  0.00    +0.144 C 
ATOM      4  N   UNL     1      -4.533  -6.918  -1.560  0.00  0.00    -0.288 N 
ATOM      5  C   UNL     1      -4.286  -6.044  -2.556  0.00  0.00    +0.307 C 
ATOM      6  O   UNL     1      -3.895  -6.467  -3.626  0.00  0.00    -0.252 OA
ATOM      7  N   UNL     1      -4.463  -4.726  -2.406  0.00  0.00    -0.260 N 
ATOM      8  C   UNL     1      -4.174  -3.855  -3.548  0.00  0.00    +0.139 C 
ATOM      9  H   UNL     1      -4.402  -7.871  -1.691  0.00  0.00    +0.151 HD
ENDROOT
BRANCH   3  10
ATOM     10  C   UNL     1      -4.029  -6.827   0.794  0.00  0.00    -0.022 A 
ATOM     11  C   UNL     1      -2.672  -6.664   0.592  0.00  0.00    +0.006 A 
ATOM     12  C   UNL     1      -1.775  -7.061   1.566  0.00  0.00    +0.004 A 
ATOM     13  C   UNL     1      -2.236  -7.620   2.744  0.00  0.00    -0.045 A 
ATOM     14  C   UNL     1      -3.594  -7.782   2.946  0.00  0.00    +0.004 A 
ATOM     15  C   UNL     1      -4.491  -7.381   1.974  0.00  0.00    +0.006 A 
BRANCH  13  16
ATOM     16  C   UNL     1      -1.259  -8.053   3.805  0.00  0.00    +0.013 C 
ATOM     17  C   UNL     1      -1.534  -7.281   5.097  0.00  0.00    +0.012 C 
ATOM     18  C   UNL     1      -1.419  -9.553   4.064  0.00  0.00    +0.012 C 
ENDBRANCH  13  16
ENDBRANCH   3  10
BRANCH   2  19
ATOM     19  C   UNL     1      -5.631  -4.294   1.041  0.00  0.00    +0.339 C 
ATOM     20  O   UNL     1      -4.852  -4.110   1.958  0.00  0.00    -0.245 OA
BRANCH  19  21
ATOM     21  O   UNL     1      -6.923  -3.928   1.170  0.00  0.00    -0.462 OA
BRANCH  21  22
ATOM     22  C   UNL     1      -7.308  -3.329   2.409  0.00  0.00    +0.229 C 
ATOM     23  C   UNL     1      -8.797  -2.983   2.368  0.00  0.00    +0.048 C 
ENDBRANCH  21  22
ENDBRANCH  19  21
ENDBRANCH   2  19
BRANCH   1  24
ATOM     24  C   UNL     1      -5.052  -2.649  -1.181  0.00  0.00    +0.136 C 
BRANCH  24  28
ATOM     25  N   UNL     1      -1.643  -0.226  -0.571  0.00  0.00    +0.381 N 
ATOM     26  C   UNL     1      -2.496   0.062  -1.732  0.00  0.00    -0.063 C 
ATOM     27  C   UNL     1      -3.878  -0.557  -1.515  0.00  0.00    +0.066 C 
ATOM     28  N   UNL     1      -3.739  -2.009  -1.336  0.00  0.00    -0.300 NA
ATOM     29  C   UNL     1      -2.867  -2.313  -0.192  0.00  0.00    +0.066 C 
ATOM     30  C   UNL     1      -1.493  -1.679  -0.420  0.00  0.00    -0.063 C 
ATOM     31  H   UNL     1      -2.066   0.157   0.261  0.00  0.00    -0.082 HD
BRANCH  25  33
ATOM     32  C   UNL     1      -0.462   1.907  -0.805  0.00  0.00    -0.017 C 
ATOM     33  C   UNL     1      -0.321   0.384  -0.772  0.00  0.00    -0.082 C 
ENDBRANCH  25  33
ENDBRANCH  24  28
ENDBRANCH   1  24
TORSDOF 8
