REMARK  Name = ZINC64219065
REMARK  9 active torsions:
REMARK  status: ('A' for Active; 'I' for Inactive)
REMARK    1  A    between atoms: C_1  and  C_2
REMARK    2  A    between atoms: N_4  and  C_5
REMARK    3  A    between atoms: C_5  and  C_7
REMARK    4  A    between atoms: C_5  and  C_17
REMARK    5  A    between atoms: C_7  and  C_8
REMARK    6  A    between atoms: N_19  and  C_20
REMARK    7  A    between atoms: C_20  and  C_21
REMARK    8  A    between atoms: C_21  and  C_23
REMARK    9  A    between atoms: C_21  and  N_28
REMARK                            x       y       z     vdW  Elec       q    Type
REMARK                         _______ _______ _______ _____ _____    ______ ____
ROOT
ATOM      1  C   UNL     1       0.863  -2.992   0.400  0.00  0.00    +0.234 C 
ATOM      2  O   UNL     1       1.329  -2.485   1.397  0.00  0.00    -0.274 OA
ATOM      3  N   UNL     1       1.482  -4.043  -0.175  0.00  0.00    -0.315 N 
ATOM      4  H   UNL     1       1.108  -4.449  -0.973  0.00  0.00    +0.149 HD
ENDROOT
BRANCH   1   5
ATOM      5  C   UNL     1      -0.409  -2.448  -0.198  0.00  0.00    +0.163 C 
BRANCH   5   9
ATOM      6  C   UNL     1      -0.976   0.575   2.081  0.00  0.00    +0.109 C 
ATOM      7  C   UNL     1      -0.754  -0.834   1.594  0.00  0.00    +0.211 C 
ATOM      8  O   UNL     1      -0.693  -1.748   2.389  0.00  0.00    -0.276 OA
ATOM      9  N   UNL     1      -0.624  -1.078   0.275  0.00  0.00    -0.304 N 
ATOM     10  H   UNL     1      -0.674  -0.347  -0.361  0.00  0.00    +0.149 HD
ENDBRANCH   5   9
BRANCH   5  11
ATOM     11  C   UNL     1      -1.589  -3.325   0.226  0.00  0.00    +0.065 C 
BRANCH  11  12
ATOM     12  C   UNL     1      -2.840  -2.855  -0.469  0.00  0.00    -0.039 C 
ATOM     13  C   UNL     1      -3.364  -3.342  -1.617  0.00  0.00    -0.001 A 
ATOM     14  C   UNL     1      -2.942  -4.413  -2.528  0.00  0.00    +0.010 A 
ATOM     15  C   UNL     1      -3.689  -4.675  -3.624  0.00  0.00    +0.001 A 
ATOM     16  C   UNL     1      -4.854  -3.951  -3.912  0.00  0.00    +0.002 A 
ATOM     17  C   UNL     1      -5.306  -2.953  -3.123  0.00  0.00    +0.026 A 
ATOM     18  C   UNL     1      -4.599  -2.593  -1.944  0.00  0.00    +0.043 A 
ATOM     19  N   UNL     1      -4.829  -1.678  -1.033  0.00  0.00    -0.380 N 
ATOM     20  C   UNL     1      -3.768  -1.748  -0.021  0.00  0.00    +0.144 C 
ATOM     21  H   UNL     1      -5.577  -1.061  -1.026  0.00  0.00    +0.160 HD
ENDBRANCH  11  12
ENDBRANCH   5  11
ENDBRANCH   1   5
BRANCH   3  22
ATOM     22  C   UNL     1       2.718  -4.572   0.407  0.00  0.00    +0.096 C 
BRANCH  22  23
ATOM     23  C   UNL     1       3.139  -5.832  -0.351  0.00  0.00    +0.016 C 
BRANCH  23  24
ATOM     24  N   UNL     1       2.047  -6.814  -0.315  0.00  0.00    +0.387 N 
ATOM     25  C   UNL     1       1.671  -7.074   1.080  0.00  0.00    -0.078 C 
ATOM     26  C   UNL     1       0.480  -8.034   1.121  0.00  0.00    -0.019 C 
ATOM     27  C   UNL     1       0.869  -9.350   0.441  0.00  0.00    -0.004 C 
ATOM     28  C   UNL     1       1.330  -9.057  -0.990  0.00  0.00    -0.019 C 
ATOM     29  C   UNL     1       2.489  -8.060  -0.953  0.00  0.00    -0.078 C 
ATOM     30  H   UNL     1       1.250  -6.447  -0.813  0.00  0.00    -0.081 HD
ENDBRANCH  23  24
BRANCH  23  31
ATOM     31  C   UNL     1       4.366  -6.421   0.296  0.00  0.00    +0.093 A 
ATOM     32  C   UNL     1       5.609  -6.410  -0.217  0.00  0.00    +0.043 A 
ATOM     33  C   UNL     1       6.444  -7.067   0.716  0.00  0.00    +0.041 A 
ATOM     34  C   UNL     1       5.661  -7.441   1.744  0.00  0.00    +0.195 A 
ATOM     35  O   UNL     1       4.404  -7.042   1.487  0.00  0.00    -0.469 OA
ENDBRANCH  23  31
ENDBRANCH  22  23
ENDBRANCH   3  22
TORSDOF 8
