REMARK  Name = ZINC20641465
REMARK  8 active torsions:
REMARK  status: ('A' for Active; 'I' for Inactive)
REMARK    1  A    between atoms: C_1  and  C_2
REMARK    2  A    between atoms: C_5  and  N_9
REMARK    3  A    between atoms: C_6  and  C_8
REMARK    4  A    between atoms: C_10  and  C_12
REMARK    5  A    between atoms: C_23  and  C_36
REMARK    6  A    between atoms: N_24  and  C_28
REMARK    7  A    between atoms: C_28  and  C_29
REMARK    8  A    between atoms: C_29  and  C_30
REMARK                            x       y       z     vdW  Elec       q    Type
REMARK                         _______ _______ _______ _____ _____    ______ ____
ROOT
ATOM      1  C   UNL     1       1.216   5.917  -0.561  0.00  0.00    +0.162 C 
ATOM      2  C   UNL     1      -0.121   5.414   0.009  0.00  0.00    +0.123 C 
ATOM      3  C   UNL     1      -0.105   3.902  -0.010  0.00  0.00    +0.015 A 
ATOM      4  C   UNL     1      -1.308   3.220  -0.025  0.00  0.00    +0.009 A 
ATOM      5  C   UNL     1      -1.322   1.838  -0.037  0.00  0.00    +0.001 A 
ATOM      6  C   UNL     1      -0.131   1.136  -0.026  0.00  0.00    +0.004 A 
ATOM      7  C   UNL     1       1.071   1.813  -0.015  0.00  0.00    +0.046 A 
ATOM      8  C   UNL     1       1.090   3.205  -0.008  0.00  0.00    +0.128 A 
ATOM      9  O   UNL     1       2.292   3.837  -0.007  0.00  0.00    -0.467 OA
ATOM     10  C   UNL     1       2.329   5.238   0.250  0.00  0.00    +0.190 C 
ATOM     11  N   UNL     1       2.128   5.512   1.670  0.00  0.00    -0.274 N 
ATOM     12  C   UNL     1       0.924   5.828   2.171  0.00  0.00    +0.136 C 
ATOM     13  S   UNL     1       0.801   6.235   3.829  0.00  0.00    -0.019 S 
ATOM     14  N   UNL     1      -0.189   5.835   1.418  0.00  0.00    -0.318 N 
ATOM     15  C   UNL     1       3.686   5.798  -0.182  0.00  0.00    +0.079 C 
ATOM     16  H   UNL     1      -1.149   6.154   1.851  0.00  0.00    +0.148 HD
ENDROOT
BRANCH   1  18
ATOM     17  N   UNL     1       0.816   8.219  -1.373  0.00  0.00    -0.285 N 
ATOM     18  C   UNL     1       1.310   7.414  -0.413  0.00  0.00    +0.228 C 
ATOM     19  O   UNL     1       1.832   7.894   0.572  0.00  0.00    -0.275 OA
ATOM     20  H   UNL     1       0.278   7.787  -2.230  0.00  0.00    +0.155 HD
BRANCH  17  25
ATOM     21  C   UNL     1       1.502  13.838  -0.998  0.00  0.00    +0.044 C 
ATOM     22  C   UNL     1       1.320  12.345  -1.098  0.00  0.00    -0.050 A 
ATOM     23  C   UNL     1       1.137  11.594   0.049  0.00  0.00    +0.005 A 
ATOM     24  C   UNL     1       0.969  10.226  -0.039  0.00  0.00    +0.024 A 
ATOM     25  C   UNL     1       0.985   9.605  -1.281  0.00  0.00    +0.036 A 
ATOM     26  C   UNL     1       1.175  10.361  -2.430  0.00  0.00    -0.029 A 
ATOM     27  C   UNL     1       1.337  11.729  -2.336  0.00  0.00    +0.008 A 
ATOM     28  C   UNL     1       1.199   9.690  -3.779  0.00  0.00    +0.045 C 
ENDBRANCH  17  25
ENDBRANCH   1  18
BRANCH  11  29
ATOM     29  C   UNL     1       3.277   5.440   2.576  0.00  0.00    +0.115 C 
BRANCH  29  30
ATOM     30  C   UNL     1       3.947   6.813   2.660  0.00  0.00    +0.054 C 
BRANCH  30  31
ATOM     31  C   UNL     1       5.129   6.739   3.592  0.00  0.00    -0.046 A 
ATOM     32  C   UNL     1       4.964   7.000   4.940  0.00  0.00    +0.004 A 
ATOM     33  C   UNL     1       6.047   6.927   5.796  0.00  0.00    +0.000 A 
ATOM     34  C   UNL     1       7.297   6.604   5.303  0.00  0.00    +0.000 A 
ATOM     35  C   UNL     1       7.463   6.348   3.954  0.00  0.00    +0.000 A 
ATOM     36  C   UNL     1       6.379   6.416   3.099  0.00  0.00    +0.004 A 
ENDBRANCH  30  31
ENDBRANCH  29  30
ENDBRANCH  11  29
TORSDOF 5
