REMARK  Name = ZINC63883718
REMARK  8 active torsions:
REMARK  status: ('A' for Active; 'I' for Inactive)
REMARK    1  A    between atoms: C_1  and  C_2
REMARK    2  A    between atoms: C_5  and  C_25
REMARK    3  A    between atoms: C_6  and  O_9
REMARK    4  A    between atoms: C_7  and  C_8
REMARK    5  A    between atoms: O_9  and  C_10
REMARK    6  A    between atoms: C_10  and  C_11
REMARK    7  A    between atoms: N_13  and  C_14
REMARK    8  A    between atoms: C_14  and  C_15
REMARK                            x       y       z     vdW  Elec       q    Type
REMARK                         _______ _______ _______ _____ _____    ______ ____
ROOT
ATOM      1  C   UNL     1       1.149  -3.845   4.202  0.00  0.00    +0.251 C 
ATOM      2  O   UNL     1       0.033  -4.095   4.607  0.00  0.00    -0.272 OA
ATOM      3  N   UNL     1       2.226  -4.246   4.905  0.00  0.00    -0.308 N 
ATOM      4  H   UNL     1       3.118  -4.047   4.581  0.00  0.00    +0.149 HD
ENDROOT
BRANCH   1   5
ATOM      5  C   UNL     1       1.330  -3.087   2.912  0.00  0.00    +0.324 C 
BRANCH   5   6
ATOM      6  O   UNL     1       0.050  -2.776   2.358  0.00  0.00    -0.482 OA
BRANCH   6  12
ATOM      7  C   UNL     1      -0.018   1.503   0.010  0.00  0.00    +0.044 C 
ATOM      8  C   UNL     1       0.002  -0.004   0.002  0.00  0.00    -0.044 A 
ATOM      9  C   UNL     1       0.006  -0.688  -1.200  0.00  0.00    +0.004 A 
ATOM     10  C   UNL     1       0.024  -2.071  -1.211  0.00  0.00    +0.007 A 
ATOM     11  C   UNL     1       0.039  -2.772  -0.020  0.00  0.00    -0.008 A 
ATOM     12  C   UNL     1       0.035  -2.088   1.186  0.00  0.00    +0.127 A 
ATOM     13  C   UNL     1       0.023  -0.700   1.195  0.00  0.00    -0.006 A 
ATOM     14  C   UNL     1       0.026   0.046   2.504  0.00  0.00    +0.048 C 
ATOM     15  C   UNL     1       0.059  -4.279  -0.033  0.00  0.00    +0.047 C 
ENDBRANCH   6  12
ENDBRANCH   5   6
ENDBRANCH   1   5
BRANCH   3  16
ATOM     16  C   UNL     1       2.050  -4.984   6.159  0.00  0.00    +0.139 C 
BRANCH  16  17
ATOM     17  C   UNL     1       3.399  -5.312   6.743  0.00  0.00    -0.028 A 
ATOM     18  C   UNL     1       4.047  -6.563   6.367  0.00  0.00    +0.007 A 
ATOM     19  C   UNL     1       5.256  -6.918   6.853  0.00  0.00    +0.025 A 
ATOM     20  C   UNL     1       5.947  -6.029   7.785  0.00  0.00    +0.056 A 
ATOM     21  N   UNL     1       7.090  -6.068   8.423  0.00  0.00    -0.268 N 
ATOM     22  C   UNL     1       7.205  -4.923   9.176  0.00  0.00    +0.308 C 
ATOM     23  O   UNL     1       8.149  -4.648   9.887  0.00  0.00    -0.252 OA
ATOM     24  N   UNL     1       6.091  -4.137   9.003  0.00  0.00    -0.268 N 
ATOM     25  C   UNL     1       5.282  -4.744   8.171  0.00  0.00    +0.056 A 
ATOM     26  C   UNL     1       3.975  -4.436   7.594  0.00  0.00    +0.030 A 
ATOM     27  H   UNL     1       7.744  -6.782   8.373  0.00  0.00    +0.156 HD
ATOM     28  H   UNL     1       5.931  -3.279   9.426  0.00  0.00    +0.156 HD
ENDBRANCH  16  17
ENDBRANCH   3  16
TORSDOF 5
