REMARK  Name = ZINC34872139
REMARK  7 active torsions:
REMARK  status: ('A' for Active; 'I' for Inactive)
REMARK    1  A    between atoms: C_1  and  N_2
REMARK    2  A    between atoms: C_6  and  S_7
REMARK    3  A    between atoms: S_7  and  C_8
REMARK    4  A    between atoms: C_11  and  C_17
REMARK    5  A    between atoms: C_13  and  N_14
REMARK    6  A    between atoms: N_19  and  N_20
REMARK    7  A    between atoms: N_22  and  C_30
REMARK                            x       y       z     vdW  Elec       q    Type
REMARK                         _______ _______ _______ _____ _____    ______ ____
ROOT
ATOM      1  C   UNL     1       0.101  -1.793   3.783  0.00  0.00    +0.046 A 
ATOM      2  C   UNL     1       0.215  -3.047   3.187  0.00  0.00    +0.018 A 
ATOM      3  C   UNL     1       0.270  -4.172   3.960  0.00  0.00    +0.014 A 
ATOM      4  C   UNL     1       0.211  -4.068   5.353  0.00  0.00    +0.040 A 
ATOM      5  C   UNL     1       0.096  -2.810   5.954  0.00  0.00    +0.047 A 
ATOM      6  C   UNL     1       0.047  -1.680   5.170  0.00  0.00    +0.141 A 
ENDROOT
BRANCH   4   7
ATOM      7  C   UNL     1       0.269  -5.282   6.188  0.00  0.00    +0.260 C 
ATOM      8  O   UNL     1       0.217  -5.191   7.400  0.00  0.00    -0.269 OA
ATOM      9  N   UNL     1       0.379  -6.494   5.608  0.00  0.00    -0.231 N 
ATOM     10  H   UNL     1       0.420  -6.567   4.642  0.00  0.00    +0.173 HD
BRANCH   9  11
ATOM     11  N   UNL     1       0.434  -7.648   6.401  0.00  0.00    -0.244 N 
ATOM     12  C   UNL     1       0.547  -8.888   5.807  0.00  0.00    +0.156 A 
ATOM     13  N   UNL     1       0.607 -10.071   6.375  0.00  0.00    -0.325 N 
ATOM     14  C   UNL     1       0.717 -11.214   5.662  0.00  0.00    +0.057 A 
ATOM     15  C   UNL     1       0.791 -12.540   6.145  0.00  0.00    +0.027 A 
ATOM     16  C   UNL     1       0.902 -13.596   5.279  0.00  0.00    +0.002 A 
ATOM     17  C   UNL     1       0.946 -13.405   3.905  0.00  0.00    +0.001 A 
ATOM     18  C   UNL     1       0.876 -12.120   3.398  0.00  0.00    +0.017 A 
ATOM     19  C   UNL     1       0.764 -11.057   4.258  0.00  0.00    +0.039 A 
ATOM     20  S   UNL     1       0.640  -9.295   4.069  0.00  0.00    -0.053 S 
ATOM     21  C   UNL     1       0.553 -10.155   7.837  0.00  0.00    +0.151 C 
ATOM     22  H   UNL     1       0.393  -7.574   7.367  0.00  0.00    +0.172 HD
ENDBRANCH   9  11
ENDBRANCH   4   7
BRANCH   6  23
ATOM     23  N   UNL     1      -0.068  -0.345   5.800  0.00  0.00    +0.058 N 
ATOM     24  O   UNL     1      -0.115  -0.248   7.004  0.00  0.00    -0.126 OA
ATOM     25  O   UNL     1      -0.116   0.647   5.111  0.00  0.00    -0.126 OA
ENDBRANCH   6  23
BRANCH   1  26
ATOM     26  S   UNL     1       0.033  -0.346   2.779  0.00  0.00    -0.048 S 
BRANCH  26  32
ATOM     27  C   UNL     1      -1.522   2.281   1.508  0.00  0.00    +0.152 C 
ATOM     28  N   UNL     1      -2.222   1.219   2.235  0.00  0.00    -0.311 N 
ATOM     29  C   UNL     1      -3.562   1.139   2.489  0.00  0.00    +0.225 A 
ATOM     30  N   UNL     1      -3.765   0.041   3.160  0.00  0.00    -0.137 NA
ATOM     31  N   UNL     1      -2.652  -0.575   3.345  0.00  0.00    -0.122 NA
ATOM     32  C   UNL     1      -1.672   0.102   2.793  0.00  0.00    +0.196 A 
ENDBRANCH  26  32
ENDBRANCH   1  26
TORSDOF 5
