REMARK  Name = ZINC00640068
REMARK  8 active torsions:
REMARK  status: ('A' for Active; 'I' for Inactive)
REMARK    1  A    between atoms: C_1  and  O_2
REMARK    2  A    between atoms: O_2  and  C_3
REMARK    3  A    between atoms: C_6  and  S_11
REMARK    4  A    between atoms: S_11  and  N_14
REMARK    5  A    between atoms: N_14  and  C_15
REMARK    6  A    between atoms: C_16  and  C_24
REMARK    7  A    between atoms: C_24  and  O_26
REMARK    8  A    between atoms: O_26  and  C_27
REMARK                            x       y       z     vdW  Elec       q    Type
REMARK                         _______ _______ _______ _____ _____    ______ ____
ROOT
ATOM      1  N   UNL     1      -2.049   7.078  -1.611  0.00  0.00    -0.209 N 
ATOM      2  H   UNL     1      -2.073   7.840  -1.011  0.00  0.00    +0.174 HD
ENDROOT
BRANCH   1   3
ATOM      3  C   UNL     1      -1.867   5.806  -1.104  0.00  0.00    +0.100 A 
ATOM      4  C   UNL     1      -1.605   5.428   0.208  0.00  0.00    +0.092 A 
ATOM      5  C   UNL     1      -1.454   4.007   0.478  0.00  0.00    -0.021 A 
ATOM      6  C   UNL     1      -1.587   3.200  -0.596  0.00  0.00    -0.004 A 
ATOM      7  S   UNL     1      -1.908   4.295  -1.950  0.00  0.00    -0.076 S 
ATOM      8  C   UNL     1      -1.482   1.706  -0.622  0.00  0.00    +0.043 C 
ATOM      9  C   UNL     1      -0.829   1.244   0.689  0.00  0.00    +0.005 C 
ATOM     10  C   UNL     1      -1.520   1.946   1.862  0.00  0.00    +0.005 C 
ATOM     11  C   UNL     1      -1.167   3.433   1.860  0.00  0.00    +0.037 C 
BRANCH   4  12
ATOM     12  C   UNL     1      -1.486   6.421   1.275  0.00  0.00    +0.342 C 
ATOM     13  O   UNL     1      -0.401   6.908   1.534  0.00  0.00    -0.245 OA
BRANCH  12  14
ATOM     14  O   UNL     1      -2.578   6.796   1.972  0.00  0.00    -0.464 OA
ATOM     15  C   UNL     1      -2.388   7.770   3.001  0.00  0.00    +0.280 C 
ENDBRANCH  12  14
ENDBRANCH   4  12
ENDBRANCH   1   3
BRANCH   1  16
ATOM     16  S   UNL     1      -2.228   7.303  -3.242  0.00  0.00    +0.074 S 
ATOM     17  O   UNL     1      -2.422   8.696  -3.441  0.00  0.00    -0.150 OA
ATOM     18  O   UNL     1      -1.175   6.583  -3.868  0.00  0.00    -0.150 OA
BRANCH  16  22
ATOM     19  C   UNL     1      -6.087   5.268  -4.459  0.00  0.00    +0.140 A 
ATOM     20  C   UNL     1      -4.874   4.813  -4.956  0.00  0.00    +0.049 A 
ATOM     21  C   UNL     1      -3.699   5.436  -4.583  0.00  0.00    +0.034 A 
ATOM     22  C   UNL     1      -3.729   6.511  -3.715  0.00  0.00    +0.128 A 
ATOM     23  C   UNL     1      -4.936   6.964  -3.213  0.00  0.00    +0.089 A 
ATOM     24  C   UNL     1      -6.117   6.347  -3.588  0.00  0.00    +0.103 A 
ATOM     25 CL   UNL     1      -7.633   6.919  -2.964  0.00  0.00    -0.078 Cl
ATOM     26 CL   UNL     1      -4.970   8.310  -2.116  0.00  0.00    -0.080 Cl
BRANCH  19  28
ATOM     27  C   UNL     1      -7.138   3.552  -5.725  0.00  0.00    +0.277 C 
ATOM     28  O   UNL     1      -7.245   4.656  -4.825  0.00  0.00    -0.494 OA
ENDBRANCH  19  28
ENDBRANCH  16  22
ENDBRANCH   1  16
TORSDOF 6
