REMARK  Name = ZINC14988772
REMARK  9 active torsions:
REMARK  status: ('A' for Active; 'I' for Inactive)
REMARK    1  A    between atoms: C_1  and  S_2
REMARK    2  A    between atoms: S_2  and  C_3
REMARK    3  A    between atoms: C_8  and  C_18
REMARK    4  A    between atoms: C_9  and  O_13
REMARK    5  A    between atoms: O_13  and  C_14
REMARK    6  A    between atoms: C_14  and  C_15
REMARK    7  A    between atoms: C_18  and  N_19
REMARK    8  A    between atoms: N_19  and  C_20
REMARK    9  A    between atoms: C_29  and  O_32
REMARK                            x       y       z     vdW  Elec       q    Type
REMARK                         _______ _______ _______ _____ _____    ______ ____
ROOT
ATOM      1  C   UNL     1       0.848  -0.411  -1.489  0.00  0.00    +0.010 A 
ATOM      2  C   UNL     1       1.315   0.614  -2.322  0.00  0.00    +0.015 A 
ATOM      3  C   UNL     1       1.971   0.326  -3.478  0.00  0.00    +0.011 A 
ATOM      4  C   UNL     1       2.186  -1.012  -3.846  0.00  0.00    +0.001 A 
ATOM      5  C   UNL     1       2.863  -1.340  -5.037  0.00  0.00    +0.017 A 
ATOM      6  C   UNL     1       3.041  -2.658  -5.338  0.00  0.00    -0.002 A 
ATOM      7  C   UNL     1       2.555  -3.644  -4.471  0.00  0.00    +0.217 A 
ATOM      8  N   UNL     1       1.923  -3.333  -3.360  0.00  0.00    -0.213 NA
ATOM      9  C   UNL     1       1.719  -2.057  -3.010  0.00  0.00    +0.076 A 
ATOM     10  C   UNL     1       1.049  -1.734  -1.820  0.00  0.00    +0.043 A 
ENDROOT
BRANCH   1  12
ATOM     11  C   UNL     1      -0.022   1.810   0.012  0.00  0.00    +0.090 C 
ATOM     12  S   UNL     1       0.002  -0.004   0.002  0.00  0.00    -0.129 S 
ENDBRANCH   1  12
BRANCH   7  13
ATOM     13  O   UNL     1       2.740  -4.950  -4.785  0.00  0.00    -0.471 OA
BRANCH  13  14
ATOM     14  C   UNL     1       2.224  -5.917  -3.867  0.00  0.00    +0.277 C 
BRANCH  14  15
ATOM     15  C   UNL     1       2.521  -7.303  -4.377  0.00  0.00    +0.049 C 
ATOM     16  C   UNL     1       3.329  -8.089  -3.708  0.00  0.00    +0.028 C 
ATOM     17 CL   UNL     1       1.794  -7.859  -5.853  0.00  0.00    -0.085 Cl
ENDBRANCH  14  15
ENDBRANCH  13  14
ENDBRANCH   7  13
BRANCH   6  18
ATOM     18  C   UNL     1       3.759  -3.053  -6.603  0.00  0.00    -0.041 C 
BRANCH  18  19
ATOM     19  N   UNL     1       2.776  -3.420  -7.630  0.00  0.00    +0.384 N 
ATOM     20  H   UNL     1       2.220  -4.196  -7.302  0.00  0.00    -0.085 HD
ATOM     21  H   UNL     1       2.174  -2.632  -7.817  0.00  0.00    -0.085 HD
BRANCH  19  22
ATOM     22  C   UNL     1       3.476  -3.805  -8.863  0.00  0.00    -0.065 C 
ATOM     23  C   UNL     1       4.291  -5.075  -8.611  0.00  0.00    -0.022 C 
ATOM     24  C   UNL     1       5.020  -5.476  -9.895  0.00  0.00    +0.005 C 
ATOM     25  C   UNL     1       3.997  -5.738 -11.002  0.00  0.00    -0.008 C 
ATOM     26  C   UNL     1       3.182  -4.468 -11.254  0.00  0.00    +0.005 C 
ATOM     27  C   UNL     1       2.453  -4.067  -9.970  0.00  0.00    -0.022 C 
ATOM     28  C   UNL     1       1.516  -5.198  -9.541  0.00  0.00    +0.036 C 
ATOM     29  C   UNL     1       2.331  -6.468  -9.290  0.00  0.00    +0.067 C 
ATOM     30  C   UNL     1       3.354  -6.206  -8.182  0.00  0.00    +0.036 C 
ATOM     31  C   UNL     1       3.060  -6.869 -10.573  0.00  0.00    +0.038 C 
BRANCH  29  32
ATOM     32  O   UNL     1       1.456  -7.524  -8.889  0.00  0.00    -0.389 OA
ATOM     33  H   UNL     1       1.905  -8.362  -8.712  0.00  0.00    +0.210 HD
ENDBRANCH  29  32
ENDBRANCH  19  22
ENDBRANCH  18  19
ENDBRANCH   6  18
TORSDOF 8
