REMARK  Name = ZINC40399784
REMARK  13 active torsions:
REMARK  status: ('A' for Active; 'I' for Inactive)
REMARK    1  A    between atoms: C_1  and  C_2
REMARK    2  A    between atoms: C_2  and  C_3
REMARK    3  A    between atoms: C_3  and  C_5
REMARK    4  A    between atoms: C_3  and  C_6
REMARK    5  A    between atoms: N_10  and  C_29
REMARK    6  A    between atoms: N_15  and  C_18
REMARK    7  A    between atoms: C_18  and  N_20
REMARK    8  A    between atoms: N_20  and  C_21
REMARK    9  A    between atoms: C_24  and  O_27
REMARK   10  A    between atoms: O_27  and  C_28
REMARK   11  A    between atoms: C_29  and  C_30
REMARK   12  A    between atoms: C_30  and  C_31
REMARK   13  A    between atoms: C_30  and  C_32
REMARK                            x       y       z     vdW  Elec       q    Type
REMARK                         _______ _______ _______ _____ _____    ______ ____
ROOT
ATOM      1  C   UNL     1      -1.284  -1.866  -0.338  0.00  0.00    +0.022 C 
ATOM      2  C   UNL     1      -0.765  -2.342  -1.678  0.00  0.00    +0.201 C 
ATOM      3  O   UNL     1       0.171  -1.866  -2.285  0.00  0.00    -0.277 OA
ATOM      4  N   UNL     1      -1.519  -3.386  -2.082  0.00  0.00    -0.313 N 
ATOM      5  C   UNL     1      -2.545  -3.667  -1.074  0.00  0.00    +0.006 C 
ATOM      6  N   UNL     1      -2.636  -2.463  -0.220  0.00  0.00    +0.401 N 
ATOM      7  C   UNL     1      -2.137  -4.870  -0.226  0.00  0.00    +0.025 C 
ATOM      8  C   UNL     1      -2.006  -6.104  -1.124  0.00  0.00    +0.107 C 
ATOM      9  N   UNL     1      -3.258  -6.279  -1.872  0.00  0.00    -0.312 N 
ATOM     10  C   UNL     1      -3.775  -5.152  -2.661  0.00  0.00    +0.107 C 
ATOM     11  C   UNL     1      -3.891  -3.925  -1.749  0.00  0.00    +0.025 C 
ATOM     12  H   UNL     1      -2.831  -2.717   0.737  0.00  0.00    -0.082 HD
ATOM     13  H   UNL     1      -3.338  -1.829  -0.571  0.00  0.00    -0.082 HD
ENDROOT
BRANCH   1  14
ATOM     14  C   UNL     1      -1.372  -0.338  -0.314  0.00  0.00    -0.020 C 
ATOM     15  C   UNL     1      -1.967   0.117   1.020  0.00  0.00    +0.006 C 
BRANCH  14  17
ATOM     16  C   UNL     1      -0.072   1.779  -0.577  0.00  0.00    +0.004 C 
ATOM     17  C   UNL     1       0.029   0.256  -0.477  0.00  0.00    -0.001 C 
ENDBRANCH  14  17
ENDBRANCH   1  14
BRANCH   9  18
ATOM     18  C   UNL     1      -3.921  -7.452  -1.837  0.00  0.00    +0.137 C 
ATOM     19  S   UNL     1      -3.378  -8.711  -0.811  0.00  0.00    -0.018 S 
BRANCH  18  20
ATOM     20  N   UNL     1      -5.011  -7.634  -2.608  0.00  0.00    -0.297 N 
ATOM     21  H   UNL     1      -5.897  -7.556  -2.221  0.00  0.00    +0.154 HD
BRANCH  20  22
ATOM     22  C   UNL     1      -4.864  -7.936  -3.968  0.00  0.00    +0.033 A 
ATOM     23  C   UNL     1      -3.600  -7.954  -4.543  0.00  0.00    +0.027 A 
ATOM     24  C   UNL     1      -3.456  -8.252  -5.884  0.00  0.00    +0.047 A 
ATOM     25  C   UNL     1      -4.574  -8.533  -6.656  0.00  0.00    +0.120 A 
ATOM     26  C   UNL     1      -5.837  -8.515  -6.082  0.00  0.00    +0.047 A 
ATOM     27  C   UNL     1      -5.982  -8.223  -4.740  0.00  0.00    +0.027 A 
BRANCH  25  28
ATOM     28  O   UNL     1      -4.431  -8.826  -7.976  0.00  0.00    -0.495 OA
ATOM     29  C   UNL     1      -5.624  -9.106  -8.711  0.00  0.00    +0.277 C 
ENDBRANCH  25  28
ENDBRANCH  20  22
ENDBRANCH  18  20
ENDBRANCH   9  18
BRANCH   4  30
ATOM     30  C   UNL     1      -1.339  -4.124  -3.334  0.00  0.00    +0.109 C 
BRANCH  30  31
ATOM     31  C   UNL     1      -2.150  -3.452  -4.444  0.00  0.00    +0.000 C 
ATOM     32  C   UNL     1      -1.574  -2.064  -4.727  0.00  0.00    +0.009 C 
ATOM     33  C   UNL     1      -2.079  -4.303  -5.714  0.00  0.00    +0.009 C 
ENDBRANCH  30  31
ENDBRANCH   4  30
TORSDOF 8
