REMARK  Name = ZINC12218824
REMARK  11 active torsions:
REMARK  status: ('A' for Active; 'I' for Inactive)
REMARK    1  A    between atoms: C_1  and  C_2
REMARK    2  A    between atoms: C_5  and  C_35
REMARK    3  A    between atoms: C_6  and  C_8
REMARK    4  A    between atoms: C_8  and  N_65
REMARK    5  A    between atoms: C_10  and  S_27
REMARK    6  A    between atoms: C_13  and  C_15
REMARK    7  A    between atoms: N_17  and  C_18
REMARK    8  A    between atoms: C_18  and  C_19
REMARK    9  A    between atoms: C_24  and  O_25
REMARK   10  A    between atoms: O_25  and  C_26
REMARK   11  A    between atoms: S_27  and  C_28
REMARK                            x       y       z     vdW  Elec       q    Type
REMARK                         _______ _______ _______ _____ _____    ______ ____
ROOT
ATOM      1  C   UNL     1       1.419   3.585  -1.499  0.00  0.00    -0.063 C 
ATOM      2  C   UNL     1       0.676   3.382  -2.844  0.00  0.00    +0.034 C 
ATOM      3  C   UNL     1      -0.530   2.502  -2.443  0.00  0.00    +0.006 C 
ATOM      4  C   UNL     1      -0.112   1.822  -1.127  0.00  0.00    +0.021 C 
ATOM      5  N   UNL     1       1.254   2.280  -0.849  0.00  0.00    +0.391 N 
ATOM      6  H   UNL     1       1.931   1.612  -1.236  0.00  0.00    -0.080 HD
ENDROOT
BRANCH   4   7
ATOM      7  C   UNL     1      -0.138   0.324  -1.293  0.00  0.00    +0.200 C 
ATOM      8  O   UNL     1       0.885  -0.317  -1.172  0.00  0.00    -0.278 OA
ATOM      9  N   UNL     1      -1.297  -0.303  -1.574  0.00  0.00    -0.312 N 
ATOM     10  H   UNL     1      -2.115   0.210  -1.671  0.00  0.00    +0.149 HD
BRANCH   9  11
ATOM     11  C   UNL     1      -1.322  -1.759  -1.736  0.00  0.00    +0.143 C 
BRANCH  11  12
ATOM     12  C   UNL     1      -2.728  -2.206  -2.044  0.00  0.00    +0.011 A 
ATOM     13  C   UNL     1      -3.519  -2.737  -1.043  0.00  0.00    +0.009 A 
ATOM     14  C   UNL     1      -4.811  -3.143  -1.324  0.00  0.00    +0.001 A 
ATOM     15  C   UNL     1      -5.310  -3.028  -2.609  0.00  0.00    +0.004 A 
ATOM     16  C   UNL     1      -4.521  -2.502  -3.613  0.00  0.00    +0.046 A 
ATOM     17  C   UNL     1      -3.227  -2.090  -3.333  0.00  0.00    +0.125 A 
BRANCH  17  18
ATOM     18  O   UNL     1      -2.448  -1.572  -4.319  0.00  0.00    -0.495 OA
ATOM     19  C   UNL     1      -3.027  -1.483  -5.623  0.00  0.00    +0.277 C 
ENDBRANCH  17  18
ENDBRANCH  11  12
ENDBRANCH   9  11
ENDBRANCH   4   7
BRANCH   5  20
ATOM     20  C   UNL     1       1.470   2.397   0.625  0.00  0.00    -0.042 C 
BRANCH  20  26
ATOM     21  C   UNL     1       4.349   6.241   2.033  0.00  0.00    +0.044 C 
ATOM     22  C   UNL     1       4.213   4.815   1.564  0.00  0.00    -0.050 A 
ATOM     23  C   UNL     1       5.341   4.038   1.377  0.00  0.00    +0.003 A 
ATOM     24  C   UNL     1       5.217   2.731   0.947  0.00  0.00    +0.004 A 
ATOM     25  C   UNL     1       3.964   2.198   0.708  0.00  0.00    -0.049 A 
ATOM     26  C   UNL     1       2.836   2.976   0.890  0.00  0.00    -0.061 A 
ATOM     27  C   UNL     1       2.960   4.284   1.321  0.00  0.00    +0.005 A 
ATOM     28  C   UNL     1       3.828   0.771   0.244  0.00  0.00    +0.044 C 
ENDBRANCH  20  26
ENDBRANCH   5  20
BRANCH   2  29
ATOM     29  S   UNL     1       0.121   4.973  -3.517  0.00  0.00    -0.124 S 
BRANCH  29  30
ATOM     30  C   UNL     1       1.613   5.775  -4.002  0.00  0.00    +0.008 A 
ATOM     31  C   UNL     1       1.580   7.084  -4.467  0.00  0.00    +0.017 A 
ATOM     32  C   UNL     1       2.752   7.712  -4.841  0.00  0.00    +0.039 A 
ATOM     33  C   UNL     1       3.957   7.035  -4.763  0.00  0.00    +0.123 A 
ATOM     34  C   UNL     1       3.992   5.729  -4.305  0.00  0.00    +0.039 A 
ATOM     35  C   UNL     1       2.824   5.098  -3.925  0.00  0.00    +0.017 A 
ATOM     36  F   UNL     1       5.101   7.650  -5.135  0.00  0.00    -0.205 F 
ENDBRANCH  29  30
ENDBRANCH   2  29
TORSDOF 8
