REMARK  Name = ZINC01441820
REMARK  5 active torsions:
REMARK  status: ('A' for Active; 'I' for Inactive)
REMARK    1  A    between atoms: C_8  and  C_22
REMARK    2  A    between atoms: N_10  and  S_12
REMARK    3  A    between atoms: S_12  and  C_15
REMARK    4  A    between atoms: N_24  and  C_25
REMARK    5  A    between atoms: C_26  and  C_34
REMARK                            x       y       z     vdW  Elec       q    Type
REMARK                         _______ _______ _______ _____ _____    ______ ____
ROOT
ATOM      1  C   UNL     1       2.718   3.044  -6.570  0.00  0.00    +0.000 A 
ATOM      2  C   UNL     1       3.574   2.120  -5.999  0.00  0.00    +0.000 A 
ATOM      3  C   UNL     1       3.861   2.195  -4.652  0.00  0.00    +0.005 A 
ATOM      4  C   UNL     1       3.298   3.192  -3.866  0.00  0.00    -0.028 A 
ATOM      5  C   UNL     1       2.439   4.106  -4.431  0.00  0.00    -0.041 A 
ATOM      6  C   UNL     1       2.154   4.030  -5.790  0.00  0.00    +0.004 A 
ATOM      7  C   UNL     1       1.777   5.204  -3.640  0.00  0.00    +0.065 C 
ATOM      8  C   UNL     1       2.533   5.468  -2.339  0.00  0.00    +0.170 C 
ATOM      9  N   UNL     1       2.797   4.170  -1.696  0.00  0.00    -0.160 NA
ATOM     10  C   UNL     1       3.679   3.235  -2.403  0.00  0.00    +0.145 C 
ENDROOT
BRANCH   8  11
ATOM     11  C   UNL     1       1.696   6.328  -1.427  0.00  0.00    +0.237 C 
ATOM     12  O   UNL     1       0.530   6.053  -1.236  0.00  0.00    -0.274 OA
ATOM     13  N   UNL     1       2.243   7.402  -0.824  0.00  0.00    -0.278 N 
ATOM     14  H   UNL     1       3.176   7.621  -0.977  0.00  0.00    +0.155 HD
BRANCH  13  15
ATOM     15  C   UNL     1       1.472   8.193   0.016  0.00  0.00    +0.090 A 
ATOM     16  C   UNL     1       1.853   9.324   0.724  0.00  0.00    +0.084 A 
ATOM     17  C   UNL     1       0.844   9.979   1.537  0.00  0.00    -0.018 A 
ATOM     18  C   UNL     1      -0.376   9.396   1.521  0.00  0.00    -0.004 A 
ATOM     19  S   UNL     1      -0.197   8.005   0.441  0.00  0.00    -0.077 S 
ATOM     20  C   UNL     1      -1.599   9.841   2.261  0.00  0.00    +0.043 C 
ATOM     21  C   UNL     1      -1.173  10.846   3.341  0.00  0.00    +0.005 C 
ATOM     22  C   UNL     1      -0.237  11.881   2.709  0.00  0.00    +0.005 C 
ATOM     23  C   UNL     1       1.104  11.230   2.367  0.00  0.00    +0.037 C 
BRANCH  16  24
ATOM     24  C   UNL     1       3.191   9.829   0.652  0.00  0.00    +0.102 C 
ATOM     25  N   UNL     1       4.253  10.229   0.596  0.00  0.00    -0.191 NA
ENDBRANCH  16  24
ENDBRANCH  13  15
ENDBRANCH   8  11
BRANCH   9  26
ATOM     26  S   UNL     1       2.129   3.783  -0.231  0.00  0.00    +0.062 S 
ATOM     27  O   UNL     1       1.720   5.006   0.365  0.00  0.00    -0.153 OA
ATOM     28  O   UNL     1       3.034   2.890   0.405  0.00  0.00    -0.153 OA
BRANCH  26  29
ATOM     29  C   UNL     1       0.660   2.864  -0.554  0.00  0.00    +0.106 A 
ATOM     30  C   UNL     1       0.716   1.487  -0.662  0.00  0.00    +0.031 A 
ATOM     31  C   UNL     1      -0.435   0.766  -0.915  0.00  0.00    +0.040 A 
ATOM     32  C   UNL     1      -1.644   1.423  -1.067  0.00  0.00    +0.124 A 
ATOM     33  C   UNL     1      -1.700   2.802  -0.955  0.00  0.00    +0.040 A 
ATOM     34  C   UNL     1      -0.547   3.522  -0.701  0.00  0.00    +0.031 A 
ATOM     35  F   UNL     1      -2.769   0.720  -1.320  0.00  0.00    -0.205 F 
ENDBRANCH  26  29
ENDBRANCH   9  26
TORSDOF 5
