REMARK  Name = ZINC24198350
REMARK  7 active torsions:
REMARK  status: ('A' for Active; 'I' for Inactive)
REMARK    1  A    between atoms: C_1  and  C_2
REMARK    2  A    between atoms: C_5  and  N_9
REMARK    3  A    between atoms: C_6  and  C_8
REMARK    4  A    between atoms: C_13  and  S_14
REMARK    5  A    between atoms: S_14  and  C_15
REMARK    6  A    between atoms: C_15  and  C_16
REMARK    7  A    between atoms: N_18  and  C_19
REMARK                            x       y       z     vdW  Elec       q    Type
REMARK                         _______ _______ _______ _____ _____    ______ ____
ROOT
ATOM      1  S   UNL     1      -1.490   2.507  -2.949  0.00  0.00    -0.076 S 
ENDROOT
BRANCH   1   6
ATOM      2  N   UNL     1      -3.977   3.531  -3.729  0.00  0.00    -0.277 N 
ATOM      3  C   UNL     1      -5.019   4.170  -3.110  0.00  0.00    +0.230 A 
ATOM      4  N   UNL     1      -4.703   4.296  -1.852  0.00  0.00    -0.137 NA
ATOM      5  N   UNL     1      -3.546   3.781  -1.632  0.00  0.00    -0.122 NA
ATOM      6  C   UNL     1      -3.050   3.302  -2.750  0.00  0.00    +0.196 A 
BRANCH   2  11
ATOM      7  C   UNL     1      -3.588   2.128  -9.215  0.00  0.00    +0.044 C 
ATOM      8  C   UNL     1      -3.692   2.500  -7.759  0.00  0.00    -0.050 A 
ATOM      9  C   UNL     1      -3.734   3.832  -7.388  0.00  0.00    +0.005 A 
ATOM     10  C   UNL     1      -3.829   4.177  -6.054  0.00  0.00    +0.027 A 
ATOM     11  C   UNL     1      -3.882   3.184  -5.085  0.00  0.00    +0.053 A 
ATOM     12  C   UNL     1      -3.834   1.849  -5.459  0.00  0.00    -0.026 A 
ATOM     13  C   UNL     1      -3.744   1.510  -6.795  0.00  0.00    +0.008 A 
ATOM     14  C   UNL     1      -3.885   0.769  -4.409  0.00  0.00    +0.046 C 
ENDBRANCH   2  11
ENDBRANCH   1   6
BRANCH   1  15
ATOM     15  C   UNL     1      -0.877   2.588  -1.248  0.00  0.00    +0.173 C 
BRANCH  15  16
ATOM     16  C   UNL     1       0.485   1.949  -1.174  0.00  0.00    +0.228 C 
ATOM     17  O   UNL     1       0.992   1.484  -2.173  0.00  0.00    -0.275 OA
ATOM     18  N   UNL     1       1.143   1.898   0.001  0.00  0.00    -0.282 N 
ATOM     19  H   UNL     1       0.722   2.392   0.889  0.00  0.00    +0.155 HD
BRANCH  18  20
ATOM     20  C   UNL     1       2.365   1.218   0.092  0.00  0.00    +0.071 A 
ATOM     21  C   UNL     1       2.386  -0.136   0.402  0.00  0.00    +0.065 A 
ATOM     22  C   UNL     1       3.592  -0.806   0.485  0.00  0.00    +0.042 A 
ATOM     23  C   UNL     1       4.778  -0.127   0.271  0.00  0.00    +0.044 A 
ATOM     24  C   UNL     1       4.761   1.223  -0.033  0.00  0.00    +0.042 A 
ATOM     25  C   UNL     1       3.557   1.897  -0.123  0.00  0.00    +0.065 A 
ATOM     26 CL   UNL     1       3.537   3.591  -0.504  0.00  0.00    -0.082 Cl
ATOM     27 CL   UNL     1       6.292  -0.970   0.384  0.00  0.00    -0.083 Cl
ATOM     28 CL   UNL     1       0.898  -0.987   0.679  0.00  0.00    -0.082 Cl
ENDBRANCH  18  20
ENDBRANCH  15  16
ENDBRANCH   1  15
TORSDOF 5
