REMARK  Name = ZINC64179113
REMARK  8 active torsions:
REMARK  status: ('A' for Active; 'I' for Inactive)
REMARK    1  A    between atoms: C_1  and  C_2
REMARK    2  A    between atoms: C_2  and  O_3
REMARK    3  A    between atoms: O_3  and  C_4
REMARK    4  A    between atoms: C_9  and  O_10
REMARK    5  A    between atoms: O_10  and  C_11
REMARK    6  A    between atoms: C_11  and  C_12
REMARK    7  A    between atoms: C_12  and  C_13
REMARK    8  A    between atoms: C_18  and  C_21
REMARK                            x       y       z     vdW  Elec       q    Type
REMARK                         _______ _______ _______ _____ _____    ______ ____
ROOT
ATOM      1  C   UNL     1       3.773  -1.638  -6.644  0.00  0.00    +0.219 C 
ATOM      2  O   UNL     1       3.835  -2.846  -6.731  0.00  0.00    -0.275 OA
ATOM      3  N   UNL     1       4.310  -0.864  -7.608  0.00  0.00    -0.301 N 
ATOM      4  C   UNL     1       4.248   0.601  -7.514  0.00  0.00    +0.108 C 
ATOM      5  C   UNL     1       5.665   1.164  -7.659  0.00  0.00    +0.027 C 
ATOM      6  C   UNL     1       6.286   0.644  -8.957  0.00  0.00    +0.020 C 
ATOM      7  C   UNL     1       6.377  -0.883  -8.905  0.00  0.00    +0.027 C 
ATOM      8  C   UNL     1       4.973  -1.470  -8.771  0.00  0.00    +0.108 C 
ENDROOT
BRANCH   6   9
ATOM      9  C   UNL     1       7.668   1.224  -9.120  0.00  0.00    -0.038 C 
ATOM     10  C   UNL     1       8.108   2.001 -10.136  0.00  0.00    -0.001 A 
ATOM     11  C   UNL     1       7.459   2.519 -11.346  0.00  0.00    +0.010 A 
ATOM     12  C   UNL     1       8.175   3.289 -12.196  0.00  0.00    +0.001 A 
ATOM     13  C   UNL     1       9.519   3.605 -11.951  0.00  0.00    +0.002 A 
ATOM     14  C   UNL     1      10.184   3.166 -10.861  0.00  0.00    +0.026 A 
ATOM     15  C   UNL     1       9.528   2.349  -9.899  0.00  0.00    +0.043 A 
ATOM     16  N   UNL     1       9.948   1.808  -8.782  0.00  0.00    -0.380 N 
ATOM     17  C   UNL     1       8.840   1.059  -8.179  0.00  0.00    +0.145 C 
ATOM     18  H   UNL     1      10.841   1.891  -8.413  0.00  0.00    +0.160 HD
ENDBRANCH   6   9
BRANCH   1  19
ATOM     19  C   UNL     1       3.096  -1.002  -5.457  0.00  0.00    +0.137 C 
BRANCH  19  20
ATOM     20  C   UNL     1       2.578  -2.095  -4.520  0.00  0.00    +0.238 C 
BRANCH  20  21
ATOM     21  O   UNL     1       1.936  -1.492  -3.394  0.00  0.00    -0.488 OA
BRANCH  21  27
ATOM     22  C   UNL     1       0.777  -1.811  -1.336  0.00  0.00    +0.162 A 
ATOM     23  C   UNL     1       0.243  -2.669  -0.388  0.00  0.00    +0.049 A 
ATOM     24  C   UNL     1       0.352  -4.037  -0.555  0.00  0.00    +0.004 A 
ATOM     25  C   UNL     1       0.992  -4.552  -1.667  0.00  0.00    +0.004 A 
ATOM     26  C   UNL     1       1.526  -3.702  -2.616  0.00  0.00    +0.049 A 
ATOM     27  C   UNL     1       1.416  -2.330  -2.458  0.00  0.00    +0.162 A 
BRANCH  22  28
ATOM     28  O   UNL     1       0.671  -0.465  -1.174  0.00  0.00    -0.489 OA
BRANCH  28  30
ATOM     29  C   UNL     1      -0.019   1.526   0.010  0.00  0.00    +0.048 C 
ATOM     30  C   UNL     1       0.002  -0.004   0.002  0.00  0.00    +0.226 C 
ENDBRANCH  28  30
ENDBRANCH  22  28
ENDBRANCH  21  27
ENDBRANCH  20  21
ENDBRANCH  19  20
ENDBRANCH   1  19
TORSDOF 7
