REMARK  Name = ZINC09223545
REMARK  8 active torsions:
REMARK  status: ('A' for Active; 'I' for Inactive)
REMARK    1  A    between atoms: C_1  and  C_2
REMARK    2  A    between atoms: C_7  and  N_8
REMARK    3  A    between atoms: N_8  and  C_9
REMARK    4  A    between atoms: N_8  and  S_26
REMARK    5  A    between atoms: C_9  and  C_10
REMARK    6  A    between atoms: N_15  and  S_18
REMARK    7  A    between atoms: S_18  and  C_21
REMARK    8  A    between atoms: S_26  and  C_29
REMARK                            x       y       z     vdW  Elec       q    Type
REMARK                         _______ _______ _______ _____ _____    ______ ____
ROOT
ATOM      1  C   UNL     1      -1.134  -0.653   2.274  0.00  0.00    +0.235 C 
ATOM      2  O   UNL     1      -0.175  -0.306   2.931  0.00  0.00    -0.274 OA
ATOM      3  N   UNL     1      -1.731  -1.834   2.525  0.00  0.00    -0.298 N 
ATOM      4  C   UNL     1      -2.897  -2.264   1.740  0.00  0.00    +0.125 C 
ATOM      5  C   UNL     1      -2.593  -3.645   1.135  0.00  0.00    +0.128 C 
ATOM      6  N   UNL     1      -2.094  -4.524   2.202  0.00  0.00    -0.173 NA
ATOM      7  C   UNL     1      -0.932  -4.092   2.990  0.00  0.00    +0.128 C 
ATOM      8  C   UNL     1      -1.233  -2.713   3.591  0.00  0.00    +0.125 C 
ENDROOT
BRANCH   6   9
ATOM      9  S   UNL     1      -2.829  -5.976   2.511  0.00  0.00    +0.067 S 
ATOM     10  O   UNL     1      -3.491  -6.359   1.313  0.00  0.00    -0.152 OA
ATOM     11  O   UNL     1      -1.856  -6.798   3.140  0.00  0.00    -0.152 OA
BRANCH   9  12
ATOM     12  C   UNL     1      -4.087  -5.678   3.708  0.00  0.00    +0.143 A 
ATOM     13  C   UNL     1      -5.386  -5.343   3.517  0.00  0.00    +0.036 A 
ATOM     14  C   UNL     1      -6.201  -5.160   4.618  0.00  0.00    +0.010 A 
ATOM     15  C   UNL     1      -5.675  -5.312   5.858  0.00  0.00    +0.047 A 
ATOM     16  S   UNL     1      -3.979  -5.732   5.490  0.00  0.00    -0.077 S 
ENDBRANCH   9  12
ENDBRANCH   6   9
BRANCH   1  17
ATOM     17  C   UNL     1      -1.656   0.238   1.176  0.00  0.00    +0.227 C 
BRANCH  17  18
ATOM     18  N   UNL     1      -0.842   1.454   1.105  0.00  0.00    -0.199 N 
BRANCH  18  25
ATOM     19  C   UNL     1      -3.144   3.020   0.523  0.00  0.00    +0.046 C 
ATOM     20  C   UNL     1      -2.244   3.329   1.691  0.00  0.00    -0.028 A 
ATOM     21  C   UNL     1      -2.525   4.399   2.517  0.00  0.00    +0.005 A 
ATOM     22  C   UNL     1      -1.700   4.683   3.590  0.00  0.00    +0.000 A 
ATOM     23  C   UNL     1      -0.589   3.896   3.838  0.00  0.00    +0.002 A 
ATOM     24  C   UNL     1      -0.305   2.822   3.019  0.00  0.00    +0.025 A 
ATOM     25  C   UNL     1      -1.129   2.537   1.938  0.00  0.00    +0.054 A 
ENDBRANCH  18  25
BRANCH  18  26
ATOM     26  S   UNL     1       0.420   1.543   0.035  0.00  0.00    +0.043 S 
ATOM     27  O   UNL     1       0.901   0.210  -0.070  0.00  0.00    -0.155 OA
ATOM     28  O   UNL     1       1.253   2.576   0.544  0.00  0.00    -0.155 OA
ATOM     29  C   UNL     1      -0.333   2.062  -1.531  0.00  0.00    +0.218 C 
ENDBRANCH  18  26
ENDBRANCH  17  18
ENDBRANCH   1  17
TORSDOF 6
