REMARK  Name = ZINC39605846
REMARK  10 active torsions:
REMARK  status: ('A' for Active; 'I' for Inactive)
REMARK    1  A    between atoms: C_1  and  C_2
REMARK    2  A    between atoms: C_2  and  C_3
REMARK    3  A    between atoms: C_3  and  C_5
REMARK    4  A    between atoms: C_3  and  C_6
REMARK    5  A    between atoms: C_6  and  N_7
REMARK    6  A    between atoms: C_8  and  C_10
REMARK    7  A    between atoms: C_21  and  C_23
REMARK    8  A    between atoms: C_26  and  O_29
REMARK    9  A    between atoms: O_29  and  C_30
REMARK   10  A    between atoms: C_30  and  C_31
REMARK                            x       y       z     vdW  Elec       q    Type
REMARK                         _______ _______ _______ _____ _____    ______ ____
ROOT
ATOM      1  C   UNL     1       3.159  -4.273   4.154  0.00  0.00    +0.100 C 
ATOM      2  C   UNL     1       2.230  -3.804   5.296  0.00  0.00    +0.121 C 
ATOM      3  N   UNL     1       1.411  -4.995   5.625  0.00  0.00    -0.296 N 
ATOM      4  C   UNL     1       2.360  -6.130   5.534  0.00  0.00    +0.115 C 
ATOM      5  C   UNL     1       3.245  -5.800   4.316  0.00  0.00    -0.004 C 
ATOM      6  C   UNL     1       4.687  -6.223   4.581  0.00  0.00    -0.010 C 
ATOM      7  C   UNL     1       4.756  -7.749   4.680  0.00  0.00    -0.082 C 
ATOM      8  N   UNL     1       4.272  -8.345   3.429  0.00  0.00    +0.379 N 
ATOM      9  C   UNL     1       2.857  -8.010   3.230  0.00  0.00    -0.082 C 
ATOM     10  C   UNL     1       2.707  -6.494   3.069  0.00  0.00    -0.010 C 
ATOM     11  C   UNL     1       0.101  -5.036   5.937  0.00  0.00    +0.247 C 
ATOM     12  O   UNL     1      -0.577  -4.031   5.848  0.00  0.00    -0.270 OA
ATOM     13  H   UNL     1       4.813  -7.988   2.656  0.00  0.00    -0.086 HD
ATOM     14  H   UNL     1       4.375  -9.348   3.474  0.00  0.00    -0.086 HD
ENDROOT
BRANCH  11  15
ATOM     15  C   UNL     1      -0.511  -6.301   6.387  0.00  0.00    +0.037 A 
ATOM     16  C   UNL     1       0.290  -7.320   6.909  0.00  0.00    +0.016 A 
ATOM     17  C   UNL     1      -0.285  -8.499   7.328  0.00  0.00    +0.046 A 
ATOM     18  C   UNL     1      -1.660  -8.677   7.232  0.00  0.00    +0.121 A 
ATOM     19  C   UNL     1      -2.461  -7.666   6.713  0.00  0.00    +0.046 A 
ATOM     20  C   UNL     1      -1.894  -6.481   6.297  0.00  0.00    +0.016 A 
BRANCH  18  21
ATOM     21  O   UNL     1      -2.223  -9.841   7.645  0.00  0.00    -0.492 OA
BRANCH  21  22
ATOM     22  C   UNL     1      -3.642  -9.956   7.518  0.00  0.00    +0.225 C 
ATOM     23  C   UNL     1      -4.090 -11.326   8.031  0.00  0.00    +0.048 C 
ENDBRANCH  21  22
ENDBRANCH  18  21
ENDBRANCH  11  15
BRANCH   1  25
ATOM     24  N   UNL     1       3.363  -3.787   1.737  0.00  0.00    -0.315 N 
ATOM     25  C   UNL     1       2.565  -3.920   2.815  0.00  0.00    +0.218 C 
ATOM     26  O   UNL     1       1.368  -3.755   2.707  0.00  0.00    -0.275 OA
ATOM     27  H   UNL     1       4.320  -3.918   1.823  0.00  0.00    +0.149 HD
BRANCH  24  28
ATOM     28  C   UNL     1       2.785  -3.444   0.436  0.00  0.00    +0.107 C 
BRANCH  28  29
ATOM     29  C   UNL     1       3.899  -3.355  -0.610  0.00  0.00    +0.003 C 
ATOM     30  C   UNL     1       4.832  -2.194  -0.263  0.00  0.00    +0.009 C 
BRANCH  29  32
ATOM     31  C   UNL     1       4.386  -3.156  -3.052  0.00  0.00    +0.004 C 
ATOM     32  C   UNL     1       3.284  -3.120  -1.991  0.00  0.00    +0.001 C 
ENDBRANCH  29  32
ENDBRANCH  28  29
ENDBRANCH  24  28
ENDBRANCH   1  25
TORSDOF 7
