REMARK  Name = ZINC39657091
REMARK  8 active torsions:
REMARK  status: ('A' for Active; 'I' for Inactive)
REMARK    1  A    between atoms: C_1  and  C_2
REMARK    2  A    between atoms: C_2  and  C_4
REMARK    3  A    between atoms: C_2  and  N_11
REMARK    4  A    between atoms: C_12  and  C_14
REMARK    5  A    between atoms: C_25  and  C_27
REMARK    6  A    between atoms: C_27  and  C_28
REMARK    7  A    between atoms: C_28  and  C_29
REMARK    8  A    between atoms: C_29  and  C_30
REMARK                            x       y       z     vdW  Elec       q    Type
REMARK                         _______ _______ _______ _____ _____    ______ ____
ROOT
ATOM      1  C   UNL     1       2.783  -1.099   2.395  0.00  0.00    +0.100 C 
ATOM      2  C   UNL     1       2.274  -2.504   2.788  0.00  0.00    +0.121 C 
ATOM      3  N   UNL     1       3.225  -3.440   2.144  0.00  0.00    -0.300 N 
ATOM      4  C   UNL     1       4.548  -2.793   2.309  0.00  0.00    +0.115 C 
ATOM      5  C   UNL     1       4.277  -1.292   2.085  0.00  0.00    -0.004 C 
ATOM      6  C   UNL     1       5.126  -0.454   3.034  0.00  0.00    -0.010 C 
ATOM      7  C   UNL     1       6.604  -0.617   2.669  0.00  0.00    -0.082 C 
ATOM      8  N   UNL     1       6.818  -0.189   1.282  0.00  0.00    +0.379 N 
ATOM      9  C   UNL     1       6.069  -1.060   0.368  0.00  0.00    -0.082 C 
ATOM     10  C   UNL     1       4.569  -0.915   0.635  0.00  0.00    -0.010 C 
ATOM     11  C   UNL     1       2.949  -4.615   1.544  0.00  0.00    +0.216 C 
ATOM     12  O   UNL     1       3.844  -5.274   1.059  0.00  0.00    -0.276 OA
ATOM     13  H   UNL     1       6.500   0.763   1.173  0.00  0.00    -0.086 HD
ATOM     14  H   UNL     1       7.801  -0.239   1.063  0.00  0.00    -0.086 HD
ENDROOT
BRANCH   1  16
ATOM     15  N   UNL     1       1.886   0.724   0.984  0.00  0.00    -0.308 N 
ATOM     16  C   UNL     1       2.054  -0.600   1.174  0.00  0.00    +0.219 C 
ATOM     17  O   UNL     1       1.618  -1.389   0.362  0.00  0.00    -0.275 OA
ATOM     18  H   UNL     1       2.234   1.355   1.632  0.00  0.00    +0.149 HD
BRANCH  15  20
ATOM     19  C   UNL     1       2.156   1.314  -1.375  0.00  0.00    +0.033 C 
ATOM     20  C   UNL     1       1.177   1.209  -0.203  0.00  0.00    +0.100 C 
BRANCH  20  21
ATOM     21  C   UNL     1       0.589   2.567   0.083  0.00  0.00    -0.027 A 
ATOM     22  C   UNL     1       1.313   3.494   0.809  0.00  0.00    +0.006 A 
ATOM     23  C   UNL     1       0.774   4.740   1.071  0.00  0.00    +0.015 A 
ATOM     24  C   UNL     1      -0.489   5.058   0.607  0.00  0.00    +0.018 A 
ATOM     25  C   UNL     1      -1.213   4.130  -0.119  0.00  0.00    +0.015 A 
ATOM     26  C   UNL     1      -0.672   2.886  -0.386  0.00  0.00    +0.006 A 
ATOM     27 BR   UNL     1      -1.227   6.762   0.966  0.00  0.00    -0.050 Br
ENDBRANCH  20  21
ENDBRANCH  15  20
ENDBRANCH   1  16
BRANCH  11  28
ATOM     28  C   UNL     1       1.527  -5.111   1.475  0.00  0.00    +0.096 C 
BRANCH  28  29
ATOM     29  C   UNL     1       1.490  -6.457   0.749  0.00  0.00    +0.014 C 
BRANCH  29  30
ATOM     30  C   UNL     1       0.047  -6.959   0.679  0.00  0.00    +0.035 C 
BRANCH  30  31
ATOM     31  C   UNL     1       0.011  -8.285  -0.037  0.00  0.00    -0.047 A 
ATOM     32  C   UNL     1      -0.148  -8.325  -1.409  0.00  0.00    +0.003 A 
ATOM     33  C   UNL     1      -0.181  -9.541  -2.066  0.00  0.00    +0.000 A 
ATOM     34  C   UNL     1      -0.055 -10.717  -1.350  0.00  0.00    +0.000 A 
ATOM     35  C   UNL     1       0.104 -10.677   0.023  0.00  0.00    +0.000 A 
ATOM     36  C   UNL     1       0.141  -9.460   0.679  0.00  0.00    +0.003 A 
ENDBRANCH  30  31
ENDBRANCH  29  30
ENDBRANCH  28  29
ENDBRANCH  11  28
TORSDOF 7
