REMARK  Name = ZINC35464260
REMARK  12 active torsions:
REMARK  status: ('A' for Active; 'I' for Inactive)
REMARK    1  A    between atoms: C_1  and  C_2
REMARK    2  A    between atoms: C_2  and  C_36
REMARK    3  A    between atoms: C_3  and  C_4
REMARK    4  A    between atoms: C_4  and  O_5
REMARK    5  A    between atoms: O_5  and  C_6
REMARK    6  A    between atoms: C_8  and  C_22
REMARK    7  A    between atoms: C_13  and  C_20
REMARK    8  A    between atoms: C_13  and  C_21
REMARK    9  A    between atoms: C_14  and  O_19
REMARK   10  A    between atoms: C_16  and  O_18
REMARK   11  A    between atoms: C_28  and  O_35
REMARK   12  A    between atoms: C_30  and  O_34
REMARK                            x       y       z     vdW  Elec       q    Type
REMARK                         _______ _______ _______ _____ _____    ______ ____
ROOT
ATOM      1  C   UNL     1      -0.728  -0.122   4.651  0.00  0.00    +0.163 A 
ATOM      2  C   UNL     1      -0.116   1.087   4.933  0.00  0.00    +0.056 A 
ATOM      3  C   UNL     1      -0.217   1.631   6.200  0.00  0.00    -0.003 A 
ATOM      4  C   UNL     1      -0.928   0.970   7.181  0.00  0.00    +0.017 A 
ATOM      5  C   UNL     1      -1.544  -0.241   6.906  0.00  0.00    +0.029 A 
ATOM      6  C   UNL     1      -1.450  -0.790   5.641  0.00  0.00    +0.169 A 
ATOM      7  O   UNL     1      -2.033  -1.978   5.330  0.00  0.00    -0.480 OA
ATOM      8  C   UNL     1      -3.054  -2.469   6.199  0.00  0.00    +0.134 C 
ATOM      9  C   UNL     1      -2.537  -2.395   7.642  0.00  0.00    +0.190 C 
ATOM     10  C   UNL     1      -2.316  -0.928   8.005  0.00  0.00    +0.180 C 
ATOM     11  C   UNL     1      -3.380  -3.921   5.843  0.00  0.00    +0.058 C 
ATOM     12  C   UNL     1      -4.310  -1.608   6.057  0.00  0.00    +0.058 C 
ENDROOT
BRANCH   3  13
ATOM     13  C   UNL     1       0.450   2.946   6.510  0.00  0.00    +0.211 C 
ATOM     14  C   UNL     1      -0.476   4.100   6.099  0.00  0.00    +0.129 C 
ATOM     15  C   UNL     1       0.258   5.394   6.401  0.00  0.00    +0.174 C 
ATOM     16  O   UNL     1      -0.313   6.357   6.870  0.00  0.00    -0.292 OA
ATOM     17  C   UNL     1       1.692   5.422   6.096  0.00  0.00    +0.101 A 
ATOM     18  C   UNL     1       2.402   6.633   6.096  0.00  0.00    +0.134 A 
ATOM     19  C   UNL     1       3.757   6.630   5.817  0.00  0.00    +0.091 A 
ATOM     20  C   UNL     1       4.406   5.434   5.537  0.00  0.00    +0.124 A 
ATOM     21  C   UNL     1       3.709   4.233   5.529  0.00  0.00    +0.092 A 
ATOM     22  C   UNL     1       2.352   4.214   5.804  0.00  0.00    +0.139 A 
ATOM     23  O   UNL     1       1.675   3.042   5.783  0.00  0.00    -0.483 OA
BRANCH  20  24
ATOM     24  O   UNL     1       5.736   5.439   5.268  0.00  0.00    -0.507 OA
ATOM     25  H   UNL     1       6.296   5.334   6.049  0.00  0.00    +0.292 HD
ENDBRANCH  20  24
BRANCH  18  26
ATOM     26  O   UNL     1       1.763   7.799   6.368  0.00  0.00    -0.506 OA
ATOM     27  H   UNL     1       1.755   8.033   7.306  0.00  0.00    +0.292 HD
ENDBRANCH  18  26
ENDBRANCH   3  13
BRANCH  10  28
ATOM     28  O   UNL     1      -1.584  -0.835   9.229  0.00  0.00    -0.384 OA
ATOM     29  H   UNL     1      -1.419   0.072   9.520  0.00  0.00    +0.210 HD
ENDBRANCH  10  28
BRANCH   9  30
ATOM     30  O   UNL     1      -1.299  -3.100   7.747  0.00  0.00    -0.385 OA
ATOM     31  H   UNL     1      -0.917  -3.093   8.635  0.00  0.00    +0.210 HD
ENDBRANCH   9  30
BRANCH   1  32
ATOM     32  O   UNL     1      -0.631  -0.658   3.405  0.00  0.00    -0.484 OA
BRANCH  32  33
ATOM     33  C   UNL     1       0.123   0.078   2.439  0.00  0.00    +0.257 C 
BRANCH  33  36
ATOM     34  C   UNL     1      -0.207   1.487   0.019  0.00  0.00    +0.038 C 
ATOM     35  C   UNL     1      -0.090  -0.016   0.009  0.00  0.00    -0.076 C 
ATOM     36  C   UNL     1       0.121  -0.664   1.128  0.00  0.00    +0.012 C 
ATOM     37  C   UNL     1      -0.215  -0.772  -1.288  0.00  0.00    +0.038 C 
ENDBRANCH  33  36
ENDBRANCH  32  33
ENDBRANCH   1  32
TORSDOF 8
