REMARK  Name = ZINC01088956
REMARK  9 active torsions:
REMARK  status: ('A' for Active; 'I' for Inactive)
REMARK    1  A    between atoms: C_2  and  C_3
REMARK    2  A    between atoms: C_3  and  C_4
REMARK    3  A    between atoms: C_8  and  C_11
REMARK    4  A    between atoms: C_9  and  O_10
REMARK    5  A    between atoms: N_12  and  N_13
REMARK    6  A    between atoms: C_14  and  C_16
REMARK    7  A    between atoms: N_19  and  C_21
REMARK    8  A    between atoms: C_21  and  C_22
REMARK    9  A    between atoms: C_25  and  N_28
REMARK                            x       y       z     vdW  Elec       q    Type
REMARK                         _______ _______ _______ _____ _____    ______ ____
ROOT
ATOM      1  N   UNL     1       4.743   1.422   2.400  0.00  0.00    -0.202 N 
ATOM      2  C   UNL     1       4.660   2.216   1.314  0.00  0.00    +0.284 C 
ATOM      3  O   UNL     1       5.633   2.847   0.947  0.00  0.00    -0.267 OA
ATOM      4  H   UNL     1       3.968   0.918   2.693  0.00  0.00    +0.178 HD
ENDROOT
BRANCH   2   5
ATOM      5  C   UNL     1       3.389   2.318   0.570  0.00  0.00    +0.163 A 
ATOM      6  C   UNL     1       3.150   3.104  -0.583  0.00  0.00    +0.068 A 
ATOM      7  C   UNL     1       1.855   2.882  -0.911  0.00  0.00    +0.124 A 
ATOM      8  N   UNL     1       1.356   2.010  -0.000  0.00  0.00    -0.265 N 
ATOM      9  N   UNL     1       2.262   1.697   0.856  0.00  0.00    -0.165 NA
ATOM     10 BR   UNL     1       4.380   4.229  -1.476  0.00  0.00    -0.046 Br
BRANCH   8  11
ATOM     11  C   UNL     1      -0.018   1.503   0.010  0.00  0.00    +0.178 C 
BRANCH  11  12
ATOM     12  C   UNL     1       0.002  -0.004   0.002  0.00  0.00    -0.026 A 
ATOM     13  C   UNL     1      -0.006  -0.689  -1.199  0.00  0.00    +0.007 A 
ATOM     14  C   UNL     1       0.017  -2.071  -1.206  0.00  0.00    +0.033 A 
ATOM     15  C   UNL     1       0.039  -2.768  -0.013  0.00  0.00    +0.126 A 
ATOM     16  C   UNL     1       0.042  -2.084   1.188  0.00  0.00    +0.033 A 
ATOM     17  C   UNL     1       0.023  -0.702   1.195  0.00  0.00    +0.007 A 
BRANCH  15  18
ATOM     18  N   UNL     1       0.060  -4.248  -0.021  0.00  0.00    +0.056 N 
ATOM     19  O   UNL     1       0.079  -4.863   1.030  0.00  0.00    -0.126 OA
ATOM     20  O   UNL     1       0.058  -4.852  -1.079  0.00  0.00    -0.126 OA
ENDBRANCH  15  18
ENDBRANCH  11  12
ENDBRANCH   8  11
ENDBRANCH   2   5
BRANCH   1  22
ATOM     21  C   UNL     1       6.029   0.561   4.153  0.00  0.00    +0.142 C 
ATOM     22  N   UNL     1       5.949   1.325   3.107  0.00  0.00    -0.187 NA
BRANCH  21  27
ATOM     23  C   UNL     1       9.608   1.083   5.181  0.00  0.00    -0.002 A 
ATOM     24  C   UNL     1       9.684   0.266   6.295  0.00  0.00    +0.007 A 
ATOM     25  C   UNL     1       8.578  -0.453   6.713  0.00  0.00    +0.001 A 
ATOM     26  C   UNL     1       7.388  -0.361   6.022  0.00  0.00    +0.013 A 
ATOM     27  C   UNL     1       7.298   0.459   4.896  0.00  0.00    +0.036 A 
ATOM     28  C   UNL     1       8.422   1.181   4.473  0.00  0.00    +0.129 A 
BRANCH  28  29
ATOM     29  O   UNL     1       8.348   1.978   3.376  0.00  0.00    -0.506 OA
ATOM     30  H   UNL     1       8.082   2.888   3.568  0.00  0.00    +0.292 HD
ENDBRANCH  28  29
BRANCH  23  31
ATOM     31  C   UNL     1      10.819   1.861   4.735  0.00  0.00    +0.065 C 
BRANCH  31  33
ATOM     32  C   UNL     1      11.767   3.707   6.021  0.00  0.00    +0.004 C 
ATOM     33  C   UNL     1      10.763   3.252   5.313  0.00  0.00    -0.030 C 
ENDBRANCH  31  33
ENDBRANCH  23  31
ENDBRANCH  21  27
ENDBRANCH   1  22
TORSDOF 9
