REMARK  Name = ZINC19858015
REMARK  2 active torsions:
REMARK  status: ('A' for Active; 'I' for Inactive)
REMARK    1  A    between atoms: C_5  and  O_8
REMARK    2  A    between atoms: C_18  and  N_20
REMARK                            x       y       z     vdW  Elec       q    Type
REMARK                         _______ _______ _______ _____ _____    ______ ____
ROOT
ATOM      1  C   UNL     1      -0.013   1.076   0.008  0.00  0.00    +0.065 A 
ATOM      2  C   UNL     1      -1.228   1.752   0.017  0.00  0.00    +0.130 A 
ATOM      3  C   UNL     1      -1.224   3.143   0.026  0.00  0.00    +0.021 A 
ATOM      4  C   UNL     1      -0.043   3.849   0.020  0.00  0.00    +0.067 A 
ATOM      5  C   UNL     1       1.168   3.168   0.008  0.00  0.00    +0.145 A 
ATOM      6  C   UNL     1       1.175   1.780   0.000  0.00  0.00    +0.064 A 
ATOM      7 BR   UNL     1       2.820   0.848  -0.019  0.00  0.00    -0.046 Br
ATOM      8 BR   UNL     1      -0.069   5.739   0.029  0.00  0.00    -0.046 Br
ATOM      9  C   UNL     1      -2.685   3.584   0.032  0.00  0.00    +0.093 C 
ATOM     10  C   UNL     1      -3.082   3.797  -1.432  0.00  0.00    +0.016 C 
ATOM     11  C   UNL     1      -4.290   4.735  -1.535  0.00  0.00    +0.019 C 
ATOM     12  C   UNL     1      -5.140   4.565  -0.273  0.00  0.00    +0.104 C 
ATOM     13  N   UNL     1      -5.561   3.176  -0.161  0.00  0.00    -0.311 N 
ATOM     14  C   UNL     1      -4.776   2.167   0.148  0.00  0.00    +0.273 C 
ATOM     15  O   UNL     1      -5.255   1.053   0.133  0.00  0.00    -0.270 OA
ATOM     16  C   UNL     1      -3.353   2.298   0.542  0.00  0.00    +0.248 C 
ATOM     17  O   UNL     1      -2.506   1.266   0.029  0.00  0.00    -0.461 OA
ATOM     18  H   UNL     1      -6.611   2.903  -0.342  0.00  0.00    +0.149 HD
ENDROOT
BRANCH  16  19
ATOM     19  N   UNL     1      -3.274   2.288   2.009  0.00  0.00    -0.253 NA
ATOM     20  C   UNL     1      -1.906   2.577   2.465  0.00  0.00    +0.116 C 
ATOM     21  C   UNL     1      -1.881   2.615   3.995  0.00  0.00    +0.175 C 
ATOM     22  O   UNL     1      -2.371   1.373   4.506  0.00  0.00    -0.377 OA
ATOM     23  C   UNL     1      -3.701   1.060   4.082  0.00  0.00    +0.175 C 
ATOM     24  C   UNL     1      -3.744   1.006   2.553  0.00  0.00    +0.116 C 
ENDBRANCH  16  19
BRANCH   5  25
ATOM     25  O   UNL     1       2.340   3.858   0.003  0.00  0.00    -0.505 OA
ATOM     26  H   UNL     1       3.297   3.316  -0.008  0.00  0.00    +0.292 HD
ENDBRANCH   5  25
TORSDOF 2
