REMARK  Name = ZINC41023847
REMARK  8 active torsions:
REMARK  status: ('A' for Active; 'I' for Inactive)
REMARK    1  A    between atoms: C_1  and  C_2
REMARK    2  A    between atoms: C_2  and  N_3
REMARK    3  A    between atoms: N_3  and  C_4
REMARK    4  A    between atoms: C_4  and  C_6
REMARK    5  A    between atoms: C_4  and  C_7
REMARK    6  A    between atoms: C_12  and  S_13
REMARK    7  A    between atoms: S_13  and  C_14
REMARK    8  A    between atoms: C_18  and  N_20
REMARK                            x       y       z     vdW  Elec       q    Type
REMARK                         _______ _______ _______ _____ _____    ______ ____
ROOT
ATOM      1  C   UNL     1       1.453  -2.517   2.392  0.00  0.00    -0.048 A 
ATOM      2  C   UNL     1       1.613  -1.730   3.516  0.00  0.00    +0.003 A 
ATOM      3  C   UNL     1       2.481  -2.122   4.518  0.00  0.00    +0.000 A 
ATOM      4  C   UNL     1       3.193  -3.302   4.399  0.00  0.00    +0.001 A 
ATOM      5  C   UNL     1       3.038  -4.093   3.278  0.00  0.00    +0.015 A 
ATOM      6  C   UNL     1       2.162  -3.705   2.272  0.00  0.00    +0.017 A 
ENDROOT
BRANCH   1   7
ATOM      7  C   UNL     1       0.507  -2.089   1.300  0.00  0.00    -0.043 C 
ATOM      8  C   UNL     1      -0.855  -2.751   1.518  0.00  0.00    -0.009 C 
BRANCH   7   9
ATOM      9  N   UNL     1       0.351  -0.628   1.331  0.00  0.00    +0.383 N 
ATOM     10  H   UNL     1       1.259  -0.192   1.270  0.00  0.00    -0.085 HD
ATOM     11  H   UNL     1      -0.096  -0.356   2.194  0.00  0.00    -0.085 HD
BRANCH   9  13
ATOM     12  C   UNL     1      -0.637   1.321   0.227  0.00  0.00    -0.017 C 
ATOM     13  C   UNL     1      -0.475  -0.200   0.195  0.00  0.00    -0.085 C 
ENDBRANCH   9  13
ENDBRANCH   7   9
ENDBRANCH   1   7
BRANCH   6  14
ATOM     14  S   UNL     1       1.955  -4.716   0.843  0.00  0.00    -0.050 S 
BRANCH  14  15
ATOM     15  C   UNL     1       2.873  -3.879  -0.407  0.00  0.00    +0.196 A 
ATOM     16  N   UNL     1       3.587  -2.813  -0.078  0.00  0.00    -0.207 NA
ATOM     17  C   UNL     1       4.293  -2.156  -0.996  0.00  0.00    +0.122 A 
ATOM     18  C   UNL     1       4.273  -2.603  -2.314  0.00  0.00    +0.086 A 
ATOM     19  C   UNL     1       3.511  -3.727  -2.621  0.00  0.00    +0.122 A 
ATOM     20  N   UNL     1       2.835  -4.336  -1.650  0.00  0.00    -0.207 NA
ATOM     21  N   UNL     1       5.037  -1.041  -0.644  0.00  0.00    -0.343 N 
ATOM     22  H   UNL     1       5.046  -0.735   0.277  0.00  0.00    +0.144 HD
ATOM     23  H   UNL     1       5.549  -0.567  -1.317  0.00  0.00    +0.144 HD
BRANCH  19  24
ATOM     24  N   UNL     1       3.462  -4.208  -3.920  0.00  0.00    -0.343 N 
ATOM     25  H   UNL     1       3.961  -3.761  -4.622  0.00  0.00    +0.144 HD
ATOM     26  H   UNL     1       2.929  -4.992  -4.127  0.00  0.00    +0.144 HD
ENDBRANCH  19  24
ENDBRANCH  14  15
ENDBRANCH   6  14
TORSDOF 6
