REMARK  Name = ZINC18524837
REMARK  10 active torsions:
REMARK  status: ('A' for Active; 'I' for Inactive)
REMARK    1  A    between atoms: C_1  and  C_2
REMARK    2  A    between atoms: C_2  and  C_3
REMARK    3  A    between atoms: C_2  and  C_4
REMARK    4  A    between atoms: C_4  and  C_6
REMARK    5  A    between atoms: C_4  and  N_17
REMARK    6  A    between atoms: C_18  and  C_20
REMARK    7  A    between atoms: C_20  and  S_21
REMARK    8  A    between atoms: S_21  and  C_22
REMARK    9  A    between atoms: C_25  and  C_28
REMARK   10  A    between atoms: N_26  and  N_27
REMARK                            x       y       z     vdW  Elec       q    Type
REMARK                         _______ _______ _______ _____ _____    ______ ____
ROOT
ATOM      1  N   UNL     1      -1.558  -1.816  -1.034  0.00  0.00    -0.308 N 
ATOM      2  C   UNL     1      -1.349  -0.499  -0.837  0.00  0.00    +0.224 C 
ATOM      3  O   UNL     1      -2.286   0.270  -0.837  0.00  0.00    -0.275 OA
ATOM      4  H   UNL     1      -0.808  -2.432  -1.034  0.00  0.00    +0.149 HD
ENDROOT
BRANCH   1   5
ATOM      5  C   UNL     1      -2.917  -2.319  -1.247  0.00  0.00    +0.106 C 
BRANCH   5   6
ATOM      6  C   UNL     1      -2.988  -3.767  -0.836  0.00  0.00    -0.023 A 
ATOM      7  C   UNL     1      -1.943  -4.621  -1.140  0.00  0.00    +0.009 A 
ATOM      8  C   UNL     1      -1.998  -5.950  -0.761  0.00  0.00    +0.050 A 
ATOM      9  C   UNL     1      -3.110  -6.426  -0.087  0.00  0.00    +0.162 A 
ATOM     10  C   UNL     1      -4.160  -5.571   0.213  0.00  0.00    +0.162 A 
ATOM     11  C   UNL     1      -4.100  -4.239  -0.162  0.00  0.00    +0.055 A 
ATOM     12  O   UNL     1      -5.251  -6.049   0.879  0.00  0.00    -0.488 OA
ATOM     13  C   UNL     1      -6.070  -6.971   0.157  0.00  0.00    +0.232 C 
ATOM     14  C   UNL     1      -5.520  -8.384   0.269  0.00  0.00    +0.082 C 
ATOM     15  C   UNL     1      -4.157  -8.529  -0.390  0.00  0.00    +0.232 C 
ATOM     16  O   UNL     1      -3.179  -7.737   0.288  0.00  0.00    -0.488 OA
ENDBRANCH   5   6
BRANCH   5  18
ATOM     17  C   UNL     1      -4.703  -2.714  -2.949  0.00  0.00    +0.009 C 
ATOM     18  C   UNL     1      -3.283  -2.189  -2.727  0.00  0.00    +0.008 C 
ATOM     19  C   UNL     1      -3.211  -0.719  -3.143  0.00  0.00    +0.009 C 
ENDBRANCH   5  18
ENDBRANCH   1   5
BRANCH   2  20
ATOM     20  C   UNL     1       0.050   0.017  -0.618  0.00  0.00    +0.173 C 
BRANCH  20  21
ATOM     21  S   UNL     1       0.001   1.812  -0.387  0.00  0.00    -0.075 S 
BRANCH  21  22
ATOM     22  C   UNL     1       1.718   2.138  -0.159  0.00  0.00    +0.209 A 
ATOM     23  N   UNL     1       2.687   1.250  -0.166  0.00  0.00    -0.121 NA
ATOM     24  N   UNL     1       3.817   1.831   0.028  0.00  0.00    -0.127 NA
ATOM     25  C   UNL     1       3.638   3.122   0.179  0.00  0.00    +0.184 A 
ATOM     26  N   UNL     1       2.288   3.359   0.064  0.00  0.00    -0.224 N 
BRANCH  25  27
ATOM     27  C   UNL     1       4.689   4.132   0.426  0.00  0.00    +0.056 A 
ATOM     28  C   UNL     1       4.518   5.093   1.424  0.00  0.00    +0.014 A 
ATOM     29  C   UNL     1       5.502   6.032   1.650  0.00  0.00    +0.001 A 
ATOM     30  C   UNL     1       6.659   6.025   0.890  0.00  0.00    +0.003 A 
ATOM     31  C   UNL     1       6.837   5.077  -0.101  0.00  0.00    +0.039 A 
ATOM     32  C   UNL     1       5.862   4.126  -0.335  0.00  0.00    +0.134 A 
ATOM     33  F   UNL     1       6.039   3.196  -1.299  0.00  0.00    -0.205 F 
ENDBRANCH  25  27
BRANCH  26  34
ATOM     34  N   UNL     1       1.650   4.563   0.154  0.00  0.00    -0.295 N 
ATOM     35  H   UNL     1       1.457   4.799   1.116  0.00  0.00    +0.163 HD
ATOM     36  H   UNL     1       2.186   5.291  -0.295  0.00  0.00    +0.163 HD
ENDBRANCH  26  34
ENDBRANCH  21  22
ENDBRANCH  20  21
ENDBRANCH   2  20
TORSDOF 8
