REMARK  Name = ZINC39607674
REMARK  11 active torsions:
REMARK  status: ('A' for Active; 'I' for Inactive)
REMARK    1  A    between atoms: C_1  and  C_2
REMARK    2  A    between atoms: C_2  and  C_3
REMARK    3  A    between atoms: C_3  and  O_4
REMARK    4  A    between atoms: O_4  and  C_5
REMARK    5  A    between atoms: C_5  and  C_6
REMARK    6  A    between atoms: C_6  and  N_7
REMARK    7  A    between atoms: C_8  and  C_10
REMARK    8  A    between atoms: C_21  and  C_23
REMARK    9  A    between atoms: C_24  and  C_34
REMARK   10  A    between atoms: C_27  and  C_28
REMARK   11  A    between atoms: C_30  and  C_33
REMARK                            x       y       z     vdW  Elec       q    Type
REMARK                         _______ _______ _______ _____ _____    ______ ____
ROOT
ATOM      1  C   UNL     1      -1.748  -6.268  -2.401  0.00  0.00    +0.100 C 
ATOM      2  C   UNL     1      -2.401  -5.788  -3.717  0.00  0.00    +0.121 C 
ATOM      3  N   UNL     1      -2.235  -6.925  -4.653  0.00  0.00    -0.296 N 
ATOM      4  C   UNL     1      -2.474  -8.127  -3.819  0.00  0.00    +0.115 C 
ATOM      5  C   UNL     1      -1.802  -7.803  -2.470  0.00  0.00    -0.004 C 
ATOM      6  C   UNL     1      -0.391  -8.383  -2.433  0.00  0.00    -0.010 C 
ATOM      7  C   UNL     1      -0.472  -9.912  -2.445  0.00  0.00    -0.082 C 
ATOM      8  N   UNL     1      -1.244 -10.372  -1.284  0.00  0.00    +0.379 N 
ATOM      9  C   UNL     1      -2.626  -9.886  -1.376  0.00  0.00    -0.082 C 
ATOM     10  C   UNL     1      -2.635  -8.356  -1.318  0.00  0.00    -0.010 C 
ATOM     11  C   UNL     1      -1.934  -6.877  -5.966  0.00  0.00    +0.252 C 
ATOM     12  O   UNL     1      -1.832  -7.907  -6.605  0.00  0.00    -0.270 OA
ATOM     13  H   UNL     1      -1.244 -11.381  -1.261  0.00  0.00    -0.086 HD
ATOM     14  H   UNL     1      -0.820 -10.020  -0.439  0.00  0.00    -0.086 HD
ENDROOT
BRANCH  11  15
ATOM     15  C   UNL     1      -1.729  -5.577  -6.627  0.00  0.00    +0.108 A 
ATOM     16  C   UNL     1      -0.499  -4.885  -6.757  0.00  0.00    +0.093 A 
ATOM     17  N   UNL     1      -0.724  -3.778  -7.400  0.00  0.00    -0.082 NA
ATOM     18  O   UNL     1      -2.100  -3.701  -7.714  0.00  0.00    -0.352 OA
ATOM     19  C   UNL     1      -2.703  -4.805  -7.245  0.00  0.00    +0.201 A 
ATOM     20  C   UNL     1       0.837  -5.352  -6.240  0.00  0.00    +0.070 C 
BRANCH  19  21
ATOM     21  C   UNL     1      -4.140  -5.136  -7.361  0.00  0.00    +0.152 A 
ATOM     22  C   UNL     1      -5.130  -4.347  -7.997  0.00  0.00    +0.079 A 
ATOM     23  C   UNL     1      -6.306  -4.989  -7.890  0.00  0.00    +0.135 A 
ATOM     24  O   UNL     1      -6.101  -6.135  -7.221  0.00  0.00    -0.359 OA
ATOM     25  N   UNL     1      -4.725  -6.216  -6.898  0.00  0.00    -0.075 NA
ATOM     26  C   UNL     1      -7.628  -4.505  -8.427  0.00  0.00    +0.089 C 
ENDBRANCH  19  21
ENDBRANCH  11  15
BRANCH   1  28
ATOM     27  N   UNL     1       0.281  -5.663  -1.121  0.00  0.00    -0.313 N 
ATOM     28  C   UNL     1      -0.319  -5.795  -2.321  0.00  0.00    +0.218 C 
ATOM     29  O   UNL     1       0.291  -5.534  -3.336  0.00  0.00    -0.275 OA
ATOM     30  H   UNL     1      -0.207  -5.873  -0.309  0.00  0.00    +0.149 HD
BRANCH  27  31
ATOM     31  C   UNL     1       1.670  -5.204  -1.044  0.00  0.00    +0.132 C 
BRANCH  31  32
ATOM     32  C   UNL     1       2.105  -5.143   0.422  0.00  0.00    +0.178 C 
BRANCH  32  33
ATOM     33  O   UNL     1       2.111  -6.461   0.973  0.00  0.00    -0.378 OA
BRANCH  33  34
ATOM     34  C   UNL     1       2.506  -6.516   2.345  0.00  0.00    +0.159 C 
BRANCH  34  36
ATOM     35  C   UNL     1       2.899  -8.026   4.296  0.00  0.00    +0.006 C 
ATOM     36  C   UNL     1       2.476  -7.968   2.827  0.00  0.00    +0.025 C 
ENDBRANCH  34  36
ENDBRANCH  33  34
ENDBRANCH  32  33
ENDBRANCH  31  32
ENDBRANCH  27  31
ENDBRANCH   1  28
TORSDOF 8
