REMARK  Name = ZINC30978009
REMARK  11 active torsions:
REMARK  status: ('A' for Active; 'I' for Inactive)
REMARK    1  A    between atoms: C_1  and  C_2
REMARK    2  A    between atoms: C_2  and  C_3
REMARK    3  A    between atoms: C_2  and  C_4
REMARK    4  A    between atoms: C_2  and  C_5
REMARK    5  A    between atoms: C_8  and  C_11
REMARK    6  A    between atoms: C_13  and  C_16
REMARK    7  A    between atoms: C_16  and  N_17
REMARK    8  A    between atoms: C_20  and  C_23
REMARK    9  A    between atoms: N_25  and  C_26
REMARK   10  A    between atoms: C_35  and  O_37
REMARK   11  A    between atoms: O_37  and  C_38
REMARK                            x       y       z     vdW  Elec       q    Type
REMARK                         _______ _______ _______ _____ _____    ______ ____
ROOT
ATOM      1  N   UNL     1      -3.031  -2.690   1.295  0.00  0.00    +0.386 N 
ATOM      2  C   UNL     1      -2.310  -3.055   0.069  0.00  0.00    -0.077 C 
ATOM      3  C   UNL     1      -0.994  -2.277  -0.001  0.00  0.00    -0.006 C 
ATOM      4  C   UNL     1      -1.293  -0.775   0.010  0.00  0.00    +0.071 C 
ATOM      5  C   UNL     1      -2.086  -0.430   1.274  0.00  0.00    -0.006 C 
ATOM      6  C   UNL     1      -3.370  -1.261   1.306  0.00  0.00    -0.077 C 
ATOM      7  H   UNL     1      -2.362  -2.882   2.147  0.00  0.00    -0.081 HD
ENDROOT
BRANCH   4   8
ATOM      8  C   UNL     1       0.002  -0.004   0.002  0.00  0.00    +0.216 C 
ATOM      9  O   UNL     1       1.060  -0.596  -0.011  0.00  0.00    -0.276 OA
ATOM     10  N   UNL     1      -0.016   1.344   0.009  0.00  0.00    -0.308 N 
ATOM     11  H   UNL     1      -0.976   1.881   0.021  0.00  0.00    +0.149 HD
BRANCH  10  12
ATOM     12  C   UNL     1       1.242   2.093   0.001  0.00  0.00    +0.103 C 
ATOM     13  C   UNL     1       1.001   3.477  -0.598  0.00  0.00    +0.027 C 
ATOM     14  C   UNL     1       2.268   4.317  -0.401  0.00  0.00    +0.007 C 
ATOM     15  C   UNL     1       2.410   4.633   1.086  0.00  0.00    +0.035 C 
ATOM     16  C   UNL     1       2.300   3.376   1.908  0.00  0.00    -0.039 A 
ATOM     17  C   UNL     1       1.760   2.210   1.411  0.00  0.00    -0.024 A 
ATOM     18  C   UNL     1       1.681   1.086   2.224  0.00  0.00    +0.009 A 
ATOM     19  C   UNL     1       2.141   1.124   3.523  0.00  0.00    +0.046 A 
ATOM     20  C   UNL     1       2.689   2.296   4.024  0.00  0.00    +0.120 A 
ATOM     21  C   UNL     1       2.766   3.417   3.215  0.00  0.00    +0.049 A 
BRANCH  20  22
ATOM     22  O   UNL     1       3.148   2.342   5.302  0.00  0.00    -0.495 OA
ATOM     23  C   UNL     1       3.036   1.147   6.076  0.00  0.00    +0.277 C 
ENDBRANCH  20  22
ENDBRANCH  10  12
ENDBRANCH   4   8
BRANCH   1  24
ATOM     24  C   UNL     1      -4.233  -3.518   1.466  0.00  0.00    +0.022 C 
BRANCH  24  27
ATOM     25  C   UNL     1      -6.489  -1.875   3.730  0.00  0.00    +0.202 A 
ATOM     26  N   UNL     1      -6.022  -2.065   2.476  0.00  0.00    -0.193 NA
ATOM     27  C   UNL     1      -5.072  -2.960   2.586  0.00  0.00    +0.211 A 
ATOM     28  O   UNL     1      -4.991  -3.291   3.879  0.00  0.00    -0.340 OA
ATOM     29  N   UNL     1      -5.803  -2.658   4.521  0.00  0.00    -0.056 NA
BRANCH  25  33
ATOM     30  C   UNL     1      -9.607   0.776   4.887  0.00  0.00    -0.042 A 
ATOM     31  C   UNL     1      -8.969   0.004   5.841  0.00  0.00    +0.005 A 
ATOM     32  C   UNL     1      -7.957  -0.858   5.471  0.00  0.00    +0.012 A 
ATOM     33  C   UNL     1      -7.578  -0.950   4.134  0.00  0.00    +0.022 A 
ATOM     34  C   UNL     1      -8.220  -0.166   3.178  0.00  0.00    +0.012 A 
ATOM     35  C   UNL     1      -9.234   0.690   3.558  0.00  0.00    +0.005 A 
BRANCH  30  37
ATOM     36  C   UNL     1     -10.166   2.737   6.298  0.00  0.00    +0.015 C 
ATOM     37  C   UNL     1     -10.711   1.716   5.298  0.00  0.00    -0.013 C 
ATOM     38  C   UNL     1     -11.244   2.446   4.063  0.00  0.00    +0.015 C 
ATOM     39  C   UNL     1     -11.844   0.920   5.948  0.00  0.00    +0.015 C 
ENDBRANCH  30  37
ENDBRANCH  25  33
ENDBRANCH  24  27
ENDBRANCH   1  24
TORSDOF 7
