REMARK  Name = ZINC01035416
REMARK  5 active torsions:
REMARK  status: ('A' for Active; 'I' for Inactive)
REMARK    1  A    between atoms: C_1  and  C_2
REMARK    2  A    between atoms: N_5  and  C_7
REMARK    3  A    between atoms: C_16  and  C_18
REMARK    4  A    between atoms: C_29  and  C_31
REMARK    5  A    between atoms: C_29  and  C_32
REMARK                            x       y       z     vdW  Elec       q    Type
REMARK                         _______ _______ _______ _____ _____    ______ ____
ROOT
ATOM      1  C   UNL     1      -0.018   1.503   0.010  0.00  0.00    +0.068 C 
ATOM      2  C   UNL     1       0.002  -0.004   0.002  0.00  0.00    +0.066 A 
ATOM      3  C   UNL     1       0.008  -0.810  -1.128  0.00  0.00    +0.027 A 
ATOM      4  C   UNL     1       0.030  -2.116  -0.712  0.00  0.00    +0.131 A 
ATOM      5  N   UNL     1       0.034  -2.116   0.637  0.00  0.00    -0.218 N 
ATOM      6  N   UNL     1       0.023  -0.778   1.062  0.00  0.00    -0.170 NA
ATOM      7  N   UNL     1       0.048  -3.166  -1.622  0.00  0.00    -0.302 N 
ATOM      8  C   UNL     1       0.340  -2.891  -2.935  0.00  0.00    +0.017 C 
ATOM      9  C   UNL     1       0.338  -1.634  -3.429  0.00  0.00    +0.024 C 
ATOM     10  C   UNL     1      -0.008  -0.429  -2.581  0.00  0.00    +0.090 C 
ATOM     11  C   UNL     1       0.667  -1.387  -4.774  0.00  0.00    +0.162 C 
ATOM     12  O   UNL     1       0.651  -0.245  -5.188  0.00  0.00    -0.292 OA
ATOM     13  C   UNL     1       1.039  -2.502  -5.710  0.00  0.00    +0.086 C 
ATOM     14  C   UNL     1       1.662  -3.644  -4.901  0.00  0.00    -0.023 C 
ATOM     15  C   UNL     1       0.663  -4.070  -3.823  0.00  0.00    +0.058 C 
ATOM     16  C   UNL     1       2.957  -3.163  -4.243  0.00  0.00    +0.011 C 
ATOM     17  C   UNL     1       1.960  -4.827  -5.824  0.00  0.00    +0.011 C 
ATOM     18  H   UNL     1      -0.142  -4.073  -1.336  0.00  0.00    +0.153 HD
ENDROOT
BRANCH  10  19
ATOM     19  C   UNL     1      -1.381   0.069  -2.954  0.00  0.00    -0.017 A 
ATOM     20  C   UNL     1      -2.479  -0.758  -2.808  0.00  0.00    +0.007 A 
ATOM     21  C   UNL     1      -3.738  -0.303  -3.150  0.00  0.00    +0.020 A 
ATOM     22  C   UNL     1      -3.901   0.982  -3.637  0.00  0.00    +0.042 A 
ATOM     23  C   UNL     1      -2.803   1.810  -3.783  0.00  0.00    +0.040 A 
ATOM     24  C   UNL     1      -1.543   1.355  -3.436  0.00  0.00    +0.046 A 
ATOM     25 CL   UNL     1      -0.165   2.396  -3.613  0.00  0.00    -0.083 Cl
ATOM     26 CL   UNL     1      -5.482   1.554  -4.067  0.00  0.00    -0.083 Cl
ENDBRANCH  10  19
BRANCH   5  27
ATOM     27  C   UNL     1       0.052  -3.248   1.464  0.00  0.00    +0.067 A 
ATOM     28  C   UNL     1      -0.619  -4.401   1.079  0.00  0.00    +0.028 A 
ATOM     29  C   UNL     1      -0.599  -5.515   1.896  0.00  0.00    +0.002 A 
ATOM     30  C   UNL     1       0.087  -5.481   3.096  0.00  0.00    +0.000 A 
ATOM     31  C   UNL     1       0.756  -4.334   3.482  0.00  0.00    +0.002 A 
ATOM     32  C   UNL     1       0.745  -3.219   2.667  0.00  0.00    +0.028 A 
ENDBRANCH   5  27
TORSDOF 2
