REMARK  Name = ZINC60379898
REMARK  11 active torsions:
REMARK  status: ('A' for Active; 'I' for Inactive)
REMARK    1  A    between atoms: C_1  and  N_2
REMARK    2  A    between atoms: N_2  and  C_3
REMARK    3  A    between atoms: C_3  and  C_4
REMARK    4  A    between atoms: C_4  and  N_5
REMARK    5  A    between atoms: N_5  and  C_6
REMARK    6  A    between atoms: C_12  and  C_14
REMARK    7  A    between atoms: N_19  and  C_21
REMARK    8  A    between atoms: C_21  and  C_22
REMARK    9  A    between atoms: C_25  and  C_27
REMARK   10  A    between atoms: N_32  and  C_34
REMARK   11  A    between atoms: C_34  and  C_35
REMARK                            x       y       z     vdW  Elec       q    Type
REMARK                         _______ _______ _______ _____ _____    ______ ____
ROOT
ATOM      1  N   UNL     1      -1.025  -1.991   3.106  0.00  0.00    -0.270 N 
ATOM      2  C   UNL     1      -1.499  -3.247   2.985  0.00  0.00    +0.225 C 
ATOM      3  O   UNL     1      -1.930  -3.828   3.958  0.00  0.00    -0.275 OA
ENDROOT
BRANCH   1   4
ATOM      4  C   UNL     1      -0.897  -1.410   4.372  0.00  0.00    +0.036 A 
ATOM      5  C   UNL     1      -0.546  -0.072   4.492  0.00  0.00    +0.023 A 
ATOM      6  C   UNL     1      -0.421   0.499   5.744  0.00  0.00    +0.002 A 
ATOM      7  C   UNL     1      -0.646  -0.261   6.877  0.00  0.00    +0.000 A 
ATOM      8  C   UNL     1      -0.996  -1.594   6.761  0.00  0.00    +0.002 A 
ATOM      9  C   UNL     1      -1.127  -2.169   5.513  0.00  0.00    +0.023 A 
ENDBRANCH   1   4
BRANCH   2  10
ATOM     10  C   UNL     1      -1.494  -3.928   1.641  0.00  0.00    +0.101 C 
ATOM     11  C   UNL     1      -2.787  -3.609   0.854  0.00  0.00    +0.110 C 
ATOM     12  C   UNL     1      -3.110  -4.899   0.133  0.00  0.00    +0.216 C 
ATOM     13  O   UNL     1      -3.877  -4.999  -0.801  0.00  0.00    -0.276 OA
ATOM     14  N   UNL     1      -2.424  -5.918   0.679  0.00  0.00    -0.300 N 
ATOM     15  C   UNL     1      -1.591  -5.462   1.798  0.00  0.00    +0.121 C 
BRANCH  14  16
ATOM     16  C   UNL     1      -2.497  -7.306   0.215  0.00  0.00    +0.111 C 
BRANCH  16  17
ATOM     17  C   UNL     1      -1.431  -7.542  -0.857  0.00  0.00    +0.006 C 
ATOM     18  C   UNL     1      -1.912  -7.895  -2.266  0.00  0.00    +0.005 C 
ATOM     19  C   UNL     1      -1.266  -8.968  -1.387  0.00  0.00    +0.005 C 
ENDBRANCH  16  17
ENDBRANCH  14  16
ENDBRANCH   2  10
BRANCH   1  20
ATOM     20  C   UNL     1      -0.642  -1.234   1.911  0.00  0.00    +0.132 C 
BRANCH  20  21
ATOM     21  C   UNL     1       0.863  -1.378   1.677  0.00  0.00    +0.127 C 
BRANCH  21  23
ATOM     22  C   UNL     1       1.646   0.783   0.601  0.00  0.00    +0.132 C 
ATOM     23  N   UNL     1       1.245  -0.621   0.482  0.00  0.00    -0.303 N 
ATOM     24  C   UNL     1       1.228  -1.217  -0.727  0.00  0.00    +0.220 C 
ATOM     25  O   UNL     1       0.897  -2.380  -0.826  0.00  0.00    -0.275 OA
BRANCH  24  26
ATOM     26  C   UNL     1       1.622  -0.439  -1.956  0.00  0.00    +0.101 C 
ATOM     27  C   UNL     1       3.108  -0.018  -1.892  0.00  0.00    +0.110 C 
ATOM     28  C   UNL     1       3.591  -0.144  -3.320  0.00  0.00    +0.216 C 
ATOM     29  O   UNL     1       4.610   0.350  -3.755  0.00  0.00    -0.276 OA
ATOM     30  N   UNL     1       2.728  -0.885  -4.037  0.00  0.00    -0.300 N 
ATOM     31  C   UNL     1       1.602  -1.340  -3.211  0.00  0.00    +0.121 C 
BRANCH  30  32
ATOM     32  C   UNL     1       2.888  -1.196  -5.459  0.00  0.00    +0.111 C 
BRANCH  32  33
ATOM     33  C   UNL     1       3.679  -2.497  -5.610  0.00  0.00    +0.006 C 
ATOM     34  C   UNL     1       5.042  -2.419  -6.301  0.00  0.00    +0.005 C 
ATOM     35  C   UNL     1       3.854  -3.058  -7.022  0.00  0.00    +0.005 C 
ENDBRANCH  32  33
ENDBRANCH  30  32
ENDBRANCH  24  26
ENDBRANCH  21  23
ENDBRANCH  20  21
ENDBRANCH   1  20
TORSDOF 10
