REMARK  Name = ZINC21440978
REMARK  8 active torsions:
REMARK  status: ('A' for Active; 'I' for Inactive)
REMARK    1  A    between atoms: C_1  and  C_2
REMARK    2  A    between atoms: C_4  and  C_22
REMARK    3  A    between atoms: C_6  and  C_19
REMARK    4  A    between atoms: N_9  and  C_11
REMARK    5  A    between atoms: C_22  and  O_24
REMARK    6  A    between atoms: O_24  and  C_25
REMARK    7  A    between atoms: C_25  and  C_26
REMARK    8  A    between atoms: C_29  and  N_32
REMARK                            x       y       z     vdW  Elec       q    Type
REMARK                         _______ _______ _______ _____ _____    ______ ____
ROOT
ATOM      1  C   UNL     1      -0.162   1.500   0.021  0.00  0.00    +0.068 C 
ATOM      2  C   UNL     1      -0.117  -0.007   0.010  0.00  0.00    +0.070 A 
ATOM      3  C   UNL     1      -0.148  -0.824  -1.139  0.00  0.00    +0.055 A 
ATOM      4  C   UNL     1      -0.223  -0.562  -2.526  0.00  0.00    +0.073 A 
ATOM      5  C   UNL     1      -0.232  -1.652  -3.394  0.00  0.00    +0.039 A 
ATOM      6  C   UNL     1      -0.167  -2.936  -2.874  0.00  0.00    +0.048 A 
ATOM      7  N   UNL     1      -0.098  -3.154  -1.579  0.00  0.00    -0.232 NA
ATOM      8  C   UNL     1      -0.085  -2.162  -0.700  0.00  0.00    +0.160 A 
ATOM      9  N   UNL     1      -0.020  -2.115   0.668  0.00  0.00    -0.241 N 
ATOM     10  N   UNL     1      -0.037  -0.772   1.062  0.00  0.00    -0.174 NA
ENDROOT
BRANCH   9  11
ATOM     11  C   UNL     1       0.059  -3.272   1.564  0.00  0.00    +0.132 C 
ATOM     12  C   UNL     1      -1.132  -3.258   2.537  0.00  0.00    +0.051 C 
ATOM     13  C   UNL     1      -0.892  -4.275   3.679  0.00  0.00    +0.168 C 
ATOM     14  S   UNL     1       0.943  -4.330   3.792  0.00  0.00    -0.029 S 
ATOM     15  O   UNL     1       1.349  -3.732   5.015  0.00  0.00    -0.174 OA
ATOM     16  O   UNL     1       1.386  -5.643   3.474  0.00  0.00    -0.174 OA
ATOM     17  C   UNL     1       1.368  -3.199   2.401  0.00  0.00    +0.192 C 
ENDBRANCH   9  11
BRANCH   6  18
ATOM     18  C   UNL     1      -0.177  -4.112  -3.816  0.00  0.00    +0.038 C 
ATOM     19  C   UNL     1      -0.638  -3.861  -5.253  0.00  0.00    +0.010 C 
ATOM     20  C   UNL     1      -1.538  -4.631  -4.284  0.00  0.00    +0.010 C 
ENDBRANCH   6  18
BRANCH   4  21
ATOM     21  C   UNL     1      -0.291   0.822  -3.038  0.00  0.00    +0.340 C 
ATOM     22  O   UNL     1       0.351   1.701  -2.501  0.00  0.00    -0.245 OA
BRANCH  21  23
ATOM     23  O   UNL     1      -1.067   1.109  -4.103  0.00  0.00    -0.456 OA
BRANCH  23  24
ATOM     24  C   UNL     1      -1.085   2.468  -4.544  0.00  0.00    +0.268 C 
BRANCH  24  25
ATOM     25  C   UNL     1      -1.999   2.597  -5.735  0.00  0.00    -0.010 A 
ATOM     26  C   UNL     1      -1.499   2.425  -7.012  0.00  0.00    +0.009 A 
ATOM     27  C   UNL     1      -2.338   2.543  -8.105  0.00  0.00    +0.033 A 
ATOM     28  C   UNL     1      -3.677   2.833  -7.920  0.00  0.00    +0.126 A 
ATOM     29  C   UNL     1      -4.177   3.004  -6.642  0.00  0.00    +0.033 A 
ATOM     30  C   UNL     1      -3.339   2.882  -5.550  0.00  0.00    +0.009 A 
BRANCH  28  31
ATOM     31  N   UNL     1      -4.575   2.961  -9.089  0.00  0.00    +0.056 N 
ATOM     32  O   UNL     1      -4.138   2.812 -10.206  0.00  0.00    -0.126 OA
ATOM     33  O   UNL     1      -5.746   3.214  -8.928  0.00  0.00    -0.126 OA
ENDBRANCH  28  31
ENDBRANCH  24  25
ENDBRANCH  23  24
ENDBRANCH  21  23
ENDBRANCH   4  21
TORSDOF 7
