REMARK  Name = ZINC09614401
REMARK  7 active torsions:
REMARK  status: ('A' for Active; 'I' for Inactive)
REMARK    1  A    between atoms: C_1  and  C_2
REMARK    2  A    between atoms: C_6  and  C_23
REMARK    3  A    between atoms: C_7  and  O_8
REMARK    4  A    between atoms: O_8  and  C_9
REMARK    5  A    between atoms: C_9  and  C_10
REMARK    6  A    between atoms: N_12  and  N_13
REMARK    7  A    between atoms: C_14  and  C_15
REMARK                            x       y       z     vdW  Elec       q    Type
REMARK                         _______ _______ _______ _____ _____    ______ ____
ROOT
ATOM      1  C   UNL     1       3.562   7.960   0.009  0.00  0.00    +0.270 C 
ATOM      2  O   UNL     1       2.500   8.548   0.022  0.00  0.00    -0.270 OA
ATOM      3  N   UNL     1       3.585   6.613   0.002  0.00  0.00    -0.204 N 
ATOM      4  H   UNL     1       4.434   6.143  -0.009  0.00  0.00    +0.177 HD
ENDROOT
BRANCH   3   5
ATOM      5  N   UNL     1       2.385   5.891   0.009  0.00  0.00    -0.188 NA
ATOM      6  C   UNL     1       2.408   4.593   0.003  0.00  0.00    +0.138 C 
BRANCH   6   7
ATOM      7  C   UNL     1       1.144   3.833   0.011  0.00  0.00    -0.004 A 
ATOM      8  C   UNL     1      -0.080   4.507   0.026  0.00  0.00    +0.011 A 
ATOM      9  C   UNL     1      -1.258   3.792   0.034  0.00  0.00    +0.022 A 
ATOM     10  C   UNL     1      -1.232   2.407   0.021  0.00  0.00    +0.059 A 
ATOM     11  C   UNL     1      -0.021   1.732   0.012  0.00  0.00    +0.060 A 
ATOM     12  C   UNL     1       1.165   2.437   0.004  0.00  0.00    +0.031 A 
ATOM     13 CL   UNL     1       0.002  -0.004   0.002  0.00  0.00    -0.082 Cl
ATOM     14 CL   UNL     1      -2.720   1.514   0.024  0.00  0.00    -0.082 Cl
ENDBRANCH   6   7
ENDBRANCH   3   5
BRANCH   1  15
ATOM     15  C   UNL     1       4.853   8.737  -0.000  0.00  0.00    +0.326 C 
BRANCH  15  16
ATOM     16  O   UNL     1       4.567  10.137   0.010  0.00  0.00    -0.482 OA
BRANCH  16  23
ATOM     17  C   UNL     1       5.602  10.945   2.511  0.00  0.00    +0.047 C 
ATOM     18  C   UNL     1       6.181  11.415   1.201  0.00  0.00    -0.009 A 
ATOM     19  C   UNL     1       7.265  12.272   1.192  0.00  0.00    +0.007 A 
ATOM     20  C   UNL     1       7.794  12.707  -0.009  0.00  0.00    +0.001 A 
ATOM     21  C   UNL     1       7.242  12.283  -1.204  0.00  0.00    +0.007 A 
ATOM     22  C   UNL     1       6.162  11.423  -1.200  0.00  0.00    -0.009 A 
ATOM     23  C   UNL     1       5.630  10.984   0.004  0.00  0.00    +0.127 A 
ATOM     24  C   UNL     1       5.561  10.960  -2.503  0.00  0.00    +0.047 C 
ENDBRANCH  16  23
ENDBRANCH  15  16
ENDBRANCH   1  15
TORSDOF 5
