REMARK  Name = ZINC14016633
REMARK  5 active torsions:
REMARK  status: ('A' for Active; 'I' for Inactive)
REMARK    1  A    between atoms: C_3  and  S_8
REMARK    2  A    between atoms: S_8  and  N_11
REMARK    3  A    between atoms: C_15  and  C_18
REMARK    4  A    between atoms: N_20  and  C_21
REMARK    5  A    between atoms: C_22  and  C_30
REMARK                            x       y       z     vdW  Elec       q    Type
REMARK                         _______ _______ _______ _____ _____    ______ ____
ROOT
ATOM      1  C   UNL     1      -6.682   0.335   2.586  0.00  0.00    +0.222 C 
ATOM      2  O   UNL     1      -6.883   0.111   1.411  0.00  0.00    -0.275 OA
ATOM      3  N   UNL     1      -5.451   0.695   3.002  0.00  0.00    -0.279 N 
ATOM      4  H   UNL     1      -5.291   0.875   3.942  0.00  0.00    +0.155 HD
ENDROOT
BRANCH   3   5
ATOM      5  C   UNL     1      -4.415   0.809   2.088  0.00  0.00    +0.084 A 
ATOM      6  C   UNL     1      -3.094   1.163   2.321  0.00  0.00    +0.068 A 
ATOM      7  C   UNL     1      -2.199   1.208   1.178  0.00  0.00    -0.023 A 
ATOM      8  C   UNL     1      -2.764   0.894  -0.008  0.00  0.00    -0.004 A 
ATOM      9  S   UNL     1      -4.456   0.542   0.376  0.00  0.00    -0.077 S 
ATOM     10  C   UNL     1      -2.094   0.856  -1.347  0.00  0.00    +0.043 C 
ATOM     11  C   UNL     1      -0.750   1.591  -1.235  0.00  0.00    +0.005 C 
ATOM     12  C   UNL     1      -0.013   1.086   0.008  0.00  0.00    +0.005 C 
ATOM     13  C   UNL     1      -0.725   1.577   1.269  0.00  0.00    +0.037 C 
BRANCH   6  14
ATOM     14  C   UNL     1      -2.619   1.481   3.671  0.00  0.00    +0.244 C 
ATOM     15  O   UNL     1      -2.668   2.627   4.079  0.00  0.00    -0.270 OA
ATOM     16  N   UNL     1      -2.130   0.505   4.461  0.00  0.00    -0.325 N 
ATOM     17  H   UNL     1      -2.091  -0.408   4.136  0.00  0.00    +0.145 HD
ATOM     18  H   UNL     1      -1.815   0.716   5.354  0.00  0.00    +0.145 HD
ENDBRANCH   6  14
ENDBRANCH   3   5
BRANCH   1  23
ATOM     19  N   UNL     1     -10.141  -0.449   3.848  0.00  0.00    -0.176 NA
ATOM     20  C   UNL     1      -9.870  -1.381   4.951  0.00  0.00    +0.109 C 
ATOM     21  C   UNL     1      -8.580  -0.949   5.655  0.00  0.00    +0.018 C 
ATOM     22  C   UNL     1      -7.451  -0.846   4.627  0.00  0.00    +0.015 C 
ATOM     23  C   UNL     1      -7.808   0.212   3.580  0.00  0.00    +0.091 C 
ATOM     24  C   UNL     1      -9.089  -0.207   2.852  0.00  0.00    +0.122 C 
BRANCH  19  25
ATOM     25  S   UNL     1     -11.606   0.315   3.730  0.00  0.00    +0.061 S 
ATOM     26  O   UNL     1     -12.157   0.340   5.040  0.00  0.00    -0.153 OA
ATOM     27  O   UNL     1     -11.388   1.496   2.972  0.00  0.00    -0.153 OA
BRANCH  25  30
ATOM     28  C   UNL     1     -14.260  -2.490   2.619  0.00  0.00    +0.040 A 
ATOM     29  C   UNL     1     -13.436  -1.679   3.377  0.00  0.00    +0.031 A 
ATOM     30  C   UNL     1     -12.655  -0.718   2.762  0.00  0.00    +0.106 A 
ATOM     31  C   UNL     1     -12.701  -0.564   1.389  0.00  0.00    +0.031 A 
ATOM     32  C   UNL     1     -13.520  -1.376   0.629  0.00  0.00    +0.040 A 
ATOM     33  C   UNL     1     -14.303  -2.339   1.244  0.00  0.00    +0.124 A 
ATOM     34  F   UNL     1     -15.107  -3.131   0.501  0.00  0.00    -0.205 F 
ENDBRANCH  25  30
ENDBRANCH  19  25
ENDBRANCH   1  23
TORSDOF 5
