REMARK  Name = ZINC09490722
REMARK  11 active torsions:
REMARK  status: ('A' for Active; 'I' for Inactive)
REMARK    1  A    between atoms: C_1  and  C_2
REMARK    2  A    between atoms: C_7  and  N_12
REMARK    3  A    between atoms: C_9  and  C_11
REMARK    4  A    between atoms: C_13  and  C_15
REMARK    5  A    between atoms: C_23  and  C_33
REMARK    6  A    between atoms: N_29  and  C_30
REMARK    7  A    between atoms: C_30  and  C_31
REMARK    8  A    between atoms: N_35  and  C_36
REMARK    9  A    between atoms: C_39  and  C_42
REMARK   10  A    between atoms: C_42  and  C_43
REMARK   11  A    between atoms: C_42  and  C_44
REMARK                            x       y       z     vdW  Elec       q    Type
REMARK                         _______ _______ _______ _____ _____    ______ ____
ROOT
ATOM      1  C   UNL     1       1.155   1.751   0.228  0.00  0.00    +0.199 C 
ATOM      2  C   UNL     1       1.343   2.221  -1.181  0.00  0.00    +0.127 C 
ATOM      3  C   UNL     1       1.239   1.097  -2.196  0.00  0.00    +0.009 C 
ATOM      4  C   UNL     1       1.415   1.665  -3.380  0.00  0.00    +0.004 C 
ATOM      5  C   UNL     1       1.692   3.143  -3.075  0.00  0.00    +0.155 C 
ATOM      6  O   UNL     1       0.853   3.352  -1.863  0.00  0.00    -0.358 OA
ATOM      7  C   UNL     1       3.146   3.089  -2.465  0.00  0.00    +0.123 C 
ATOM      8  C   UNL     1       2.861   2.646  -1.052  0.00  0.00    +0.128 C 
ATOM      9  C   UNL     1       3.408   1.463  -0.365  0.00  0.00    +0.224 C 
ATOM     10  O   UNL     1       4.516   0.990  -0.511  0.00  0.00    -0.275 OA
ATOM     11  N   UNL     1       2.425   0.997   0.474  0.00  0.00    -0.283 N 
ENDROOT
BRANCH   1  13
ATOM     12  N   UNL     1      -1.268   1.363   0.537  0.00  0.00    -0.311 N 
ATOM     13  C   UNL     1      -0.041   0.842   0.338  0.00  0.00    +0.237 C 
ATOM     14  O   UNL     1       0.099  -0.359   0.242  0.00  0.00    -0.274 OA
ATOM     15  H   UNL     1      -1.380   2.323   0.615  0.00  0.00    +0.149 HD
BRANCH  12  21
ATOM     16  C   UNL     1      -6.170   1.097  -0.050  0.00  0.00    +0.008 C 
ATOM     17  C   UNL     1      -4.909   0.327   0.347  0.00  0.00    -0.009 C 
ATOM     18  C   UNL     1      -5.047  -0.173   1.786  0.00  0.00    +0.003 C 
ATOM     19  C   UNL     1      -3.786  -0.943   2.183  0.00  0.00    +0.002 C 
ATOM     20  C   UNL     1      -2.571  -0.020   2.078  0.00  0.00    +0.022 C 
ATOM     21  C   UNL     1      -2.432   0.479   0.638  0.00  0.00    +0.076 C 
ATOM     22  C   UNL     1      -3.693   1.250   0.242  0.00  0.00    +0.009 C 
ATOM     23  C   UNL     1      -3.877   2.444   1.180  0.00  0.00    +0.009 C 
ENDBRANCH  12  21
ENDBRANCH   1  13
BRANCH   7  24
ATOM     24  C   UNL     1       3.999   2.078  -3.187  0.00  0.00    +0.224 C 
ATOM     25  O   UNL     1       3.942   0.906  -2.879  0.00  0.00    -0.275 OA
ATOM     26  N   UNL     1       4.824   2.475  -4.176  0.00  0.00    -0.285 N 
ATOM     27  H   UNL     1       4.926   3.420  -4.373  0.00  0.00    +0.155 HD
BRANCH  26  28
ATOM     28  C   UNL     1       5.535   1.526  -4.918  0.00  0.00    +0.033 A 
ATOM     29  C   UNL     1       6.011   0.375  -4.302  0.00  0.00    +0.023 A 
ATOM     30  C   UNL     1       6.707  -0.563  -5.039  0.00  0.00    +0.006 A 
ATOM     31  C   UNL     1       6.942  -0.351  -6.385  0.00  0.00    -0.045 A 
ATOM     32  C   UNL     1       6.475   0.796  -7.000  0.00  0.00    +0.006 A 
ATOM     33  C   UNL     1       5.773   1.735  -6.270  0.00  0.00    +0.023 A 
BRANCH  31  34
ATOM     34  C   UNL     1       7.708  -1.374  -7.184  0.00  0.00    +0.013 C 
ATOM     35  C   UNL     1       9.106  -1.545  -6.587  0.00  0.00    +0.012 C 
ATOM     36  C   UNL     1       6.969  -2.713  -7.142  0.00  0.00    +0.012 C 
ENDBRANCH  31  34
ENDBRANCH  26  28
ENDBRANCH   7  24
BRANCH  11  37
ATOM     37  C   UNL     1       2.593  -0.074   1.459  0.00  0.00    +0.135 C 
BRANCH  37  38
ATOM     38  C   UNL     1       2.916   0.525   2.803  0.00  0.00    -0.016 C 
ATOM     39  C   UNL     1       2.168   0.245   3.842  0.00  0.00    +0.005 C 
ENDBRANCH  37  38
ENDBRANCH  11  37
TORSDOF 7
