REMARK  Name = ZINC65074850
REMARK  6 active torsions:
REMARK  status: ('A' for Active; 'I' for Inactive)
REMARK    1  A    between atoms: C_1  and  C_2
REMARK    2  A    between atoms: C_2  and  C_3
REMARK    3  A    between atoms: C_2  and  C_4
REMARK    4  A    between atoms: C_7  and  S_10
REMARK    5  A    between atoms: S_10  and  N_13
REMARK    6  A    between atoms: N_24  and  C_25
REMARK                            x       y       z     vdW  Elec       q    Type
REMARK                         _______ _______ _______ _____ _____    ______ ____
ROOT
ATOM      1  N   UNL     1      -6.599  -0.977  -0.736  0.00  0.00    -0.176 NA
ATOM      2  C   UNL     1      -7.229   0.123   0.007  0.00  0.00    +0.111 C 
ATOM      3  C   UNL     1      -8.732   0.121  -0.290  0.00  0.00    +0.047 C 
ATOM      4  C   UNL     1      -8.950   0.182  -1.804  0.00  0.00    +0.075 C 
ATOM      5  C   UNL     1      -8.327  -1.054  -2.458  0.00  0.00    +0.047 C 
ATOM      6  C   UNL     1      -6.815  -1.063  -2.187  0.00  0.00    +0.111 C 
ATOM      7  C   UNL     1     -10.422   0.219  -2.099  0.00  0.00    +0.089 C 
ATOM      8  N   UNL     1     -11.049   1.280  -2.443  0.00  0.00    -0.374 N 
ATOM      9  C   UNL     1     -10.411   2.583  -2.602  0.00  0.00    +0.129 C 
ATOM     10  C   UNL     1      -9.046   2.588  -1.910  0.00  0.00    +0.102 C 
ATOM     11  N   UNL     1      -8.302   1.390  -2.337  0.00  0.00    -0.303 NA
ATOM     12  N   UNL     1     -11.133  -0.947  -1.994  0.00  0.00    -0.330 N 
ATOM     13  H   UNL     1      -7.337   1.441  -2.047  0.00  0.00    +0.123 HD
ATOM     14  H   UNL     1     -10.684  -1.767  -1.735  0.00  0.00    +0.147 HD
ATOM     15  H   UNL     1     -12.002   1.215  -2.608  0.00  0.00    +0.161 HD
ENDROOT
BRANCH  12  16
ATOM     16  C   UNL     1     -12.572  -0.956  -2.272  0.00  0.00    +0.071 C 
ATOM     17  C   UNL     1     -13.326  -0.473  -1.017  0.00  0.00    +0.022 C 
ATOM     18  C   UNL     1     -14.692   0.002  -1.434  0.00  0.00    +0.002 C 
ATOM     19  C   UNL     1     -15.763  -1.098  -1.304  0.00  0.00    +0.000 C 
ATOM     20  C   UNL     1     -15.268  -2.474  -1.786  0.00  0.00    +0.000 C 
ATOM     21  C   UNL     1     -14.458  -2.385  -3.052  0.00  0.00    +0.002 C 
ATOM     22  C   UNL     1     -12.965  -2.299  -2.674  0.00  0.00    +0.022 C 
ENDBRANCH  12  16
BRANCH   1  23
ATOM     23  S   UNL     1      -5.658  -2.093   0.045  0.00  0.00    +0.061 S 
ATOM     24  O   UNL     1      -5.665  -3.264  -0.760  0.00  0.00    -0.153 OA
ATOM     25  O   UNL     1      -6.078  -2.099   1.403  0.00  0.00    -0.153 OA
BRANCH  23  29
ATOM     26  C   UNL     1      -1.412  -0.526   0.013  0.00  0.00    -0.045 A 
ATOM     27  C   UNL     1      -2.259  -0.204   1.056  0.00  0.00    +0.006 A 
ATOM     28  C   UNL     1      -3.556  -0.683   1.066  0.00  0.00    +0.029 A 
ATOM     29  C   UNL     1      -4.006  -1.482   0.032  0.00  0.00    +0.105 A 
ATOM     30  C   UNL     1      -3.159  -1.803  -1.012  0.00  0.00    +0.029 A 
ATOM     31  C   UNL     1      -1.863  -1.321  -1.024  0.00  0.00    +0.006 A 
BRANCH  26  33
ATOM     32  C   UNL     1      -0.019   1.526   0.010  0.00  0.00    +0.012 C 
ATOM     33  C   UNL     1       0.002  -0.004   0.002  0.00  0.00    +0.013 C 
ATOM     34  C   UNL     1       0.742  -0.511   1.242  0.00  0.00    +0.012 C 
ENDBRANCH  26  33
ENDBRANCH  23  29
ENDBRANCH   1  23
TORSDOF 4
