REMARK  Name = ZINC10775546
REMARK  10 active torsions:
REMARK  status: ('A' for Active; 'I' for Inactive)
REMARK    1  A    between atoms: C_1  and  C_2
REMARK    2  A    between atoms: C_4  and  C_33
REMARK    3  A    between atoms: N_11  and  C_12
REMARK    4  A    between atoms: C_12  and  C_13
REMARK    5  A    between atoms: C_13  and  N_63
REMARK    6  A    between atoms: C_14  and  N_63
REMARK    7  A    between atoms: C_15  and  N_63
REMARK    8  A    between atoms: C_16  and  C_18
REMARK    9  A    between atoms: N_24  and  S_25
REMARK   10  A    between atoms: S_25  and  C_28
REMARK                            x       y       z     vdW  Elec       q    Type
REMARK                         _______ _______ _______ _____ _____    ______ ____
ROOT
ATOM      1  C   UNL     1      -4.479   4.734  -7.438  0.00  0.00    +0.044 C 
ATOM      2  C   UNL     1      -3.537   4.293  -6.348  0.00  0.00    -0.049 A 
ATOM      3  C   UNL     1      -4.027   3.681  -5.203  0.00  0.00    +0.009 A 
ATOM      4  C   UNL     1      -3.192   3.271  -4.197  0.00  0.00    -0.024 A 
ATOM      5  C   UNL     1      -1.794   3.462  -4.295  0.00  0.00    +0.083 A 
ATOM      6  C   UNL     1      -1.331   4.088  -5.474  0.00  0.00    +0.041 A 
ATOM      7  C   UNL     1      -2.175   4.495  -6.477  0.00  0.00    +0.020 A 
ATOM      8  S   UNL     1       0.425   4.144  -5.208  0.00  0.00    -0.052 S 
ATOM      9  C   UNL     1       0.434   3.350  -3.607  0.00  0.00    +0.168 A 
ATOM     10  N   UNL     1      -0.842   3.119  -3.401  0.00  0.00    -0.224 NA
ATOM     11  N   UNL     1       1.513   3.058  -2.788  0.00  0.00    -0.251 N 
ATOM     12  C   UNL     1       1.313   2.454  -1.600  0.00  0.00    +0.240 C 
ATOM     13  O   UNL     1       0.185   2.268  -1.197  0.00  0.00    -0.273 OA
ATOM     14  C   UNL     1      -3.770   2.610  -2.972  0.00  0.00    +0.046 C 
ENDROOT
BRANCH  12  15
ATOM     15  C   UNL     1       2.492   2.012  -0.772  0.00  0.00    +0.166 C 
ATOM     16  C   UNL     1       2.516   2.787   0.549  0.00  0.00    +0.030 C 
ATOM     17  C   UNL     1       3.632   2.236   1.439  0.00  0.00    +0.003 C 
ATOM     18  C   UNL     1       3.360   0.762   1.749  0.00  0.00    +0.017 C 
ATOM     19  C   UNL     1       3.342  -0.035   0.446  0.00  0.00    +0.110 C 
ATOM     20  N   UNL     1       2.376   0.577  -0.476  0.00  0.00    -0.164 NA
BRANCH  20  21
ATOM     21  S   UNL     1       1.174  -0.331  -1.165  0.00  0.00    +0.068 S 
ATOM     22  O   UNL     1       1.649  -1.670  -1.204  0.00  0.00    -0.152 OA
ATOM     23  O   UNL     1       0.757   0.364  -2.332  0.00  0.00    -0.152 OA
BRANCH  21  24
ATOM     24  C   UNL     1      -0.193  -0.315  -0.053  0.00  0.00    +0.143 A 
ATOM     25  C   UNL     1      -1.313   0.448  -0.089  0.00  0.00    +0.036 A 
ATOM     26  C   UNL     1      -2.266   0.286   0.899  0.00  0.00    +0.010 A 
ATOM     27  C   UNL     1      -2.048  -0.624   1.880  0.00  0.00    +0.047 A 
ATOM     28  S   UNL     1      -0.458  -1.292   1.417  0.00  0.00    -0.077 S 
ENDBRANCH  21  24
ENDBRANCH  20  21
ENDBRANCH  12  15
BRANCH  11  29
ATOM     29  C   UNL     1       2.871   3.405  -3.215  0.00  0.00    +0.097 C 
BRANCH  29  30
ATOM     30  C   UNL     1       3.490   2.221  -3.961  0.00  0.00    -0.060 C 
BRANCH  30  33
ATOM     31  C   UNL     1       5.562   1.388  -4.896  0.00  0.00    -0.097 C 
ATOM     32  C   UNL     1       4.830   3.642  -5.392  0.00  0.00    -0.097 C 
ATOM     33  N   UNL     1       4.865   2.579  -4.365  0.00  0.00    +0.377 N 
ATOM     34  H   UNL     1       5.375   2.925  -3.544  0.00  0.00    -0.083 HD
ENDBRANCH  30  33
ENDBRANCH  29  30
ENDBRANCH  11  29
TORSDOF 6
