REMARK  Name = ZINC06732171
REMARK  7 active torsions:
REMARK  status: ('A' for Active; 'I' for Inactive)
REMARK    1  A    between atoms: C_1  and  C_2
REMARK    2  A    between atoms: C_2  and  C_3
REMARK    3  A    between atoms: C_2  and  C_4
REMARK    4  A    between atoms: C_2  and  O_5
REMARK    5  A    between atoms: O_5  and  C_6
REMARK    6  A    between atoms: C_11  and  C_21
REMARK    7  A    between atoms: C_13  and  C_15
REMARK                            x       y       z     vdW  Elec       q    Type
REMARK                         _______ _______ _______ _____ _____    ______ ____
ROOT
ATOM      1  C   UNL     1       3.129   2.872   1.494  0.00  0.00    +0.404 C 
ATOM      2  O   UNL     1       1.955   3.167   1.604  0.00  0.00    -0.226 OA
ATOM      3  N   UNL     1       3.489   1.804   0.754  0.00  0.00    -0.263 N 
ATOM      4  C   UNL     1       4.888   1.351   0.714  0.00  0.00    +0.093 C 
ATOM      5  C   UNL     1       5.311   1.208  -0.751  0.00  0.00    -0.062 C 
ATOM      6  C   UNL     1       3.012   0.930  -1.471  0.00  0.00    -0.015 C 
ATOM      7  C   UNL     1       2.494   1.062  -0.035  0.00  0.00    +0.100 C 
ATOM      8  N   UNL     1       4.359   0.327  -1.456  0.00  0.00    +0.386 N 
ATOM      9  H   UNL     1       4.318  -0.580  -0.976  0.00  0.00    -0.085 HD
ATOM     10  H   UNL     1       4.678   0.188  -2.422  0.00  0.00    -0.085 HD
ENDROOT
BRANCH   7  11
ATOM     11  C   UNL     1       1.187   1.812  -0.035  0.00  0.00    -0.028 A 
ATOM     12  C   UNL     1       0.083   1.276   0.601  0.00  0.00    +0.005 A 
ATOM     13  C   UNL     1      -1.118   1.961   0.596  0.00  0.00    +0.000 A 
ATOM     14  C   UNL     1      -1.212   3.186  -0.036  0.00  0.00    +0.000 A 
ATOM     15  C   UNL     1      -0.108   3.723  -0.671  0.00  0.00    +0.000 A 
ATOM     16  C   UNL     1       1.092   3.035  -0.671  0.00  0.00    +0.005 A 
ENDBRANCH   7  11
BRANCH   6  17
ATOM     17  C   UNL     1       2.084   0.044  -2.261  0.00  0.00    -0.059 A 
ATOM     18  C   UNL     1       2.175  -1.331  -2.144  0.00  0.00    +0.002 A 
ATOM     19  C   UNL     1       1.320  -2.144  -2.865  0.00  0.00    +0.000 A 
ATOM     20  C   UNL     1       0.381  -1.583  -3.710  0.00  0.00    +0.000 A 
ATOM     21  C   UNL     1       0.293  -0.208  -3.830  0.00  0.00    +0.000 A 
ATOM     22  C   UNL     1       1.145   0.605  -3.106  0.00  0.00    +0.002 A 
ENDBRANCH   6  17
BRANCH   1  23
ATOM     23  O   UNL     1       4.069   3.612   2.110  0.00  0.00    -0.445 OA
BRANCH  23  25
ATOM     24  C   UNL     1       2.677   4.259   4.000  0.00  0.00    +0.055 C 
ATOM     25  C   UNL     1       3.609   4.747   2.890  0.00  0.00    +0.107 C 
ATOM     26  C   UNL     1       4.811   5.461   3.510  0.00  0.00    +0.055 C 
ATOM     27  C   UNL     1       2.853   5.718   1.980  0.00  0.00    +0.055 C 
ENDBRANCH  23  25
ENDBRANCH   1  23
TORSDOF 4
