REMARK  Name = ZINC20289322
REMARK  9 active torsions:
REMARK  status: ('A' for Active; 'I' for Inactive)
REMARK    1  A    between atoms: C_1  and  C_2
REMARK    2  A    between atoms: C_2  and  C_4
REMARK    3  A    between atoms: C_2  and  N_25
REMARK    4  A    between atoms: C_4  and  C_6
REMARK    5  A    between atoms: C_4  and  N_11
REMARK    6  A    between atoms: N_14  and  C_17
REMARK    7  A    between atoms: C_20  and  O_23
REMARK    8  A    between atoms: O_23  and  C_24
REMARK    9  A    between atoms: C_26  and  C_28
REMARK                            x       y       z     vdW  Elec       q    Type
REMARK                         _______ _______ _______ _____ _____    ______ ____
ROOT
ATOM      1  C   UNL     1       0.742  -0.511   1.242  0.00  0.00    +0.114 C 
ENDROOT
BRANCH   1   2
ATOM      2  N   UNL     1       2.080   0.093   1.294  0.00  0.00    -0.290 NA
ATOM      3  C   UNL     1       2.832  -0.185   0.062  0.00  0.00    +0.102 C 
ATOM      4  C   UNL     1       4.194   0.509   0.132  0.00  0.00    +0.100 C 
ATOM      5  N   UNL     1       4.936   0.017   1.300  0.00  0.00    -0.391 NA
ATOM      6  C   UNL     1       4.184   0.324   2.524  0.00  0.00    +0.100 C 
ATOM      7  C   UNL     1       2.822  -0.372   2.474  0.00  0.00    +0.102 C 
ATOM      8  H   UNL     1       5.060  -0.982   1.223  0.00  0.00    +0.126 HD
BRANCH   5   9
ATOM      9  C   UNL     1       6.187   0.638   1.353  0.00  0.00    +0.014 A 
ATOM     10  C   UNL     1       6.269   2.014   1.465  0.00  0.00    +0.025 A 
ATOM     11  C   UNL     1       7.504   2.631   1.518  0.00  0.00    +0.047 A 
ATOM     12  C   UNL     1       8.662   1.869   1.458  0.00  0.00    +0.120 A 
ATOM     13  C   UNL     1       8.576   0.489   1.347  0.00  0.00    +0.047 A 
ATOM     14  C   UNL     1       7.339  -0.124   1.300  0.00  0.00    +0.025 A 
BRANCH  12  15
ATOM     15  O   UNL     1       9.878   2.473   1.510  0.00  0.00    -0.495 OA
ATOM     16  C   UNL     1      11.027   1.626   1.444  0.00  0.00    +0.277 C 
ENDBRANCH  12  15
ENDBRANCH   5   9
ENDBRANCH   1   2
BRANCH   1  17
ATOM     17  C   UNL     1      -0.030  -0.130   2.478  0.00  0.00    +0.009 A 
ATOM     18  C   UNL     1      -0.860  -0.888   3.234  0.00  0.00    +0.013 A 
ATOM     19  C   UNL     1      -1.467  -0.321   4.339  0.00  0.00    +0.008 A 
ATOM     20  C   UNL     1      -1.214   0.977   4.634  0.00  0.00    +0.045 A 
ATOM     21  S   UNL     1      -0.082   1.437   3.333  0.00  0.00    -0.100 S 
ENDBRANCH   1  17
BRANCH   1  23
ATOM     22  C   UNL     1      -0.019   1.526   0.010  0.00  0.00    +0.030 C 
ATOM     23  C   UNL     1       0.002  -0.004   0.002  0.00  0.00    +0.092 C 
BRANCH  23  24
ATOM     24  N   UNL     1      -1.372  -0.511   0.012  0.00  0.00    -0.303 N 
ATOM     25  C   UNL     1      -2.051  -0.643  -1.145  0.00  0.00    +0.299 C 
ATOM     26  O   UNL     1      -1.523  -0.341  -2.195  0.00  0.00    -0.265 OA
ATOM     27  H   UNL     1      -1.794  -0.752   0.852  0.00  0.00    +0.149 HD
BRANCH  25  28
ATOM     28  C   UNL     1      -3.453  -1.160  -1.134  0.00  0.00    +0.301 C 
ATOM     29  O   UNL     1      -3.981  -1.462  -0.084  0.00  0.00    -0.265 OA
ATOM     30  N   UNL     1      -4.131  -1.292  -2.291  0.00  0.00    -0.294 N 
ATOM     31  C   UNL     1      -3.614  -0.971  -3.629  0.00  0.00    +0.108 C 
ATOM     32  C   UNL     1      -4.746  -1.254  -4.639  0.00  0.00    +0.020 C 
ATOM     33  C   UNL     1      -6.022  -1.180  -3.759  0.00  0.00    +0.020 C 
ATOM     34  C   UNL     1      -5.514  -1.787  -2.425  0.00  0.00    +0.108 C 
ENDBRANCH  25  28
ENDBRANCH  23  24
ENDBRANCH   1  23
TORSDOF 7
