REMARK  Name = ZINC15043749
REMARK  9 active torsions:
REMARK  status: ('A' for Active; 'I' for Inactive)
REMARK    1  A    between atoms: C_4  and  N_7
REMARK    2  A    between atoms: C_8  and  C_10
REMARK    3  A    between atoms: C_10  and  C_11
REMARK    4  A    between atoms: C_11  and  C_12
REMARK    5  A    between atoms: C_12  and  C_13
REMARK    6  A    between atoms: C_13  and  C_14
REMARK    7  A    between atoms: C_14  and  N_15
REMARK    8  A    between atoms: C_19  and  C_20
REMARK    9  A    between atoms: C_25  and  O_26
REMARK                            x       y       z     vdW  Elec       q    Type
REMARK                         _______ _______ _______ _____ _____    ______ ____
ROOT
ATOM      1  N   UNL     1       0.287   1.456   0.550  0.00  0.00    -0.255 N 
ATOM      2  C   UNL     1       1.376   2.188   0.382  0.00  0.00    +0.258 C 
ATOM      3  O   UNL     1       2.480   1.683   0.304  0.00  0.00    -0.269 OA
ATOM      4  C   UNL     1       1.184   3.649   0.293  0.00  0.00    +0.077 C 
ATOM      5  C   UNL     1       2.102   4.634   0.124  0.00  0.00    +0.032 C 
ATOM      6  S   UNL     1      -0.591   3.765   0.471  0.00  0.00    -0.061 S 
ATOM      7  C   UNL     1      -0.935   2.020   0.631  0.00  0.00    +0.121 C 
ATOM      8  S   UNL     1      -2.450   1.249   0.839  0.00  0.00    -0.027 S 
ENDROOT
BRANCH   5   9
ATOM      9  C   UNL     1       1.708   6.040   0.275  0.00  0.00    +0.019 A 
ATOM     10  C   UNL     1       0.530   6.372   0.954  0.00  0.00    +0.026 A 
ATOM     11  C   UNL     1       0.166   7.694   1.093  0.00  0.00    +0.019 A 
ATOM     12  C   UNL     1       0.962   8.697   0.562  0.00  0.00    +0.019 A 
ATOM     13  C   UNL     1       2.127   8.384  -0.112  0.00  0.00    +0.047 A 
ATOM     14  C   UNL     1       2.513   7.061  -0.256  0.00  0.00    +0.124 A 
ATOM     15 BR   UNL     1      -1.425   8.142   2.010  0.00  0.00    -0.050 Br
BRANCH  14  16
ATOM     16  O   UNL     1       3.660   6.753  -0.912  0.00  0.00    -0.506 OA
ATOM     17  H   UNL     1       3.546   6.620  -1.863  0.00  0.00    +0.292 HD
ENDBRANCH  14  16
ENDBRANCH   5   9
BRANCH   1  18
ATOM     18  C   UNL     1       0.411  -0.000   0.645  0.00  0.00    +0.115 C 
BRANCH  18  19
ATOM     19  C   UNL     1       0.605  -0.402   2.109  0.00  0.00    +0.019 C 
BRANCH  19  20
ATOM     20  C   UNL     1       0.735  -1.923   2.208  0.00  0.00    +0.002 C 
BRANCH  20  21
ATOM     21  C   UNL     1       0.928  -2.324   3.671  0.00  0.00    +0.009 C 
BRANCH  21  22
ATOM     22  C   UNL     1       1.058  -3.846   3.770  0.00  0.00    +0.096 C 
BRANCH  22  24
ATOM     23  N   UNL     1       1.386  -5.540   5.542  0.00  0.00    -0.285 N 
ATOM     24  C   UNL     1       1.248  -4.241   5.212  0.00  0.00    +0.217 C 
ATOM     25  O   UNL     1       1.277  -3.390   6.075  0.00  0.00    -0.275 OA
ATOM     26  H   UNL     1       1.290  -6.226   4.862  0.00  0.00    +0.155 HD
BRANCH  23  30
ATOM     27  C   UNL     1       2.224  -6.612   9.479  0.00  0.00    +0.000 A 
ATOM     28  C   UNL     1       1.397  -5.535   9.219  0.00  0.00    +0.002 A 
ATOM     29  C   UNL     1       1.118  -5.176   7.914  0.00  0.00    +0.023 A 
ATOM     30  C   UNL     1       1.667  -5.900   6.864  0.00  0.00    +0.033 A 
ATOM     31  C   UNL     1       2.492  -6.986   7.130  0.00  0.00    +0.023 A 
ATOM     32  C   UNL     1       2.772  -7.335   8.436  0.00  0.00    +0.002 A 
ENDBRANCH  23  30
ENDBRANCH  22  24
ENDBRANCH  21  22
ENDBRANCH  20  21
ENDBRANCH  19  20
ENDBRANCH  18  19
ENDBRANCH   1  18
TORSDOF 9
