REMARK  Name = ZINC09242668
REMARK  6 active torsions:
REMARK  status: ('A' for Active; 'I' for Inactive)
REMARK    1  A    between atoms: C_1  and  C_2
REMARK    2  A    between atoms: N_8  and  C_9
REMARK    3  A    between atoms: C_9  and  C_10
REMARK    4  A    between atoms: C_16  and  C_24
REMARK    5  A    between atoms: C_18  and  C_22
REMARK    6  A    between atoms: C_19  and  N_21
REMARK                            x       y       z     vdW  Elec       q    Type
REMARK                         _______ _______ _______ _____ _____    ______ ____
ROOT
ATOM      1  C   UNL     1       0.600   7.762   1.181  0.00  0.00    +0.064 C 
ATOM      2  C   UNL     1       0.735   6.275   0.976  0.00  0.00    +0.023 A 
ATOM      3  C   UNL     1      -0.373   5.524   0.803  0.00  0.00    +0.068 A 
ATOM      4  C   UNL     1      -0.253   4.132   0.611  0.00  0.00    +0.141 A 
ATOM      5  C   UNL     1       1.004   3.565   0.604  0.00  0.00    +0.072 A 
ATOM      6  C   UNL     1       2.126   4.384   0.788  0.00  0.00    +0.259 A 
ATOM      7  O   UNL     1       3.245   3.896   0.784  0.00  0.00    -0.267 OA
ATOM      8  N   UNL     1       1.971   5.709   0.969  0.00  0.00    -0.310 N 
ATOM      9  C   UNL     1       1.179   2.085   0.402  0.00  0.00    +0.104 C 
ATOM     10  C   UNL     1      -0.127   1.374   0.627  0.00  0.00    +0.098 C 
ATOM     11  C   UNL     1      -1.302   2.047   0.627  0.00  0.00    +0.199 C 
ATOM     12  O   UNL     1      -1.359   3.377   0.438  0.00  0.00    -0.441 OA
ENDROOT
BRANCH   9  13
ATOM     13  C   UNL     1       1.652   1.828  -1.005  0.00  0.00    -0.021 A 
ATOM     14  C   UNL     1       0.871   2.214  -2.078  0.00  0.00    +0.005 A 
ATOM     15  C   UNL     1       1.306   1.979  -3.369  0.00  0.00    +0.000 A 
ATOM     16  C   UNL     1       2.521   1.357  -3.588  0.00  0.00    +0.001 A 
ATOM     17  C   UNL     1       3.303   0.971  -2.516  0.00  0.00    +0.015 A 
ATOM     18  C   UNL     1       2.871   1.210  -1.223  0.00  0.00    +0.022 A 
ATOM     19 BR   UNL     1       3.942   0.688   0.244  0.00  0.00    -0.050 Br
ENDBRANCH   9  13
BRANCH  11  20
ATOM     20  N   UNL     1      -2.468   1.353   0.830  0.00  0.00    -0.328 N 
ATOM     21  H   UNL     1      -2.442   0.393   0.971  0.00  0.00    +0.145 HD
ATOM     22  H   UNL     1      -3.317   1.821   0.833  0.00  0.00    +0.145 HD
ENDBRANCH  11  20
BRANCH  10  23
ATOM     23  C   UNL     1      -0.129  -0.042   0.839  0.00  0.00    +0.101 C 
ATOM     24  N   UNL     1      -0.130  -1.166   1.006  0.00  0.00    -0.191 NA
ENDBRANCH  10  23
BRANCH   8  25
ATOM     25  C   UNL     1       3.152   6.554   1.159  0.00  0.00    +0.156 C 
BRANCH  25  26
ATOM     26  C   UNL     1       3.576   7.149  -0.185  0.00  0.00    +0.138 C 
ATOM     27  C   UNL     1       4.846   8.019  -0.012  0.00  0.00    +0.035 C 
ATOM     28  C   UNL     1       5.441   7.959  -1.446  0.00  0.00    +0.031 C 
ATOM     29  C   UNL     1       5.057   6.535  -1.903  0.00  0.00    +0.160 C 
ATOM     30  O   UNL     1       3.956   6.104  -1.095  0.00  0.00    -0.375 OA
ENDBRANCH  25  26
ENDBRANCH   8  25
TORSDOF 5
