REMARK  Name = ZINC62552666
REMARK  5 active torsions:
REMARK  status: ('A' for Active; 'I' for Inactive)
REMARK    1  A    between atoms: C_7  and  O_28
REMARK    2  A    between atoms: N_11  and  S_12
REMARK    3  A    between atoms: S_12  and  C_15
REMARK    4  A    between atoms: C_15  and  C_16
REMARK    5  A    between atoms: C_16  and  N_17
REMARK                            x       y       z     vdW  Elec       q    Type
REMARK                         _______ _______ _______ _____ _____    ______ ____
ROOT
ATOM      1  S   UNL     1       5.028   0.184   0.303  0.00  0.00    +0.047 S 
ATOM      2  O   UNL     1       6.059  -0.612  -0.265  0.00  0.00    -0.155 OA
ATOM      3  O   UNL     1       4.792   1.506  -0.164  0.00  0.00    -0.155 OA
ENDROOT
BRANCH   1  13
ATOM      4  C   UNL     1       3.640  -4.801  -0.117  0.00  0.00    +0.000 A 
ATOM      5  C   UNL     1       4.710  -4.115   0.428  0.00  0.00    +0.002 A 
ATOM      6  C   UNL     1       4.701  -2.735   0.456  0.00  0.00    +0.025 A 
ATOM      7  C   UNL     1       3.616  -2.036  -0.062  0.00  0.00    +0.056 A 
ATOM      8  C   UNL     1       2.543  -2.724  -0.606  0.00  0.00    +0.003 A 
ATOM      9  C   UNL     1       2.561  -4.108  -0.632  0.00  0.00    +0.008 A 
ATOM     10  C   UNL     1       1.347  -2.000  -1.166  0.00  0.00    +0.148 C 
ATOM     11  C   UNL     1       1.708  -0.555  -1.510  0.00  0.00    +0.057 C 
ATOM     12  C   UNL     1       2.380   0.091  -0.291  0.00  0.00    +0.134 C 
ATOM     13  N   UNL     1       3.629  -0.637  -0.028  0.00  0.00    -0.207 N 
BRANCH  10  14
ATOM     14  O   UNL     1       0.903  -2.668  -2.349  0.00  0.00    -0.387 OA
ATOM     15  H   UNL     1       0.641  -3.588  -2.206  0.00  0.00    +0.210 HD
ENDBRANCH  10  14
ENDBRANCH   1  13
BRANCH   1  16
ATOM     16  C   UNL     1       5.157   0.175   2.113  0.00  0.00    +0.208 C 
BRANCH  16  17
ATOM     17  C   UNL     1       6.427   0.915   2.538  0.00  0.00    +0.141 C 
BRANCH  17  18
ATOM     18  N   UNL     1       6.530   0.908   3.999  0.00  0.00    -0.232 N 
ATOM     19  C   UNL     1       6.010   1.852   4.804  0.00  0.00    +0.254 C 
ATOM     20  O   UNL     1       5.391   2.831   4.439  0.00  0.00    -0.270 OA
ATOM     21  C   UNL     1       6.320   1.499   6.205  0.00  0.00    +0.049 A 
ATOM     22  C   UNL     1       6.048   2.081   7.433  0.00  0.00    +0.014 A 
ATOM     23  C   UNL     1       6.495   1.474   8.596  0.00  0.00    +0.001 A 
ATOM     24  C   UNL     1       7.210   0.293   8.539  0.00  0.00    +0.001 A 
ATOM     25  C   UNL     1       7.489  -0.302   7.318  0.00  0.00    +0.014 A 
ATOM     26  C   UNL     1       7.048   0.294   6.147  0.00  0.00    +0.049 A 
ATOM     27  C   UNL     1       7.153  -0.047   4.713  0.00  0.00    +0.254 C 
ATOM     28  O   UNL     1       7.710  -1.025   4.255  0.00  0.00    -0.270 OA
ENDBRANCH  17  18
ENDBRANCH  16  17
ENDBRANCH   1  16
TORSDOF 5
