REMARK  Name = ZINC33141096
REMARK  7 active torsions:
REMARK  status: ('A' for Active; 'I' for Inactive)
REMARK    1  A    between atoms: C_1  and  C_2
REMARK    2  A    between atoms: C_2  and  C_3
REMARK    3  A    between atoms: C_8  and  N_9
REMARK    4  A    between atoms: C_10  and  C_12
REMARK    5  A    between atoms: C_12  and  N_13
REMARK    6  A    between atoms: C_27  and  C_30
REMARK    7  A    between atoms: N_32  and  C_33
REMARK                            x       y       z     vdW  Elec       q    Type
REMARK                         _______ _______ _______ _____ _____    ______ ____
ROOT
ATOM      1  N   UNL     1      -0.007   0.010   0.003  0.00  0.00    -0.289 N 
ATOM      2  C   UNL     1       1.187  -0.636  -0.002  0.00  0.00    +0.204 A 
ATOM      3  N   UNL     1       2.328  -0.021  -0.009  0.00  0.00    -0.217 NA
ATOM      4  C   UNL     1       2.413   1.341  -0.011  0.00  0.00    +0.176 A 
ATOM      5  C   UNL     1       1.189   2.036  -0.006  0.00  0.00    +0.124 A 
ATOM      6  C   UNL     1      -0.027   1.366   0.001  0.00  0.00    +0.270 A 
ATOM      7  O   UNL     1      -1.082   1.979   0.001  0.00  0.00    -0.266 OA
ATOM      8  S   UNL     1       1.714   3.729  -0.012  0.00  0.00    -0.045 S 
ATOM      9  C   UNL     1       3.426   3.432  -0.020  0.00  0.00    +0.164 A 
ATOM     10  N   UNL     1       3.498   2.116  -0.019  0.00  0.00    -0.205 NA
ATOM     11  N   UNL     1       4.456   4.348  -0.027  0.00  0.00    -0.309 N 
ATOM     12  C   UNL     1       4.331   5.272  -1.161  0.00  0.00    +0.107 C 
ATOM     13  C   UNL     1       5.402   6.359  -1.056  0.00  0.00    +0.020 C 
ATOM     14  C   UNL     1       6.787   5.706  -1.056  0.00  0.00    +0.016 C 
ATOM     15  C   UNL     1       6.874   4.713   0.106  0.00  0.00    +0.092 C 
ATOM     16  C   UNL     1       5.760   3.673  -0.033  0.00  0.00    +0.119 C 
ENDROOT
BRANCH  15  17
ATOM     17  C   UNL     1       8.213   4.022   0.078  0.00  0.00    +0.217 C 
ATOM     18  O   UNL     1       9.021   4.298  -0.783  0.00  0.00    -0.275 OA
ATOM     19  N   UNL     1       8.514   3.096   1.011  0.00  0.00    -0.318 N 
ATOM     20  C   UNL     1       9.815   2.424   0.984  0.00  0.00    +0.128 C 
ATOM     21  H   UNL     1       7.781   2.845   1.792  0.00  0.00    +0.148 HD
ENDBRANCH  15  17
BRANCH   1  22
ATOM     22  C   UNL     1      -1.260  -0.749   0.011  0.00  0.00    +0.222 C 
BRANCH  22  24
ATOM     23  N   UNL     1      -2.832  -1.698  -1.646  0.00  0.00    -0.284 N 
ATOM     24  C   UNL     1      -1.698  -1.011  -1.407  0.00  0.00    +0.237 C 
ATOM     25  O   UNL     1      -1.029  -0.604  -2.333  0.00  0.00    -0.274 OA
ATOM     26  H   UNL     1      -3.390  -2.146  -0.811  0.00  0.00    +0.155 HD
BRANCH  23  32
ATOM     27  C   UNL     1      -4.119  -2.913  -3.290  0.00  0.00    -0.026 A 
ATOM     28  C   UNL     1      -4.579  -3.053  -4.585  0.00  0.00    +0.005 A 
ATOM     29  C   UNL     1      -4.224  -2.128  -5.549  0.00  0.00    +0.000 A 
ATOM     30  C   UNL     1      -3.409  -1.060  -5.221  0.00  0.00    +0.002 A 
ATOM     31  C   UNL     1      -2.950  -0.912  -3.927  0.00  0.00    +0.023 A 
ATOM     32  C   UNL     1      -3.300  -1.843  -2.957  0.00  0.00    +0.037 A 
BRANCH  27  34
ATOM     33  C   UNL     1      -5.729  -3.414  -1.472  0.00  0.00    +0.009 C 
ATOM     34  C   UNL     1      -4.506  -3.921  -2.239  0.00  0.00    +0.033 C 
ENDBRANCH  27  34
ENDBRANCH  23  32
ENDBRANCH  22  24
ENDBRANCH   1  22
TORSDOF 5
