REMARK  Name = ZINC38995127
REMARK  6 active torsions:
REMARK  status: ('A' for Active; 'I' for Inactive)
REMARK    1  A    between atoms: C_1  and  C_2
REMARK    2  A    between atoms: C_4  and  C_8
REMARK    3  A    between atoms: C_12  and  S_16
REMARK    4  A    between atoms: N_14  and  N_15
REMARK    5  A    between atoms: S_16  and  C_17
REMARK    6  A    between atoms: C_17  and  C_18
REMARK                            x       y       z     vdW  Elec       q    Type
REMARK                         _______ _______ _______ _____ _____    ______ ____
ROOT
ATOM      1  C   UNL     1      -0.976  -2.937  -1.266  0.00  0.00    +0.185 C 
ATOM      2  N   UNL     1      -0.331  -2.354  -2.472  0.00  0.00    -0.234 NA
ATOM      3  N   UNL     1      -0.366  -3.464  -3.437  0.00  0.00    -0.228 NA
ATOM      4  C   UNL     1      -0.103  -4.671  -2.622  0.00  0.00    +0.214 C 
ATOM      5  N   UNL     1      -0.495  -4.338  -1.235  0.00  0.00    -0.197 NA
ATOM      6  H   UNL     1      -0.854  -1.561  -2.814  0.00  0.00    +0.143 HD
ATOM      7  H   UNL     1      -1.267  -3.522  -3.889  0.00  0.00    +0.143 HD
ENDROOT
BRANCH   1  11
ATOM      8  C   UNL     1      -0.018   1.503   0.010  0.00  0.00    +0.067 C 
ATOM      9  C   UNL     1       0.002  -0.004   0.002  0.00  0.00    +0.058 C 
ATOM     10  C   UNL     1      -1.086  -0.777   0.003  0.00  0.00    +0.029 C 
ATOM     11  C   UNL     1      -0.531  -2.190  -0.007  0.00  0.00    +0.186 C 
ATOM     12  N   UNL     1       0.926  -1.973  -0.013  0.00  0.00    -0.177 NA
ATOM     13  N   UNL     1       1.125  -0.756  -0.013  0.00  0.00    -0.159 NA
ENDBRANCH   1  11
BRANCH   5  14
ATOM     14  N   UNL     1      -1.534  -5.234  -0.754  0.00  0.00    -0.264 NA
ATOM     15  H   UNL     1      -1.207  -6.189  -0.733  0.00  0.00    +0.137 HD
ATOM     16  H   UNL     1      -1.869  -4.947   0.153  0.00  0.00    +0.137 HD
ENDBRANCH   5  14
BRANCH   4  17
ATOM     17  S   UNL     1      -1.096  -6.061  -3.231  0.00  0.00    -0.119 S 
BRANCH  17  18
ATOM     18  C   UNL     1      -2.806  -5.471  -3.096  0.00  0.00    +0.107 C 
BRANCH  18  19
ATOM     19  C   UNL     1      -3.748  -6.545  -3.576  0.00  0.00    -0.037 A 
ATOM     20  C   UNL     1      -4.111  -6.600  -4.909  0.00  0.00    +0.005 A 
ATOM     21  C   UNL     1      -4.974  -7.585  -5.350  0.00  0.00    +0.015 A 
ATOM     22  C   UNL     1      -5.476  -8.515  -4.457  0.00  0.00    +0.018 A 
ATOM     23  C   UNL     1      -5.112  -8.460  -3.124  0.00  0.00    +0.015 A 
ATOM     24  C   UNL     1      -4.245  -7.477  -2.685  0.00  0.00    +0.005 A 
ATOM     25 BR   UNL     1      -6.657  -9.863  -5.060  0.00  0.00    -0.050 Br
ENDBRANCH  18  19
ENDBRANCH  17  18
ENDBRANCH   4  17
TORSDOF 5
