REMARK  Name = ZINC15230733
REMARK  8 active torsions:
REMARK  status: ('A' for Active; 'I' for Inactive)
REMARK    1  A    between atoms: C_1  and  C_2
REMARK    2  A    between atoms: C_5  and  C_16
REMARK    3  A    between atoms: C_5  and  C_31
REMARK    4  A    between atoms: C_6  and  C_9
REMARK    5  A    between atoms: N_18  and  N_19
REMARK    6  A    between atoms: N_19  and  C_20
REMARK    7  A    between atoms: C_25  and  C_29
REMARK    8  A    between atoms: C_25  and  C_30
REMARK                            x       y       z     vdW  Elec       q    Type
REMARK                         _______ _______ _______ _____ _____    ______ ____
ROOT
ATOM      1  C   UNL     1      -0.290   3.638   3.566  0.00  0.00    +0.039 C 
ATOM      2  C   UNL     1       0.418   3.226   2.301  0.00  0.00    -0.076 C 
ATOM      3  C   UNL     1       1.416   2.408   2.402  0.00  0.00    -0.026 C 
ATOM      4  C   UNL     1       2.223   1.917   1.236  0.00  0.00    +0.055 C 
ATOM      5  C   UNL     1       1.463   2.161  -0.070  0.00  0.00    +0.159 C 
ATOM      6  C   UNL     1       0.983   3.617  -0.087  0.00  0.00    +0.049 C 
ATOM      7  C   UNL     1      -0.078   3.790   1.002  0.00  0.00    +0.040 C 
ENDROOT
BRANCH   6   8
ATOM      8  C   UNL     1       0.385   3.938  -1.433  0.00  0.00    -0.042 A 
ATOM      9  C   UNL     1       1.070   4.749  -2.318  0.00  0.00    +0.005 A 
ATOM     10  C   UNL     1       0.524   5.039  -3.554  0.00  0.00    +0.015 A 
ATOM     11  C   UNL     1      -0.713   4.526  -3.901  0.00  0.00    +0.018 A 
ATOM     12  C   UNL     1      -1.400   3.719  -3.013  0.00  0.00    +0.015 A 
ATOM     13  C   UNL     1      -0.851   3.425  -1.779  0.00  0.00    +0.005 A 
ATOM     14 BR   UNL     1      -1.464   4.929  -5.589  0.00  0.00    -0.050 Br
ENDBRANCH   6   8
BRANCH   5  15
ATOM     15  C   UNL     1       0.277   1.235  -0.146  0.00  0.00    +0.247 C 
ATOM     16  O   UNL     1      -0.172   0.739   0.865  0.00  0.00    -0.273 OA
ATOM     17  N   UNL     1      -0.290   0.962  -1.339  0.00  0.00    -0.236 N 
ATOM     18  H   UNL     1       0.067   1.362  -2.148  0.00  0.00    +0.173 HD
BRANCH  17  19
ATOM     19  N   UNL     1      -1.393   0.102  -1.410  0.00  0.00    -0.271 N 
ATOM     20  H   UNL     1      -1.749  -0.298  -0.601  0.00  0.00    +0.169 HD
BRANCH  19  21
ATOM     21  C   UNL     1      -1.960  -0.171  -2.603  0.00  0.00    +0.110 C 
ATOM     22  C   UNL     1      -3.048  -1.019  -2.673  0.00  0.00    +0.158 C 
ATOM     23  C   UNL     1      -3.638  -1.669  -1.475  0.00  0.00    +0.350 C 
ATOM     24  O   UNL     1      -2.963  -2.035  -0.533  0.00  0.00    -0.245 OA
ATOM     25  O   UNL     1      -4.994  -1.821  -1.511  0.00  0.00    -0.419 OA
ATOM     26  C   UNL     1      -5.528  -2.349  -2.759  0.00  0.00    +0.255 C 
ATOM     27  O   UNL     1      -5.067  -1.533  -3.873  0.00  0.00    -0.419 OA
ATOM     28  C   UNL     1      -3.718  -1.362  -3.953  0.00  0.00    +0.350 C 
ATOM     29  O   UNL     1      -3.107  -1.480  -4.997  0.00  0.00    -0.245 OA
ATOM     30  C   UNL     1      -7.057  -2.326  -2.709  0.00  0.00    +0.104 C 
ATOM     31  C   UNL     1      -5.047  -3.789  -2.950  0.00  0.00    +0.104 C 
ENDBRANCH  19  21
ENDBRANCH  17  19
ENDBRANCH   5  15
BRANCH   5  32
ATOM     32  C   UNL     1       2.377   1.910  -1.242  0.00  0.00    +0.372 C 
ATOM     33  O   UNL     1       2.617   2.801  -2.022  0.00  0.00    -0.245 OA
ATOM     34  O   UNL     1       2.926   0.698  -1.418  0.00  0.00    -0.245 OA
ENDBRANCH   5  32
TORSDOF 5
