REMARK  Name = ZINC55325448
REMARK  8 active torsions:
REMARK  status: ('A' for Active; 'I' for Inactive)
REMARK    1  A    between atoms: C_1  and  N_2
REMARK    2  A    between atoms: C_6  and  S_7
REMARK    3  A    between atoms: S_7  and  C_8
REMARK    4  A    between atoms: C_11  and  C_13
REMARK    5  A    between atoms: C_13  and  N_14
REMARK    6  A    between atoms: N_14  and  C_15
REMARK    7  A    between atoms: N_14  and  C_22
REMARK    8  A    between atoms: C_15  and  C_16
REMARK                            x       y       z     vdW  Elec       q    Type
REMARK                         _______ _______ _______ _____ _____    ______ ____
ROOT
ATOM      1  N   UNL     1      -1.346  -6.140   3.692  0.00  0.00    +0.389 N 
ATOM      2  H   UNL     1      -1.576  -5.768   2.783  0.00  0.00    -0.080 HD
ENDROOT
BRANCH   1   3
ATOM      3  C   UNL     1      -2.312  -5.645   4.682  0.00  0.00    -0.068 C 
ATOM      4  C   UNL     1      -2.439  -4.115   4.535  0.00  0.00    -0.015 C 
ATOM      5  C   UNL     1      -3.742  -3.682   5.149  0.00  0.00    -0.002 C 
ATOM      6  C   UNL     1      -3.585  -3.240   6.616  0.00  0.00    -0.000 C 
ATOM      7  C   UNL     1      -2.646  -4.160   7.420  0.00  0.00    -0.000 C 
ATOM      8  C   UNL     1      -2.864  -5.616   7.112  0.00  0.00    -0.002 C 
ATOM      9  C   UNL     1      -1.870  -6.040   6.011  0.00  0.00    -0.015 C 
ENDBRANCH   1   3
BRANCH   1  10
ATOM     10  C   UNL     1       0.006  -5.709   4.071  0.00  0.00    -0.002 C 
BRANCH  10  14
ATOM     11  C   UNL     1       0.128  -2.165   3.188  0.00  0.00    +0.169 A 
ATOM     12  C   UNL     1       0.293  -2.063   4.528  0.00  0.00    +0.057 A 
ATOM     13  C   UNL     1       0.271  -3.379   5.043  0.00  0.00    +0.044 A 
ATOM     14  C   UNL     1       0.094  -4.206   3.998  0.00  0.00    +0.090 A 
ATOM     15  O   UNL     1       0.002  -3.467   2.877  0.00  0.00    -0.455 OA
BRANCH  11  16
ATOM     16  S   UNL     1       0.078  -0.822   2.048  0.00  0.00    -0.012 S 
BRANCH  16  22
ATOM     17  C   UNL     1      -0.207   0.468  -0.984  0.00  0.00    +0.152 C 
ATOM     18  N   UNL     1      -0.272  -0.973  -0.724  0.00  0.00    -0.311 N 
ATOM     19  C   UNL     1      -0.444  -1.970  -1.643  0.00  0.00    +0.225 A 
ATOM     20  N   UNL     1      -0.443  -3.100  -0.994  0.00  0.00    -0.137 NA
ATOM     21  N   UNL     1      -0.282  -2.887   0.263  0.00  0.00    -0.122 NA
ATOM     22  C   UNL     1      -0.165  -1.598   0.485  0.00  0.00    +0.199 A 
ENDBRANCH  16  22
ENDBRANCH  11  16
ENDBRANCH  10  14
ENDBRANCH   1  10
BRANCH   1  23
ATOM     23  C   UNL     1      -1.398  -7.607   3.648  0.00  0.00    -0.040 C 
BRANCH  23  24
ATOM     24  C   UNL     1      -2.745  -8.047   3.133  0.00  0.00    -0.046 A 
ATOM     25  C   UNL     1      -3.770  -8.348   4.017  0.00  0.00    +0.005 A 
ATOM     26  C   UNL     1      -4.992  -8.748   3.498  0.00  0.00    +0.020 A 
ATOM     27  C   UNL     1      -5.146  -8.833   2.127  0.00  0.00    +0.111 A 
ATOM     28  N   UNL     1      -4.148  -8.540   1.317  0.00  0.00    -0.263 NA
ATOM     29  C   UNL     1      -2.974  -8.149   1.775  0.00  0.00    +0.112 A 
ENDBRANCH  23  24
ENDBRANCH   1  23
TORSDOF 7
