REMARK  Name = ZINC36597470
REMARK  15 active torsions:
REMARK  status: ('A' for Active; 'I' for Inactive)
REMARK    1  A    between atoms: C_1  and  C_2
REMARK    2  A    between atoms: C_2  and  C_3
REMARK    3  A    between atoms: C_3  and  C_4
REMARK    4  A    between atoms: C_4  and  N_5
REMARK    5  A    between atoms: C_6  and  C_8
REMARK    6  A    between atoms: C_8  and  C_10
REMARK    7  A    between atoms: C_8  and  N_23
REMARK    8  A    between atoms: C_10  and  C_11
REMARK    9  A    between atoms: C_10  and  C_17
REMARK   10  A    between atoms: N_23  and  C_24
REMARK   11  A    between atoms: C_24  and  C_25
REMARK   12  A    between atoms: C_28  and  C_30
REMARK   13  A    between atoms: C_31  and  C_33
REMARK   14  A    between atoms: C_34  and  O_40
REMARK   15  A    between atoms: C_38  and  O_39
REMARK                            x       y       z     vdW  Elec       q    Type
REMARK                         _______ _______ _______ _____ _____    ______ ____
ROOT
ATOM      1  C   UNL     1       2.498  -4.712  -3.886  0.00  0.00    +0.174 C 
ENDROOT
BRANCH   1   3
ATOM      2  N   UNL     1       0.771  -3.236  -2.909  0.00  0.00    -0.314 N 
ATOM      3  C   UNL     1       1.348  -4.453  -2.947  0.00  0.00    +0.235 C 
ATOM      4  O   UNL     1       0.942  -5.340  -2.227  0.00  0.00    -0.274 OA
ATOM      5  H   UNL     1       1.096  -2.526  -3.485  0.00  0.00    +0.149 HD
BRANCH   2   6
ATOM      6  C   UNL     1      -0.347  -2.984  -1.996  0.00  0.00    +0.104 C 
BRANCH   6   7
ATOM      7  C   UNL     1      -0.814  -1.535  -2.150  0.00  0.00    +0.018 C 
BRANCH   7   9
ATOM      8  C   UNL     1      -2.449   0.177  -1.350  0.00  0.00    +0.004 C 
ATOM      9  C   UNL     1      -1.982  -1.272  -1.197  0.00  0.00    -0.002 C 
ENDBRANCH   7   9
ENDBRANCH   6   7
ENDBRANCH   2   6
ENDBRANCH   1   3
BRANCH   1  10
ATOM     10  N   UNL     1       3.000  -6.073  -3.680  0.00  0.00    -0.278 N 
ATOM     11  C   UNL     1       2.793  -7.017  -4.619  0.00  0.00    +0.255 C 
ATOM     12  O   UNL     1       2.191  -6.739  -5.638  0.00  0.00    -0.270 OA
BRANCH  11  13
ATOM     13  C   UNL     1       3.298  -8.385  -4.412  0.00  0.00    +0.119 A 
ATOM     14  C   UNL     1       2.493  -9.346  -3.783  0.00  0.00    +0.133 A 
ATOM     15  C   UNL     1       2.977 -10.630  -3.593  0.00  0.00    +0.046 A 
ATOM     16  C   UNL     1       4.248 -10.965  -4.021  0.00  0.00    +0.007 A 
ATOM     17  C   UNL     1       5.050 -10.025  -4.642  0.00  0.00    +0.046 A 
ATOM     18  C   UNL     1       4.583  -8.737  -4.847  0.00  0.00    +0.133 A 
BRANCH  18  19
ATOM     19  O   UNL     1       5.370  -7.818  -5.462  0.00  0.00    -0.506 OA
ATOM     20  H   UNL     1       5.928  -7.311  -4.857  0.00  0.00    +0.292 HD
ENDBRANCH  18  19
BRANCH  14  21
ATOM     21  O   UNL     1       1.246  -9.020  -3.361  0.00  0.00    -0.506 OA
ATOM     22  H   UNL     1       0.556  -9.164  -4.024  0.00  0.00    +0.292 HD
ENDBRANCH  14  21
ENDBRANCH  11  13
BRANCH  10  23
ATOM     23  C   UNL     1       3.726  -6.408  -2.452  0.00  0.00    +0.183 C 
BRANCH  23  24
ATOM     24  C   UNL     1       2.774  -7.017  -1.456  0.00  0.00    +0.122 A 
ATOM     25  C   UNL     1       2.563  -8.333  -1.272  0.00  0.00    +0.046 A 
ATOM     26  C   UNL     1       1.597  -8.453  -0.246  0.00  0.00    +0.045 A 
ATOM     27  C   UNL     1       1.276  -7.204   0.136  0.00  0.00    +0.102 A 
ATOM     28  O   UNL     1       1.996  -6.338  -0.596  0.00  0.00    -0.463 OA
ATOM     29  C   UNL     1       0.282  -6.838   1.207  0.00  0.00    +0.086 C 
ENDBRANCH  23  24
ENDBRANCH  10  23
ENDBRANCH   1  10
BRANCH   1  30
ATOM     30  C   UNL     1       3.619  -3.708  -3.609  0.00  0.00    +0.078 C 
BRANCH  30  31
ATOM     31  C   UNL     1       4.769  -3.967  -4.547  0.00  0.00    -0.038 A 
ATOM     32  C   UNL     1       4.545  -4.053  -5.909  0.00  0.00    +0.004 A 
ATOM     33  C   UNL     1       5.600  -4.291  -6.769  0.00  0.00    +0.000 A 
ATOM     34  C   UNL     1       6.880  -4.442  -6.269  0.00  0.00    +0.000 A 
ATOM     35  C   UNL     1       7.104  -4.355  -4.908  0.00  0.00    +0.000 A 
ATOM     36  C   UNL     1       6.050  -4.113  -4.047  0.00  0.00    +0.004 A 
ENDBRANCH  30  31
BRANCH  30  37
ATOM     37  C   UNL     1       3.103  -2.308  -3.821  0.00  0.00    -0.038 A 
ATOM     38  C   UNL     1       2.531  -1.958  -5.030  0.00  0.00    +0.004 A 
ATOM     39  C   UNL     1       2.058  -0.674  -5.224  0.00  0.00    +0.000 A 
ATOM     40  C   UNL     1       2.156   0.260  -4.210  0.00  0.00    +0.000 A 
ATOM     41  C   UNL     1       2.727  -0.090  -3.001  0.00  0.00    +0.000 A 
ATOM     42  C   UNL     1       3.197  -1.375  -2.805  0.00  0.00    +0.004 A 
ENDBRANCH  30  37
ENDBRANCH   1  30
TORSDOF 13
