REMARK  Name = ZINC42708429
REMARK  7 active torsions:
REMARK  status: ('A' for Active; 'I' for Inactive)
REMARK    1  A    between atoms: C_3  and  N_21
REMARK    2  A    between atoms: C_6  and  N_7
REMARK    3  A    between atoms: C_8  and  C_10
REMARK    4  A    between atoms: C_10  and  C_11
REMARK    5  A    between atoms: C_11  and  S_12
REMARK    6  A    between atoms: S_12  and  C_13
REMARK    7  A    between atoms: N_17  and  C_18
REMARK                            x       y       z     vdW  Elec       q    Type
REMARK                         _______ _______ _______ _____ _____    ______ ____
ROOT
ATOM      1  N   UNL     1      -1.199  -0.722   0.010  0.00  0.00    -0.285 N 
ATOM      2  C   UNL     1      -1.183  -2.065  -0.099  0.00  0.00    +0.218 C 
ATOM      3  O   UNL     1      -0.125  -2.659  -0.113  0.00  0.00    -0.275 OA
ATOM      4  H   UNL     1      -2.044  -0.253   0.098  0.00  0.00    +0.155 HD
ENDROOT
BRANCH   1  10
ATOM      5  C   UNL     1       1.072  -0.453  -0.766  0.00  0.00    +0.025 A 
ATOM      6  C   UNL     1       2.256   0.259  -0.778  0.00  0.00    +0.034 A 
ATOM      7  C   UNL     1       2.376   1.417  -0.032  0.00  0.00    +0.126 A 
ATOM      8  C   UNL     1       1.312   1.866   0.729  0.00  0.00    +0.034 A 
ATOM      9  C   UNL     1       0.126   1.159   0.745  0.00  0.00    +0.025 A 
ATOM     10  C   UNL     1       0.002  -0.004  -0.004  0.00  0.00    +0.034 A 
BRANCH   7  11
ATOM     11  N   UNL     1       3.646   2.176  -0.047  0.00  0.00    +0.056 N 
ATOM     12  O   UNL     1       4.577   1.784  -0.711  0.00  0.00    -0.126 OA
ATOM     13  O   UNL     1       3.753   3.189   0.605  0.00  0.00    -0.126 OA
ENDBRANCH   7  11
ENDBRANCH   1  10
BRANCH   2  14
ATOM     14  C   UNL     1      -2.478  -2.828  -0.204  0.00  0.00    +0.107 C 
BRANCH  14  15
ATOM     15  C   UNL     1      -2.180  -4.325  -0.316  0.00  0.00    +0.086 C 
BRANCH  15  16
ATOM     16  S   UNL     1      -3.738  -5.244  -0.442  0.00  0.00    -0.086 S 
BRANCH  16  17
ATOM     17  C   UNL     1      -3.232  -6.927  -0.563  0.00  0.00    +0.192 A 
ATOM     18  N   UNL     1      -1.998  -7.374  -0.553  0.00  0.00    -0.123 NA
ATOM     19  N   UNL     1      -1.996  -8.655  -0.660  0.00  0.00    -0.137 NA
ATOM     20  C   UNL     1      -3.218  -9.098  -0.743  0.00  0.00    +0.226 A 
ATOM     21  N   UNL     1      -4.050  -8.015  -0.679  0.00  0.00    -0.305 N 
BRANCH  21  22
ATOM     22  C   UNL     1      -5.514  -8.019  -0.727  0.00  0.00    +0.091 C 
ATOM     23  C   UNL     1      -6.219  -9.376  -0.657  0.00  0.00    +0.027 C 
ATOM     24  C   UNL     1      -6.178  -8.602  -1.976  0.00  0.00    +0.027 C 
ENDBRANCH  21  22
ENDBRANCH  16  17
ENDBRANCH  15  16
ENDBRANCH  14  15
ENDBRANCH   2  14
TORSDOF 7
