REMARK  Name = ZINC40153005
REMARK  7 active torsions:
REMARK  status: ('A' for Active; 'I' for Inactive)
REMARK    1  A    between atoms: C_1  and  C_2
REMARK    2  A    between atoms: C_4  and  O_12
REMARK    3  A    between atoms: C_5  and  C_9
REMARK    4  A    between atoms: C_9  and  C_10
REMARK    5  A    between atoms: C_9  and  C_11
REMARK    6  A    between atoms: O_12  and  C_13
REMARK    7  A    between atoms: C_13  and  C_14
REMARK                            x       y       z     vdW  Elec       q    Type
REMARK                         _______ _______ _______ _____ _____    ______ ____
ROOT
ATOM      1  C   UNL     1       0.017  -2.879  -4.780  0.00  0.00    +0.253 C 
ATOM      2  O   UNL     1       0.034  -4.082  -4.626  0.00  0.00    -0.272 OA
ATOM      3  N   UNL     1       0.004  -2.358  -6.023  0.00  0.00    -0.298 N 
ATOM      4  C   UNL     1      -0.011  -0.903  -6.225  0.00  0.00    +0.111 C 
ATOM      5  C   UNL     1      -1.194  -0.543  -7.130  0.00  0.00    +0.061 C 
ATOM      6  C   UNL     1      -1.116  -1.363  -8.416  0.00  0.00    +0.089 C 
ATOM      7  C   UNL     1      -1.179  -2.856  -8.098  0.00  0.00    +0.061 C 
ATOM      8  C   UNL     1       0.010  -3.236  -7.202  0.00  0.00    +0.111 C 
ATOM      9  N   UNL     1       0.119  -1.052  -9.141  0.00  0.00    -0.296 N 
ATOM     10  C   UNL     1      -0.159  -0.218 -10.166  0.00  0.00    +0.235 C 
ATOM     11  O   UNL     1       0.647   0.233 -10.952  0.00  0.00    -0.274 OA
ATOM     12  C   UNL     1      -1.643   0.055 -10.168  0.00  0.00    +0.098 C 
ATOM     13  N   UNL     1      -2.233  -0.996  -9.312  0.00  0.00    -0.283 NA
ATOM     14  C   UNL     1      -2.201  -0.051 -11.584  0.00  0.00    +0.031 C 
ATOM     15  C   UNL     1      -1.569   1.030 -12.464  0.00  0.00    +0.002 C 
ATOM     16  C   UNL     1      -1.880   2.409 -11.879  0.00  0.00    +0.000 C 
ATOM     17  C   UNL     1      -1.300   2.509 -10.467  0.00  0.00    +0.002 C 
ATOM     18  C   UNL     1      -1.931   1.433  -9.580  0.00  0.00    +0.031 C 
ATOM     19  H   UNL     1       1.000  -1.392  -8.918  0.00  0.00    +0.151 HD
ATOM     20  H   UNL     1      -2.530  -1.788  -9.863  0.00  0.00    +0.125 HD
ENDROOT
BRANCH   1  21
ATOM     21  C   UNL     1       0.011  -1.966  -3.581  0.00  0.00    +0.324 C 
BRANCH  21  22
ATOM     22  O   UNL     1       0.028  -2.749  -2.386  0.00  0.00    -0.482 OA
BRANCH  22  26
ATOM     23  C   UNL     1      -0.018   1.503   0.010  0.00  0.00    +0.045 C 
ATOM     24  C   UNL     1       0.002  -0.004   0.002  0.00  0.00    -0.029 A 
ATOM     25  C   UNL     1       0.006  -0.688  -1.199  0.00  0.00    +0.050 A 
ATOM     26  C   UNL     1       0.025  -2.075  -1.206  0.00  0.00    +0.125 A 
ATOM     27  C   UNL     1       0.040  -2.773  -0.007  0.00  0.00    -0.002 A 
ATOM     28  C   UNL     1       0.036  -2.086   1.192  0.00  0.00    +0.027 A 
ATOM     29  C   UNL     1       0.023  -0.702   1.196  0.00  0.00    +0.044 A 
ATOM     30 CL   UNL     1       0.025   0.160   2.704  0.00  0.00    -0.083 Cl
BRANCH  27  31
ATOM     31  C   UNL     1       0.060  -4.279  -0.012  0.00  0.00    +0.016 C 
ATOM     32  C   UNL     1       1.319  -4.775   0.702  0.00  0.00    +0.012 C 
ATOM     33  C   UNL     1      -1.179  -4.808   0.714  0.00  0.00    +0.012 C 
ENDBRANCH  27  31
ENDBRANCH  22  26
ENDBRANCH  21  22
ENDBRANCH   1  21
TORSDOF 4
