REMARK  Name = ZINC66927342
REMARK  9 active torsions:
REMARK  status: ('A' for Active; 'I' for Inactive)
REMARK    1  A    between atoms: C_1  and  C_2
REMARK    2  A    between atoms: C_2  and  C_4
REMARK    3  A    between atoms: C_2  and  N_17
REMARK    4  A    between atoms: N_6  and  C_7
REMARK    5  A    between atoms: C_9  and  C_15
REMARK    6  A    between atoms: C_9  and  C_16
REMARK    7  A    between atoms: C_11  and  C_13
REMARK    8  A    between atoms: C_11  and  C_14
REMARK    9  A    between atoms: C_18  and  C_20
REMARK                            x       y       z     vdW  Elec       q    Type
REMARK                         _______ _______ _______ _____ _____    ______ ____
ROOT
ATOM      1  C   UNL     1       1.052  -0.328  -1.194  0.00  0.00    +0.233 C 
ATOM      2  O   UNL     1       2.094  -0.940  -1.089  0.00  0.00    -0.274 OA
ATOM      3  N   UNL     1       0.551  -0.055  -2.415  0.00  0.00    -0.311 N 
ATOM      4  H   UNL     1      -0.282   0.434  -2.499  0.00  0.00    +0.149 HD
ENDROOT
BRANCH   3   5
ATOM      5  C   UNL     1       1.266  -0.499  -3.618  0.00  0.00    +0.070 C 
ATOM      6  C   UNL     1       2.301   0.558  -4.006  0.00  0.00    +0.009 C 
ATOM      7  C   UNL     1       3.046   0.116  -5.265  0.00  0.00    -0.072 C 
ATOM      8  N   UNL     1       2.138  -0.202  -6.356  0.00  0.00    +0.386 N 
ATOM      9  C   UNL     1       0.989  -1.042  -6.056  0.00  0.00    -0.072 C 
ATOM     10  C   UNL     1       0.273  -0.643  -4.770  0.00  0.00    +0.009 C 
ATOM     11  C   UNL     1      -0.022  -0.876  -7.215  0.00  0.00    -0.010 C 
ATOM     12  C   UNL     1       1.369  -2.524  -6.004  0.00  0.00    -0.010 C 
ATOM     13  C   UNL     1       3.987  -1.044  -4.942  0.00  0.00    -0.010 C 
ATOM     14  C   UNL     1       3.924   1.305  -5.719  0.00  0.00    -0.010 C 
ATOM     15  H   UNL     1       1.799   0.676  -6.758  0.00  0.00    -0.084 HD
ATOM     16  H   UNL     1       2.677  -0.648  -7.103  0.00  0.00    -0.084 HD
ENDBRANCH   3   5
BRANCH   1  18
ATOM     17  C   UNL     1       0.191   1.652   0.025  0.00  0.00    +0.038 C 
ATOM     18  C   UNL     1       0.318   0.128   0.041  0.00  0.00    +0.156 C 
BRANCH  18  19
ATOM     19  N   UNL     1       1.062  -0.288   1.233  0.00  0.00    -0.304 N 
ATOM     20  C   UNL     1       0.417  -0.459   2.404  0.00  0.00    +0.217 C 
ATOM     21  O   UNL     1      -0.778  -0.269   2.471  0.00  0.00    -0.275 OA
ATOM     22  H   UNL     1       2.018  -0.441   1.179  0.00  0.00    +0.149 HD
BRANCH  20  23
ATOM     23  C   UNL     1       1.183  -0.887   3.630  0.00  0.00    +0.079 C 
ATOM     24  C   UNL     1       1.837  -2.249   3.376  0.00  0.00    +0.041 C 
ATOM     25  C   UNL     1       2.545  -2.711   4.652  0.00  0.00    +0.160 C 
ATOM     26  O   UNL     1       1.602  -2.772   5.724  0.00  0.00    -0.380 OA
ATOM     27  C   UNL     1       0.994  -1.518   6.037  0.00  0.00    +0.160 C 
ATOM     28  C   UNL     1       0.223  -1.007   4.817  0.00  0.00    +0.041 C 
ENDBRANCH  20  23
ENDBRANCH  18  19
ENDBRANCH   1  18
TORSDOF 4
