REMARK  Name = ZINC36602371
REMARK  12 active torsions:
REMARK  status: ('A' for Active; 'I' for Inactive)
REMARK    1  A    between atoms: C_1  and  C_2
REMARK    2  A    between atoms: C_5  and  C_7
REMARK    3  A    between atoms: C_7  and  N_8
REMARK    4  A    between atoms: N_8  and  C_9
REMARK    5  A    between atoms: C_9  and  C_11
REMARK    6  A    between atoms: C_9  and  C_21
REMARK    7  A    between atoms: C_13  and  N_18
REMARK    8  A    between atoms: N_23  and  C_24
REMARK    9  A    between atoms: C_24  and  C_25
REMARK   10  A    between atoms: C_24  and  C_26
REMARK   11  A    between atoms: C_24  and  C_27
REMARK   12  A    between atoms: C_28  and  C_30
REMARK                            x       y       z     vdW  Elec       q    Type
REMARK                         _______ _______ _______ _____ _____    ______ ____
ROOT
ATOM      1  C   UNL     1       1.905  -3.232  -2.880  0.00  0.00    +0.194 C 
ENDROOT
BRANCH   1   2
ATOM      2  C   UNL     1       2.517  -4.533  -3.332  0.00  0.00    +0.002 A 
ATOM      3  C   UNL     1       1.819  -5.716  -3.175  0.00  0.00    +0.040 A 
ATOM      4  C   UNL     1       2.380  -6.909  -3.589  0.00  0.00    +0.127 A 
ATOM      5  C   UNL     1       3.639  -6.920  -4.161  0.00  0.00    +0.034 A 
ATOM      6  C   UNL     1       4.337  -5.738  -4.319  0.00  0.00    +0.022 A 
ATOM      7  C   UNL     1       3.774  -4.543  -3.909  0.00  0.00    +0.047 A 
ATOM      8 CL   UNL     1       4.647  -3.056  -4.114  0.00  0.00    -0.083 Cl
BRANCH   4   9
ATOM      9  N   UNL     1       1.633  -8.176  -3.420  0.00  0.00    +0.056 N 
ATOM     10  O   UNL     1       0.533  -8.166  -2.920  0.00  0.00    -0.126 OA
ATOM     11  O   UNL     1       2.124  -9.220  -3.782  0.00  0.00    -0.126 OA
ENDBRANCH   4   9
ENDBRANCH   1   2
BRANCH   1  12
ATOM     12  C   UNL     1       0.928  -2.748  -3.919  0.00  0.00    +0.239 C 
ATOM     13  O   UNL     1      -0.239  -2.590  -3.628  0.00  0.00    -0.273 OA
ATOM     14  N   UNL     1       1.350  -2.491  -5.173  0.00  0.00    -0.309 N 
ATOM     15  H   UNL     1       2.283  -2.617  -5.406  0.00  0.00    +0.149 HD
BRANCH  14  16
ATOM     16  C   UNL     1       0.400  -2.020  -6.184  0.00  0.00    +0.026 C 
ATOM     17  C   UNL     1      -0.221  -0.699  -5.725  0.00  0.00    +0.031 C 
ATOM     18  C   UNL     1       1.131  -1.806  -7.511  0.00  0.00    +0.031 C 
ATOM     19  C   UNL     1      -0.703  -3.064  -6.372  0.00  0.00    +0.031 C 
ENDBRANCH  14  16
ENDBRANCH   1  12
BRANCH   1  20
ATOM     20  N   UNL     1       1.205  -3.437  -1.609  0.00  0.00    -0.275 N 
ATOM     21  C   UNL     1       0.266  -4.398  -1.504  0.00  0.00    +0.249 C 
ATOM     22  O   UNL     1       0.091  -4.963  -0.443  0.00  0.00    -0.270 OA
BRANCH  21  23
ATOM     23  C   UNL     1      -0.550  -4.765  -2.681  0.00  0.00    +0.055 A 
ATOM     24  C   UNL     1      -1.891  -5.138  -2.529  0.00  0.00    +0.016 A 
ATOM     25  C   UNL     1      -2.612  -5.471  -3.662  0.00  0.00    +0.020 A 
ATOM     26  C   UNL     1      -1.990  -5.426  -4.897  0.00  0.00    +0.111 A 
ATOM     27  N   UNL     1      -0.725  -5.071  -5.010  0.00  0.00    -0.263 NA
ATOM     28  C   UNL     1       0.001  -4.740  -3.963  0.00  0.00    +0.123 A 
ENDBRANCH  21  23
BRANCH  20  29
ATOM     29  C   UNL     1       1.526  -2.597  -0.452  0.00  0.00    +0.183 C 
BRANCH  29  34
ATOM     30  C   UNL     1       0.361   2.160  -1.659  0.00  0.00    +0.086 C 
ATOM     31  C   UNL     1       0.267   0.773  -1.077  0.00  0.00    +0.102 A 
ATOM     32  C   UNL     1      -0.757   0.294  -0.348  0.00  0.00    +0.045 A 
ATOM     33  C   UNL     1      -0.431  -1.039  -0.010  0.00  0.00    +0.046 A 
ATOM     34  C   UNL     1       0.773  -1.295  -0.552  0.00  0.00    +0.122 A 
ATOM     35  O   UNL     1       1.188  -0.196  -1.202  0.00  0.00    -0.463 OA
ENDBRANCH  29  34
ENDBRANCH  20  29
ENDBRANCH   1  20
TORSDOF 8
