REMARK  Name = ZINC05006852
REMARK  4 active torsions:
REMARK  status: ('A' for Active; 'I' for Inactive)
REMARK    1  A    between atoms: C_7  and  C_11
REMARK    2  A    between atoms: C_7  and  O_32
REMARK    3  A    between atoms: C_17  and  C_21
REMARK    4  A    between atoms: C_21  and  O_31
REMARK                            x       y       z     vdW  Elec       q    Type
REMARK                         _______ _______ _______ _____ _____    ______ ____
ROOT
ATOM      1  C   UNL     1       1.133  -2.929  -1.563  0.00  0.00    +0.101 C 
ATOM      2  C   UNL     1       1.545  -4.419  -1.666  0.00  0.00    +0.015 C 
ATOM      3  C   UNL     1       1.040  -4.995  -2.923  0.00  0.00    +0.001 C 
ATOM      4  C   UNL     1      -0.476  -5.027  -3.048  0.00  0.00    +0.001 C 
ATOM      5  C   UNL     1      -0.955  -3.722  -3.639  0.00  0.00    +0.015 C 
ATOM      6  C   UNL     1      -1.326  -2.749  -2.505  0.00  0.00    +0.101 C 
ATOM      7  C   UNL     1      -0.339  -2.829  -1.354  0.00  0.00    +0.147 C 
ATOM      8  O   UNL     1      -0.763  -2.811  -0.224  0.00  0.00    -0.297 OA
ENDROOT
BRANCH   1  15
ATOM      9  C   UNL     1       0.027   1.063   0.225  0.00  0.00    +0.000 A 
ATOM     10  C   UNL     1       1.129   1.879   0.050  0.00  0.00    +0.002 A 
ATOM     11  C   UNL     1       2.361   1.333  -0.245  0.00  0.00    +0.024 A 
ATOM     12  C   UNL     1       2.503  -0.047  -0.369  0.00  0.00    +0.040 A 
ATOM     13  C   UNL     1       1.389  -0.857  -0.190  0.00  0.00    +0.015 A 
ATOM     14  C   UNL     1       0.160  -0.309   0.104  0.00  0.00    +0.009 A 
ATOM     15  C   UNL     1       1.860  -2.279  -0.384  0.00  0.00    +0.178 C 
ATOM     16  C   UNL     1       3.338  -2.139  -0.684  0.00  0.00    +0.254 C 
ATOM     17  O   UNL     1       4.116  -3.042  -0.908  0.00  0.00    -0.272 OA
ATOM     18  N   UNL     1       3.624  -0.827  -0.656  0.00  0.00    -0.282 N 
ATOM     19  H   UNL     1       4.509  -0.464  -0.816  0.00  0.00    +0.155 HD
BRANCH  15  20
ATOM     20  O   UNL     1       1.661  -3.040   0.809  0.00  0.00    -0.374 OA
ATOM     21  H   UNL     1       2.125  -2.689   1.581  0.00  0.00    +0.211 HD
ENDBRANCH  15  20
ENDBRANCH   1  15
BRANCH   6  22
ATOM     22  C   UNL     1      -1.337  -1.321  -3.054  0.00  0.00    +0.178 C 
ATOM     23  C   UNL     1       0.002  -0.979  -3.666  0.00  0.00    +0.015 A 
ATOM     24  C   UNL     1       1.276  -0.905  -3.148  0.00  0.00    +0.009 A 
ATOM     25  C   UNL     1       2.335  -0.557  -3.969  0.00  0.00    +0.000 A 
ATOM     26  C   UNL     1       2.109  -0.286  -5.306  0.00  0.00    +0.002 A 
ATOM     27  C   UNL     1       0.833  -0.360  -5.827  0.00  0.00    +0.024 A 
ATOM     28  C   UNL     1      -0.238  -0.710  -5.007  0.00  0.00    +0.040 A 
ATOM     29  N   UNL     1      -1.597  -0.850  -5.292  0.00  0.00    -0.282 N 
ATOM     30  C   UNL     1      -2.309  -1.205  -4.209  0.00  0.00    +0.254 C 
ATOM     31  O   UNL     1      -3.506  -1.396  -4.165  0.00  0.00    -0.272 OA
ATOM     32  H   UNL     1      -1.982  -0.708  -6.170  0.00  0.00    +0.155 HD
BRANCH  22  33
ATOM     33  O   UNL     1      -1.672  -0.391  -2.022  0.00  0.00    -0.374 OA
ATOM     34  H   UNL     1      -1.693   0.530  -2.315  0.00  0.00    +0.211 HD
ENDBRANCH  22  33
ENDBRANCH   6  22
TORSDOF 4
