REMARK  Name = ZINC09692834
REMARK  14 active torsions:
REMARK  status: ('A' for Active; 'I' for Inactive)
REMARK    1  A    between atoms: C_1  and  C_2
REMARK    2  A    between atoms: C_2  and  C_3
REMARK    3  A    between atoms: C_3  and  C_4
REMARK    4  A    between atoms: C_4  and  O_5
REMARK    5  A    between atoms: O_5  and  C_6
REMARK    6  A    between atoms: C_9  and  C_12
REMARK    7  A    between atoms: C_12  and  C_14
REMARK    8  A    between atoms: C_12  and  N_15
REMARK    9  A    between atoms: C_16  and  C_18
REMARK   10  A    between atoms: C_18  and  C_20
REMARK   11  A    between atoms: C_18  and  C_21
REMARK   12  A    between atoms: N_25  and  C_33
REMARK   13  A    between atoms: C_33  and  C_34
REMARK   14  A    between atoms: C_39  and  C_40
REMARK                            x       y       z     vdW  Elec       q    Type
REMARK                         _______ _______ _______ _____ _____    ______ ____
ROOT
ATOM      1  C   UNL     1      -0.840   2.011   1.079  0.00  0.00    +0.094 C 
ATOM      2  C   UNL     1      -0.043   1.622   2.325  0.00  0.00    +0.019 C 
ENDROOT
BRANCH   1   3
ATOM      3  C   UNL     1      -0.117   1.499  -0.169  0.00  0.00    +0.149 C 
ATOM      4  C   UNL     1       1.295   2.018  -0.182  0.00  0.00    +0.234 C 
ATOM      5  O   UNL     1       2.168   1.316   0.281  0.00  0.00    -0.274 OA
ATOM      6  N   UNL     1       1.638   3.206  -0.674  0.00  0.00    -0.265 N 
ATOM      7  C   UNL     1       0.777   4.147  -1.233  0.00  0.00    +0.050 A 
ATOM      8  C   UNL     1       1.165   5.481  -1.290  0.00  0.00    +0.024 A 
ATOM      9  C   UNL     1       0.326   6.426  -1.846  0.00  0.00    +0.002 A 
ATOM     10  C   UNL     1      -0.907   6.058  -2.352  0.00  0.00    +0.001 A 
ATOM     11  C   UNL     1      -1.307   4.735  -2.300  0.00  0.00    +0.016 A 
ATOM     12  C   UNL     1      -0.470   3.783  -1.742  0.00  0.00    +0.030 A 
ATOM     13  S   UNL     1      -0.972   2.093  -1.660  0.00  0.00    -0.110 S 
BRANCH   6  14
ATOM     14  C   UNL     1       3.059   3.558  -0.621  0.00  0.00    +0.149 C 
BRANCH  14  15
ATOM     15  C   UNL     1       3.380   4.151   0.727  0.00  0.00    -0.027 A 
ATOM     16  C   UNL     1       2.373   4.346   1.654  0.00  0.00    +0.005 A 
ATOM     17  C   UNL     1       2.667   4.889   2.890  0.00  0.00    +0.000 A 
ATOM     18  C   UNL     1       3.969   5.237   3.200  0.00  0.00    +0.000 A 
ATOM     19  C   UNL     1       4.976   5.042   2.274  0.00  0.00    +0.003 A 
ATOM     20  C   UNL     1       4.682   4.494   1.039  0.00  0.00    -0.046 A 
ATOM     21  C   UNL     1       5.781   4.275   0.031  0.00  0.00    +0.044 C 
ENDBRANCH  14  15
ENDBRANCH   6  14
ENDBRANCH   1   3
BRANCH   1  23
ATOM     22  N   UNL     1      -3.038   1.705   2.171  0.00  0.00    -0.308 N 
ATOM     23  C   UNL     1      -2.214   1.397   1.149  0.00  0.00    +0.218 C 
ATOM     24  O   UNL     1      -2.580   0.627   0.287  0.00  0.00    -0.275 OA
ATOM     25  H   UNL     1      -2.745   2.321   2.861  0.00  0.00    +0.149 HD
BRANCH  22  26
ATOM     26  C   UNL     1      -4.374   1.109   2.240  0.00  0.00    +0.100 C 
ATOM     27  C   UNL     1      -4.287  -0.262   2.916  0.00  0.00    +0.033 C 
BRANCH  26  31
ATOM     28  C   UNL     1      -6.954   3.652   4.507  0.00  0.00    +0.121 A 
ATOM     29  C   UNL     1      -7.428   3.020   3.366  0.00  0.00    +0.046 A 
ATOM     30  C   UNL     1      -6.592   2.199   2.635  0.00  0.00    +0.009 A 
ATOM     31  C   UNL     1      -5.284   2.006   3.039  0.00  0.00    -0.027 A 
ATOM     32  C   UNL     1      -4.811   2.629   4.179  0.00  0.00    +0.009 A 
ATOM     33  C   UNL     1      -5.641   3.457   4.910  0.00  0.00    +0.046 A 
BRANCH  28  34
ATOM     34  O   UNL     1      -7.775   4.460   5.228  0.00  0.00    -0.492 OA
BRANCH  34  35
ATOM     35  C   UNL     1      -7.219   5.077   6.391  0.00  0.00    +0.229 C 
BRANCH  35  36
ATOM     36  C   UNL     1      -8.284   5.943   7.067  0.00  0.00    +0.041 C 
BRANCH  36  38
ATOM     37  C   UNL     1      -8.755   7.470   8.988  0.00  0.00    +0.004 C 
ATOM     38  C   UNL     1      -7.689   6.604   8.312  0.00  0.00    -0.000 C 
ENDBRANCH  36  38
ENDBRANCH  35  36
ENDBRANCH  34  35
ENDBRANCH  28  34
ENDBRANCH  26  31
ENDBRANCH  22  26
ENDBRANCH   1  23
TORSDOF 10
