REMARK  Name = ZINC12244999
REMARK  8 active torsions:
REMARK  status: ('A' for Active; 'I' for Inactive)
REMARK    1  A    between atoms: C_1  and  O_2
REMARK    2  A    between atoms: O_2  and  C_3
REMARK    3  A    between atoms: C_3  and  C_5
REMARK    4  A    between atoms: C_8  and  N_19
REMARK    5  A    between atoms: C_11  and  C_12
REMARK    6  A    between atoms: C_11  and  N_61
REMARK    7  A    between atoms: C_20  and  C_22
REMARK    8  A    between atoms: C_23  and  C_33
REMARK                            x       y       z     vdW  Elec       q    Type
REMARK                         _______ _______ _______ _____ _____    ______ ____
ROOT
ATOM      1  N   UNL     1      -4.115   2.135   1.133  0.00  0.00    -0.309 N 
ATOM      2  C   UNL     1      -5.192   1.327   1.207  0.00  0.00    +0.261 C 
ATOM      3  O   UNL     1      -5.210   0.409   2.005  0.00  0.00    -0.269 OA
ATOM      4  H   UNL     1      -4.101   2.867   0.497  0.00  0.00    +0.149 HD
ENDROOT
BRANCH   2   5
ATOM      5  C   UNL     1      -6.342   1.556   0.325  0.00  0.00    +0.111 A 
ATOM      6  C   UNL     1      -7.498   0.797   0.300  0.00  0.00    +0.020 A 
ATOM      7  C   UNL     1      -8.363   1.391  -0.727  0.00  0.00    +0.010 A 
ATOM      8  C   UNL     1      -9.637   1.082  -1.209  0.00  0.00    +0.030 A 
ATOM      9  C   UNL     1     -10.189   1.839  -2.204  0.00  0.00    +0.042 A 
ATOM     10  C   UNL     1      -9.491   2.915  -2.740  0.00  0.00    +0.022 A 
ATOM     11  C   UNL     1      -8.235   3.237  -2.279  0.00  0.00    +0.027 A 
ATOM     12  C   UNL     1      -7.652   2.479  -1.265  0.00  0.00    +0.048 A 
ATOM     13  N   UNL     1      -6.441   2.558  -0.618  0.00  0.00    -0.350 N 
ATOM     14  H   UNL     1      -5.757   3.222  -0.797  0.00  0.00    +0.166 HD
ATOM     15 CL   UNL     1     -11.772   1.454  -2.802  0.00  0.00    -0.084 Cl
BRANCH   6  16
ATOM     16  C   UNL     1      -7.804  -0.378   1.145  0.00  0.00    -0.015 A 
ATOM     17  C   UNL     1      -7.961  -1.637   0.563  0.00  0.00    +0.008 A 
ATOM     18  C   UNL     1      -8.241  -2.730   1.356  0.00  0.00    +0.001 A 
ATOM     19  C   UNL     1      -8.377  -2.579   2.725  0.00  0.00    +0.000 A 
ATOM     20  C   UNL     1      -8.228  -1.333   3.307  0.00  0.00    +0.001 A 
ATOM     21  C   UNL     1      -7.943  -0.232   2.525  0.00  0.00    +0.008 A 
ENDBRANCH   6  16
ENDBRANCH   2   5
BRANCH   1  24
ATOM     22  C   UNL     1      -1.006   3.010   1.121  0.00  0.00    +0.045 C 
ATOM     23  C   UNL     1      -2.138   3.203   2.161  0.00  0.00    +0.016 C 
ATOM     24  C   UNL     1      -2.967   1.907   2.014  0.00  0.00    +0.056 C 
ATOM     25  C   UNL     1      -2.005   0.883   1.384  0.00  0.00    -0.055 C 
ATOM     26  N   UNL     1      -0.720   1.575   1.230  0.00  0.00    +0.392 N 
ATOM     27  H   UNL     1      -0.131   1.400   2.052  0.00  0.00    -0.080 HD
BRANCH  22  28
ATOM     28  C   UNL     1       0.202   3.833   1.490  0.00  0.00    +0.293 C 
ATOM     29  O   UNL     1       1.232   3.287   1.806  0.00  0.00    -0.253 OA
BRANCH  28  31
ATOM     30  C   UNL     1       1.334   5.902   1.835  0.00  0.00    +0.280 C 
ATOM     31  O   UNL     1       0.132   5.173   1.467  0.00  0.00    -0.469 OA
ENDBRANCH  28  31
ENDBRANCH  22  28
BRANCH  26  32
ATOM     32  C   UNL     1      -0.013   1.086   0.008  0.00  0.00    -0.042 C 
BRANCH  32  33
ATOM     33  C   UNL     1      -0.742   1.585  -1.213  0.00  0.00    -0.061 A 
ATOM     34  C   UNL     1      -0.398   2.801  -1.774  0.00  0.00    +0.002 A 
ATOM     35  C   UNL     1      -1.065   3.260  -2.894  0.00  0.00    +0.003 A 
ATOM     36  C   UNL     1      -2.078   2.504  -3.454  0.00  0.00    +0.038 A 
ATOM     37  C   UNL     1      -2.423   1.286  -2.893  0.00  0.00    +0.124 A 
ATOM     38  C   UNL     1      -1.749   0.825  -1.774  0.00  0.00    +0.040 A 
ATOM     39  F   UNL     1      -3.412   0.546  -3.440  0.00  0.00    -0.205 F 
ENDBRANCH  32  33
ENDBRANCH  26  32
ENDBRANCH   1  24
TORSDOF 7
