REMARK  Name = ZINC39966399
REMARK  10 active torsions:
REMARK  status: ('A' for Active; 'I' for Inactive)
REMARK    1  A    between atoms: C_1  and  C_2
REMARK    2  A    between atoms: C_2  and  N_3
REMARK    3  A    between atoms: C_4  and  C_25
REMARK    4  A    between atoms: C_7  and  S_8
REMARK    5  A    between atoms: S_8  and  C_9
REMARK    6  A    between atoms: C_9  and  C_10
REMARK    7  A    between atoms: N_12  and  C_13
REMARK    8  A    between atoms: C_14  and  C_21
REMARK    9  A    between atoms: C_21  and  O_23
REMARK   10  A    between atoms: O_23  and  C_24
REMARK                            x       y       z     vdW  Elec       q    Type
REMARK                         _______ _______ _______ _____ _____    ______ ____
ROOT
ATOM      1  S   UNL     1      -1.414  -0.205   3.000  0.00  0.00    -0.077 S 
ENDROOT
BRANCH   1   6
ATOM      2  N   UNL     1       0.754  -0.345   1.235  0.00  0.00    -0.302 N 
ATOM      3  C   UNL     1       2.039  -0.834   1.281  0.00  0.00    +0.166 A 
ATOM      4  N   UNL     1       2.212  -1.351   2.475  0.00  0.00    -0.128 NA
ATOM      5  N   UNL     1       1.138  -1.221   3.170  0.00  0.00    -0.122 NA
ATOM      6  C   UNL     1       0.216  -0.609   2.464  0.00  0.00    +0.192 A 
BRANCH   3   7
ATOM      7  C   UNL     1       3.037  -0.786   0.191  0.00  0.00    +0.030 A 
ATOM      8  C   UNL     1       2.692  -1.170  -1.071  0.00  0.00    +0.057 A 
ATOM      9  S   UNL     1       4.220  -0.921  -1.961  0.00  0.00    -0.101 S 
ATOM     10  C   UNL     1       5.197  -0.323  -0.606  0.00  0.00    -0.006 A 
ATOM     11  C   UNL     1       4.348  -0.339   0.451  0.00  0.00    -0.026 A 
ATOM     12  C   UNL     1       4.788   0.085   1.849  0.00  0.00    +0.036 C 
ATOM     13  C   UNL     1       5.942   1.075   1.754  0.00  0.00    +0.005 C 
ATOM     14  C   UNL     1       7.282   0.344   1.745  0.00  0.00    +0.001 C 
ATOM     15  C   UNL     1       7.383  -0.552   0.515  0.00  0.00    +0.005 C 
ATOM     16  C   UNL     1       6.627   0.113  -0.635  0.00  0.00    +0.043 C 
ENDBRANCH   3   7
BRANCH   2  18
ATOM     17  C   UNL     1       0.453   1.812   0.123  0.00  0.00    +0.027 C 
ATOM     18  C   UNL     1       0.101   0.323   0.107  0.00  0.00    +0.122 C 
ENDBRANCH   2  18
ENDBRANCH   1   6
BRANCH   1  19
ATOM     19  C   UNL     1      -1.481  -0.822   4.704  0.00  0.00    +0.173 C 
BRANCH  19  20
ATOM     20  C   UNL     1      -2.841  -0.537   5.289  0.00  0.00    +0.228 C 
ATOM     21  O   UNL     1      -3.681   0.028   4.621  0.00  0.00    -0.275 OA
ATOM     22  N   UNL     1      -3.122  -0.909   6.553  0.00  0.00    -0.279 N 
ATOM     23  H   UNL     1      -2.450  -1.360   7.087  0.00  0.00    +0.155 HD
BRANCH  22  24
ATOM     24  C   UNL     1      -4.372  -0.646   7.091  0.00  0.00    +0.086 A 
ATOM     25  C   UNL     1      -4.833  -0.947   8.360  0.00  0.00    +0.091 A 
ATOM     26  C   UNL     1      -6.206  -0.560   8.683  0.00  0.00    -0.021 A 
ATOM     27  C   UNL     1      -6.855   0.051   7.676  0.00  0.00    -0.004 A 
ATOM     28  S   UNL     1      -5.673   0.115   6.354  0.00  0.00    -0.077 S 
ATOM     29  C   UNL     1      -8.261   0.424   8.060  0.00  0.00    +0.043 C 
ATOM     30  C   UNL     1      -8.560  -0.422   9.317  0.00  0.00    +0.010 C 
ATOM     31  C   UNL     1      -7.145  -0.655   9.884  0.00  0.00    +0.037 C 
BRANCH  25  32
ATOM     32  C   UNL     1      -3.982  -1.626   9.339  0.00  0.00    +0.342 C 
ATOM     33  O   UNL     1      -3.283  -0.975  10.093  0.00  0.00    -0.245 OA
BRANCH  32  34
ATOM     34  O   UNL     1      -3.972  -2.973   9.406  0.00  0.00    -0.464 OA
ATOM     35  C   UNL     1      -3.118  -3.568  10.385  0.00  0.00    +0.280 C 
ENDBRANCH  32  34
ENDBRANCH  25  32
ENDBRANCH  22  24
ENDBRANCH  19  20
ENDBRANCH   1  19
TORSDOF 8
