REMARK  Name = ZINC38906325
REMARK  7 active torsions:
REMARK  status: ('A' for Active; 'I' for Inactive)
REMARK    1  A    between atoms: C_4  and  O_27
REMARK    2  A    between atoms: C_5  and  C_7
REMARK    3  A    between atoms: C_10  and  C_13
REMARK    4  A    between atoms: N_15  and  N_16
REMARK    5  A    between atoms: C_17  and  C_18
REMARK    6  A    between atoms: O_27  and  C_28
REMARK    7  A    between atoms: C_28  and  C_29
REMARK                            x       y       z     vdW  Elec       q    Type
REMARK                         _______ _______ _______ _____ _____    ______ ____
ROOT
ATOM      1  C   UNL     1       1.227  -2.187  -0.022  0.00  0.00    +0.157 C 
ATOM      2  C   UNL     1       1.315  -2.730   1.393  0.00  0.00    +0.038 C 
ATOM      3  C   UNL     1       0.176  -3.444   1.536  0.00  0.00    +0.145 C 
ATOM      4  N   UNL     1      -0.562  -3.390   0.395  0.00  0.00    -0.173 NA
ATOM      5  N   UNL     1      -0.055  -2.720  -0.512  0.00  0.00    -0.297 N 
ATOM      6  H   UNL     1      -0.433  -2.571  -1.392  0.00  0.00    +0.183 HD
ENDROOT
BRANCH   1  11
ATOM      7  C   UNL     1      -0.017   1.378   0.010  0.00  0.00    +0.001 A 
ATOM      8  C   UNL     1       1.170   2.088   0.002  0.00  0.00    +0.004 A 
ATOM      9  C   UNL     1       2.377   1.417  -0.013  0.00  0.00    +0.046 A 
ATOM     10  C   UNL     1       2.399   0.030  -0.021  0.00  0.00    +0.126 A 
ATOM     11  C   UNL     1       1.207  -0.680  -0.013  0.00  0.00    +0.022 A 
ATOM     12  C   UNL     1       0.002  -0.004   0.002  0.00  0.00    +0.009 A 
BRANCH  10  13
ATOM     13  O   UNL     1       3.586  -0.632  -0.037  0.00  0.00    -0.487 OA
BRANCH  13  14
ATOM     14  C   UNL     1       4.772   0.164  -0.045  0.00  0.00    +0.264 C 
BRANCH  14  15
ATOM     15  C   UNL     1       5.981  -0.737  -0.062  0.00  0.00    -0.010 A 
ATOM     16  C   UNL     1       6.544  -1.161   1.127  0.00  0.00    +0.008 A 
ATOM     17  C   UNL     1       7.652  -1.986   1.112  0.00  0.00    +0.020 A 
ATOM     18  C   UNL     1       8.198  -2.389  -0.094  0.00  0.00    +0.041 A 
ATOM     19  C   UNL     1       7.634  -1.965  -1.284  0.00  0.00    +0.020 A 
ATOM     20  C   UNL     1       6.522  -1.143  -1.267  0.00  0.00    +0.008 A 
ATOM     21 CL   UNL     1       9.590  -3.426  -0.114  0.00  0.00    -0.084 Cl
ENDBRANCH  14  15
ENDBRANCH  13  14
ENDBRANCH  10  13
ENDBRANCH   1  11
BRANCH   3  22
ATOM     22  C   UNL     1      -0.211  -4.179   2.757  0.00  0.00    +0.283 C 
ATOM     23  O   UNL     1       0.517  -4.168   3.730  0.00  0.00    -0.267 OA
ATOM     24  N   UNL     1      -1.373  -4.862   2.793  0.00  0.00    -0.202 N 
ATOM     25  H   UNL     1      -1.954  -4.870   2.016  0.00  0.00    +0.178 HD
BRANCH  24  26
ATOM     26  N   UNL     1      -1.740  -5.559   3.951  0.00  0.00    -0.188 NA
ATOM     27  C   UNL     1      -2.869  -6.222   3.986  0.00  0.00    +0.136 C 
BRANCH  27  28
ATOM     28  C   UNL     1      -3.237  -6.920   5.144  0.00  0.00    +0.000 C 
ATOM     29  C   UNL     1      -4.392  -7.674   5.343  0.00  0.00    +0.004 A 
ATOM     30  C   UNL     1      -5.495  -7.967   4.511  0.00  0.00    +0.010 A 
ATOM     31  C   UNL     1      -6.501  -8.747   4.979  0.00  0.00    +0.001 A 
ATOM     32  C   UNL     1      -6.478  -9.275   6.273  0.00  0.00    +0.002 A 
ATOM     33  C   UNL     1      -5.453  -9.036   7.125  0.00  0.00    +0.026 A 
ATOM     34  C   UNL     1      -4.362  -8.227   6.708  0.00  0.00    +0.043 A 
ATOM     35  N   UNL     1      -3.266  -7.852   7.333  0.00  0.00    -0.380 N 
ATOM     36  C   UNL     1      -2.460  -7.017   6.439  0.00  0.00    +0.150 C 
ATOM     37  H   UNL     1      -3.028  -8.094   8.242  0.00  0.00    +0.160 HD
ENDBRANCH  27  28
ENDBRANCH  24  26
ENDBRANCH   3  22
TORSDOF 7
