REMARK  Name = ZINC03201122
REMARK  7 active torsions:
REMARK  status: ('A' for Active; 'I' for Inactive)
REMARK    1  A    between atoms: C_1  and  C_2
REMARK    2  A    between atoms: C_3  and  C_14
REMARK    3  A    between atoms: N_5  and  C_7
REMARK    4  A    between atoms: N_15  and  N_16
REMARK    5  A    between atoms: C_17  and  C_19
REMARK    6  A    between atoms: C_23  and  S_25
REMARK    7  A    between atoms: S_25  and  N_28
REMARK                            x       y       z     vdW  Elec       q    Type
REMARK                         _______ _______ _______ _____ _____    ______ ____
ROOT
ATOM      1  N   UNL     1      -0.010  -0.805  -4.846  0.00  0.00    -0.203 N 
ATOM      2  C   UNL     1      -0.002  -1.706  -5.848  0.00  0.00    +0.263 C 
ATOM      3  O   UNL     1       0.016  -2.896  -5.595  0.00  0.00    -0.268 OA
ATOM      4  H   UNL     1      -0.024   0.144  -5.047  0.00  0.00    +0.178 HD
ENDROOT
BRANCH   2   5
ATOM      5  C   UNL     1      -0.015  -1.249  -7.253  0.00  0.00    +0.040 A 
ATOM      6  C   UNL     1      -0.029   0.116  -7.547  0.00  0.00    +0.013 A 
ATOM      7  C   UNL     1      -0.041   0.535  -8.860  0.00  0.00    +0.003 A 
ATOM      8  C   UNL     1      -0.038  -0.393  -9.887  0.00  0.00    +0.028 A 
ATOM      9  C   UNL     1      -0.025  -1.747  -9.603  0.00  0.00    +0.106 A 
ATOM     10  C   UNL     1      -0.007  -2.180  -8.293  0.00  0.00    +0.041 A 
BRANCH   9  11
ATOM     11  S   UNL     1      -0.022  -2.920 -10.917  0.00  0.00    +0.061 S 
ATOM     12  O   UNL     1      -0.559  -4.125 -10.388  0.00  0.00    -0.153 OA
ATOM     13  O   UNL     1      -0.585  -2.267 -12.046  0.00  0.00    -0.153 OA
BRANCH  11  14
ATOM     14  N   UNL     1       1.561  -3.232 -11.292  0.00  0.00    -0.172 NA
ATOM     15  C   UNL     1       2.273  -2.430 -12.299  0.00  0.00    +0.137 C 
ATOM     16  C   UNL     1       3.599  -1.958 -11.692  0.00  0.00    +0.177 C 
ATOM     17  O   UNL     1       4.303  -3.086 -11.165  0.00  0.00    -0.377 OA
ATOM     18  C   UNL     1       3.622  -3.756 -10.101  0.00  0.00    +0.177 C 
ATOM     19  C   UNL     1       2.298  -4.316 -10.623  0.00  0.00    +0.137 C 
ENDBRANCH  11  14
ENDBRANCH   9  11
ENDBRANCH   2   5
BRANCH   1  21
ATOM     20  C   UNL     1      -0.005  -0.370  -2.549  0.00  0.00    +0.143 C 
ATOM     21  N   UNL     1       0.003  -1.238  -3.514  0.00  0.00    -0.187 NA
BRANCH  20  24
ATOM     22  C   UNL     1      -0.018   1.503   0.010  0.00  0.00    +0.068 C 
ATOM     23  C   UNL     1       0.002  -0.004   0.002  0.00  0.00    +0.070 A 
ATOM     24  C   UNL     1       0.008  -0.826  -1.146  0.00  0.00    +0.054 A 
ATOM     25  C   UNL     1       0.028  -2.136  -0.712  0.00  0.00    +0.142 A 
ATOM     26  N   UNL     1       0.034  -2.112   0.639  0.00  0.00    -0.221 N 
ATOM     27  N   UNL     1       0.023  -0.775   1.055  0.00  0.00    -0.170 NA
ATOM     28 CL   UNL     1       0.042  -3.553  -1.715  0.00  0.00    -0.061 Cl
BRANCH  26  29
ATOM     29  C   UNL     1       0.053  -3.233   1.480  0.00  0.00    +0.067 A 
ATOM     30  C   UNL     1      -0.618  -4.391   1.110  0.00  0.00    +0.028 A 
ATOM     31  C   UNL     1      -0.597  -5.494   1.941  0.00  0.00    +0.002 A 
ATOM     32  C   UNL     1       0.090  -5.446   3.139  0.00  0.00    +0.000 A 
ATOM     33  C   UNL     1       0.759  -4.294   3.510  0.00  0.00    +0.002 A 
ATOM     34  C   UNL     1       0.747  -3.189   2.681  0.00  0.00    +0.028 A 
ENDBRANCH  26  29
ENDBRANCH  20  24
ENDBRANCH   1  21
TORSDOF 6
