REMARK  Name = ZINC39482422
REMARK  7 active torsions:
REMARK  status: ('A' for Active; 'I' for Inactive)
REMARK    1  A    between atoms: C_4  and  O_32
REMARK    2  A    between atoms: C_5  and  C_7
REMARK    3  A    between atoms: C_10  and  N_21
REMARK    4  A    between atoms: C_11  and  N_13
REMARK    5  A    between atoms: N_21  and  S_22
REMARK    6  A    between atoms: S_22  and  C_25
REMARK    7  A    between atoms: C_30  and  O_31
REMARK                            x       y       z     vdW  Elec       q    Type
REMARK                         _______ _______ _______ _____ _____    ______ ____
ROOT
ATOM      1  C   UNL     1       2.075  -2.552   0.997  0.00  0.00    -0.013 A 
ATOM      2  C   UNL     1       2.671  -3.084  -0.145  0.00  0.00    +0.010 A 
ATOM      3  C   UNL     1       2.505  -4.419  -0.454  0.00  0.00    +0.027 A 
ATOM      4  C   UNL     1       1.744  -5.236   0.372  0.00  0.00    +0.069 A 
ATOM      5  C   UNL     1       1.145  -4.708   1.517  0.00  0.00    +0.053 A 
ATOM      6  C   UNL     1       1.315  -3.371   1.832  0.00  0.00    +0.033 A 
ENDROOT
BRANCH   5   7
ATOM      7  N   UNL     1       0.378  -5.532   2.349  0.00  0.00    -0.323 N 
ATOM      8  C   UNL     1       0.994  -6.255   3.471  0.00  0.00    +0.120 C 
ATOM      9  C   UNL     1       0.596  -7.732   3.377  0.00  0.00    +0.102 C 
ATOM     10  N   UNL     1      -0.868  -7.837   3.299  0.00  0.00    -0.285 NA
ATOM     11  C   UNL     1      -1.384  -7.196   2.082  0.00  0.00    +0.252 C 
ATOM     12  C   UNL     1      -1.067  -5.693   2.127  0.00  0.00    +0.158 C 
ATOM     13  F   UNL     1      -0.779  -7.771   0.960  0.00  0.00    -0.227 F 
ATOM     14  H   UNL     1      -1.165  -8.799   3.355  0.00  0.00    +0.125 HD
ENDBRANCH   5   7
BRANCH   1  19
ATOM     15  C   UNL     1       1.318   1.008   1.938  0.00  0.00    +0.001 A 
ATOM     16  C   UNL     1       2.585   1.565   1.945  0.00  0.00    +0.004 A 
ATOM     17  C   UNL     1       3.689   0.789   1.645  0.00  0.00    +0.046 A 
ATOM     18  C   UNL     1       3.532  -0.552   1.335  0.00  0.00    +0.125 A 
ATOM     19  C   UNL     1       2.253  -1.117   1.328  0.00  0.00    +0.024 A 
ATOM     20  C   UNL     1       1.147  -0.327   1.632  0.00  0.00    +0.012 A 
BRANCH  18  21
ATOM     21  O   UNL     1       4.616  -1.315   1.039  0.00  0.00    -0.506 OA
ATOM     22  H   UNL     1       5.017  -1.744   1.807  0.00  0.00    +0.292 HD
ENDBRANCH  18  21
ENDBRANCH   1  19
BRANCH   4  23
ATOM     23  N   UNL     1       1.578  -6.588   0.056  0.00  0.00    -0.214 N 
ATOM     24  H   UNL     1       0.736  -7.031   0.246  0.00  0.00    +0.174 HD
BRANCH  23  25
ATOM     25  S   UNL     1       2.818  -7.434  -0.645  0.00  0.00    +0.076 S 
ATOM     26  O   UNL     1       3.992  -7.117   0.091  0.00  0.00    -0.150 OA
ATOM     27  O   UNL     1       2.358  -8.769  -0.808  0.00  0.00    -0.150 OA
BRANCH  25  28
ATOM     28  C   UNL     1       3.046  -6.779  -2.264  0.00  0.00    +0.150 A 
ATOM     29  C   UNL     1       4.235  -6.159  -2.598  0.00  0.00    +0.032 A 
ATOM     30  C   UNL     1       4.414  -5.644  -3.869  0.00  0.00    +0.002 A 
ATOM     31  C   UNL     1       3.405  -5.748  -4.808  0.00  0.00    +0.004 A 
ATOM     32  C   UNL     1       2.215  -6.367  -4.479  0.00  0.00    +0.047 A 
ATOM     33  C   UNL     1       2.034  -6.889  -3.207  0.00  0.00    +0.143 A 
BRANCH  33  34
ATOM     34  O   UNL     1       0.866  -7.503  -2.882  0.00  0.00    -0.505 OA
ATOM     35  H   UNL     1       0.184  -6.902  -2.551  0.00  0.00    +0.292 HD
ENDBRANCH  33  34
ENDBRANCH  25  28
ENDBRANCH  23  25
ENDBRANCH   4  23
TORSDOF 7
