REMARK  Name = ZINC33174068
REMARK  7 active torsions:
REMARK  status: ('A' for Active; 'I' for Inactive)
REMARK    1  A    between atoms: C_1  and  C_2
REMARK    2  A    between atoms: C_10  and  N_11
REMARK    3  A    between atoms: C_15  and  C_18
REMARK    4  A    between atoms: N_20  and  C_21
REMARK    5  A    between atoms: C_21  and  C_22
REMARK    6  A    between atoms: C_25  and  N_28
REMARK    7  A    between atoms: C_31  and  C_34
REMARK                            x       y       z     vdW  Elec       q    Type
REMARK                         _______ _______ _______ _____ _____    ______ ____
ROOT
ATOM      1  C   UNL     1      -1.873  -4.194   2.658  0.00  0.00    +0.218 C 
ATOM      2  O   UNL     1      -1.542  -3.413   3.525  0.00  0.00    -0.275 OA
ATOM      3  N   UNL     1      -2.846  -5.095   2.899  0.00  0.00    -0.311 N 
ATOM      4  H   UNL     1      -3.147  -5.803   2.113  0.00  0.00    +0.149 HD
ENDROOT
BRANCH   1   9
ATOM      5  N   UNL     1       0.502  -2.998  -0.019  0.00  0.00    -0.315 N 
ATOM      6  C   UNL     1      -0.470  -2.683  -1.073  0.00  0.00    +0.106 C 
ATOM      7  C   UNL     1      -1.535  -3.780  -1.132  0.00  0.00    +0.020 C 
ATOM      8  C   UNL     1      -2.238  -3.876   0.224  0.00  0.00    +0.016 C 
ATOM      9  C   UNL     1      -1.197  -4.157   1.312  0.00  0.00    +0.092 C 
ATOM     10  C   UNL     1      -0.143  -3.048   1.300  0.00  0.00    +0.119 C 
BRANCH   5  20
ATOM     11  C   UNL     1       5.349  -5.348   1.204  0.00  0.00    +0.051 C 
ATOM     12  C   UNL     1       4.646  -4.065   0.842  0.00  0.00    -0.012 A 
ATOM     13  C   UNL     1       3.341  -3.873   0.598  0.00  0.00    +0.022 A 
ATOM     14  C   UNL     1       2.868  -2.539   0.269  0.00  0.00    +0.027 A 
ATOM     15  C   UNL     1       3.874  -1.548   0.239  0.00  0.00    +0.024 A 
ATOM     16  S   UNL     1       5.351  -2.439   0.643  0.00  0.00    -0.093 S 
ATOM     17  C   UNL     1       3.569  -0.233  -0.059  0.00  0.00    +0.033 A 
ATOM     18  C   UNL     1       2.268   0.099  -0.328  0.00  0.00    +0.085 A 
ATOM     19  N   UNL     1       1.320  -0.826  -0.302  0.00  0.00    -0.349 N 
ATOM     20  C   UNL     1       1.553  -2.091  -0.024  0.00  0.00    +0.107 A 
ATOM     21  H   UNL     1       0.278  -0.550  -0.520  0.00  0.00    +0.167 HD
ENDBRANCH   5  20
ENDBRANCH   1   9
BRANCH   3  22
ATOM     22  C   UNL     1      -3.503  -5.130   4.208  0.00  0.00    +0.139 C 
BRANCH  22  23
ATOM     23  C   UNL     1      -4.545  -6.220   4.217  0.00  0.00    -0.030 A 
ATOM     24  C   UNL     1      -5.844  -5.935   3.836  0.00  0.00    +0.007 A 
ATOM     25  C   UNL     1      -6.800  -6.932   3.838  0.00  0.00    +0.023 A 
ATOM     26  C   UNL     1      -6.458  -8.219   4.234  0.00  0.00    +0.030 A 
ATOM     27  C   UNL     1      -5.154  -8.500   4.622  0.00  0.00    +0.023 A 
ATOM     28  C   UNL     1      -4.202  -7.499   4.612  0.00  0.00    +0.007 A 
BRANCH  26  29
ATOM     29  N   UNL     1      -7.423  -9.228   4.242  0.00  0.00    -0.330 N 
ATOM     30  C   UNL     1      -7.522  -9.851   5.569  0.00  0.00    +0.105 C 
ATOM     31  C   UNL     1      -8.479 -11.044   5.504  0.00  0.00    +0.022 C 
ATOM     32  C   UNL     1      -9.857 -10.561   5.042  0.00  0.00    -0.011 C 
ATOM     33  C   UNL     1      -9.719  -9.873   3.681  0.00  0.00    +0.022 C 
ATOM     34  C   UNL     1      -8.725  -8.715   3.799  0.00  0.00    +0.105 C 
ATOM     35  C   UNL     1     -10.802 -11.757   4.917  0.00  0.00    +0.007 C 
ENDBRANCH  26  29
ENDBRANCH  22  23
ENDBRANCH   3  22
TORSDOF 5
