REMARK  Name = ZINC59814715
REMARK  7 active torsions:
REMARK  status: ('A' for Active; 'I' for Inactive)
REMARK    1  A    between atoms: C_4  and  C_7
REMARK    2  A    between atoms: N_9  and  N_10
REMARK    3  A    between atoms: C_11  and  C_13
REMARK    4  A    between atoms: C_13  and  S_14
REMARK    5  A    between atoms: S_14  and  C_15
REMARK    6  A    between atoms: N_20  and  N_21
REMARK    7  A    between atoms: C_22  and  C_23
REMARK                            x       y       z     vdW  Elec       q    Type
REMARK                         _______ _______ _______ _____ _____    ______ ____
ROOT
ATOM      1  C   UNL     1       7.592  -7.287  -0.111  0.00  0.00    +0.211 A 
ATOM      2  N   UNL     1       7.868  -8.595  -0.126  0.00  0.00    -0.186 NA
ATOM      3  C   UNL     1       9.173  -8.773  -0.139  0.00  0.00    +0.232 A 
ATOM      4  N   UNL     1       9.759  -7.556  -0.132  0.00  0.00    -0.245 N 
ATOM      5  N   UNL     1       8.718  -6.614  -0.119  0.00  0.00    -0.144 NA
ATOM      6  N   UNL     1       9.828  -9.991  -0.156  0.00  0.00    -0.205 N 
ATOM      7  H   UNL     1      10.797 -10.020  -0.164  0.00  0.00    +0.177 HD
ATOM      8  H   UNL     1      10.711  -7.370  -0.138  0.00  0.00    +0.192 HD
ENDROOT
BRANCH   6   9
ATOM      9  N   UNL     1       9.091 -11.182  -0.162  0.00  0.00    -0.188 NA
ATOM     10  C   UNL     1       9.705 -12.325  -0.178  0.00  0.00    +0.138 C 
BRANCH  10  11
ATOM     11  C   UNL     1       8.930 -13.579  -0.185  0.00  0.00    -0.005 A 
ATOM     12  C   UNL     1       7.533 -13.541  -0.179  0.00  0.00    +0.010 A 
ATOM     13  C   UNL     1       6.814 -14.717  -0.186  0.00  0.00    +0.016 A 
ATOM     14  C   UNL     1       7.473 -15.935  -0.198  0.00  0.00    +0.018 A 
ATOM     15  C   UNL     1       8.857 -15.980  -0.203  0.00  0.00    +0.016 A 
ATOM     16  C   UNL     1       9.588 -14.811  -0.202  0.00  0.00    +0.010 A 
ATOM     17 BR   UNL     1       6.478 -17.543  -0.206  0.00  0.00    -0.050 Br
ENDBRANCH  10  11
ENDBRANCH   6   9
BRANCH   1  18
ATOM     18  S   UNL     1       5.978  -6.582  -0.091  0.00  0.00    -0.075 S 
BRANCH  18  19
ATOM     19  C   UNL     1       6.280  -4.793  -0.085  0.00  0.00    +0.174 C 
BRANCH  19  21
ATOM     20  N   UNL     1       4.942  -2.713  -0.060  0.00  0.00    -0.233 N 
ATOM     21  C   UNL     1       4.963  -4.061  -0.068  0.00  0.00    +0.239 C 
ATOM     22  O   UNL     1       3.923  -4.684  -0.061  0.00  0.00    -0.273 OA
ATOM     23  H   UNL     1       5.774  -2.215  -0.066  0.00  0.00    +0.173 HD
BRANCH  20  26
ATOM     24  C   UNL     1       3.696  -0.685  -0.037  0.00  0.00    +0.260 C 
ATOM     25  O   UNL     1       4.738  -0.060  -0.044  0.00  0.00    -0.269 OA
ATOM     26  N   UNL     1       3.717  -2.032  -0.045  0.00  0.00    -0.230 N 
ATOM     27  H   UNL     1       2.885  -2.531  -0.039  0.00  0.00    +0.173 HD
BRANCH  24  31
ATOM     28  C   UNL     1      -0.017   1.379   0.010  0.00  0.00    +0.000 A 
ATOM     29  C   UNL     1       1.168   2.094   0.002  0.00  0.00    +0.001 A 
ATOM     30  C   UNL     1       2.377   1.429  -0.013  0.00  0.00    +0.013 A 
ATOM     31  C   UNL     1       2.403   0.034  -0.021  0.00  0.00    +0.038 A 
ATOM     32  C   UNL     1       1.204  -0.681  -0.013  0.00  0.00    +0.013 A 
ATOM     33  C   UNL     1       0.002  -0.004   0.002  0.00  0.00    +0.001 A 
ENDBRANCH  24  31
ENDBRANCH  20  26
ENDBRANCH  19  21
ENDBRANCH  18  19
ENDBRANCH   1  18
TORSDOF 7
