REMARK  Name = ZINC01378387
REMARK  8 active torsions:
REMARK  status: ('A' for Active; 'I' for Inactive)
REMARK    1  A    between atoms: C_1  and  C_2
REMARK    2  A    between atoms: C_5  and  C_8
REMARK    3  A    between atoms: C_8  and  N_9
REMARK    4  A    between atoms: N_9  and  C_10
REMARK    5  A    between atoms: C_10  and  C_11
REMARK    6  A    between atoms: C_16  and  C_24
REMARK    7  A    between atoms: C_17  and  C_23
REMARK    8  A    between atoms: N_27  and  C_28
REMARK                            x       y       z     vdW  Elec       q    Type
REMARK                         _______ _______ _______ _____ _____    ______ ____
ROOT
ATOM      1  N   UNL     1       3.500   1.359   0.543  0.00  0.00    -0.277 N 
ATOM      2  C   UNL     1       2.200   1.006   0.532  0.00  0.00    +0.303 C 
ATOM      3  O   UNL     1       1.820   0.061   1.197  0.00  0.00    -0.253 OA
ATOM      4  N   UNL     1       1.319   1.699  -0.217  0.00  0.00    -0.296 N 
ATOM      5  H   UNL     1       1.646   2.601  -0.756  0.00  0.00    +0.151 HD
ENDROOT
BRANCH   4   6
ATOM      6  C   UNL     1      -0.072   1.252  -0.314  0.00  0.00    +0.074 C 
ATOM      7  C   UNL     1      -0.869   1.803   0.870  0.00  0.00    +0.022 C 
ATOM      8  C   UNL     1      -2.322   1.336   0.769  0.00  0.00    +0.002 C 
ATOM      9  C   UNL     1      -2.932   1.847  -0.538  0.00  0.00    +0.000 C 
ATOM     10  C   UNL     1      -2.135   1.295  -1.722  0.00  0.00    +0.002 C 
ATOM     11  C   UNL     1      -0.682   1.762  -1.621  0.00  0.00    +0.022 C 
ENDBRANCH   4   6
BRANCH   1  12
ATOM     12  C   UNL     1       4.477   0.534   1.260  0.00  0.00    +0.144 C 
BRANCH  12  17
ATOM     13  C   UNL     1       6.597  -3.483  -2.312  0.00  0.00    +0.044 C 
ATOM     14  C   UNL     1       6.044  -2.435  -1.380  0.00  0.00    -0.050 A 
ATOM     15  C   UNL     1       6.663  -1.204  -1.280  0.00  0.00    +0.003 A 
ATOM     16  C   UNL     1       6.156  -0.243  -0.425  0.00  0.00    +0.005 A 
ATOM     17  C   UNL     1       5.029  -0.513   0.328  0.00  0.00    -0.030 A 
ATOM     18  C   UNL     1       4.413  -1.747   0.232  0.00  0.00    +0.005 A 
ATOM     19  C   UNL     1       4.918  -2.706  -0.626  0.00  0.00    +0.003 A 
ENDBRANCH  12  17
ENDBRANCH   1  12
BRANCH   1  20
ATOM     20  C   UNL     1       3.937   2.567  -0.161  0.00  0.00    +0.150 C 
BRANCH  20  21
ATOM     21  C   UNL     1       4.018   3.714   0.813  0.00  0.00    +0.035 A 
ATOM     22  C   UNL     1       5.199   4.013   1.408  0.00  0.00    +0.020 A 
ATOM     23  C   UNL     1       5.245   5.137   2.346  0.00  0.00    -0.001 A 
ATOM     24  C   UNL     1       6.435   5.497   2.986  0.00  0.00    +0.010 A 
ATOM     25  C   UNL     1       6.443   6.547   3.860  0.00  0.00    +0.004 A 
ATOM     26  C   UNL     1       5.280   7.261   4.117  0.00  0.00    -0.046 A 
ATOM     27  C   UNL     1       4.097   6.925   3.497  0.00  0.00    -0.024 A 
ATOM     28  C   UNL     1       4.064   5.858   2.604  0.00  0.00    +0.052 A 
ATOM     29  N   UNL     1       2.894   5.500   1.969  0.00  0.00    -0.322 N 
ATOM     30  H   UNL     1       1.968   6.061   2.166  0.00  0.00    +0.169 HD
ATOM     31  C   UNL     1       2.862   4.470   1.106  0.00  0.00    +0.254 A 
ATOM     32  O   UNL     1       1.810   4.181   0.563  0.00  0.00    -0.268 OA
ATOM     33  C   UNL     1       2.843   7.709   3.785  0.00  0.00    +0.046 C 
ATOM     34  C   UNL     1       5.314   8.416   5.084  0.00  0.00    +0.044 C 
ENDBRANCH  20  21
ENDBRANCH   1  20
TORSDOF 5
