REMARK  Name = ZINC20883990
REMARK  10 active torsions:
REMARK  status: ('A' for Active; 'I' for Inactive)
REMARK    1  A    between atoms: C_1  and  O_2
REMARK    2  A    between atoms: O_2  and  C_3
REMARK    3  A    between atoms: C_6  and  O_37
REMARK    4  A    between atoms: C_7  and  C_9
REMARK    5  A    between atoms: C_14  and  C_24
REMARK    6  A    between atoms: C_26  and  O_32
REMARK    7  A    between atoms: C_29  and  O_30
REMARK    8  A    between atoms: O_30  and  C_31
REMARK    9  A    between atoms: O_32  and  C_33
REMARK   10  A    between atoms: O_37  and  C_38
REMARK                            x       y       z     vdW  Elec       q    Type
REMARK                         _______ _______ _______ _____ _____    ______ ____
ROOT
ATOM      1  C   UNL     1      -1.828   5.139   4.144  0.00  0.00    +0.036 C 
ATOM      2  C   UNL     1      -3.280   4.677   4.037  0.00  0.00    +0.060 C 
ATOM      3  C   UNL     1      -4.104   5.290   5.158  0.00  0.00    +0.017 C 
ATOM      4  C   UNL     1      -3.544   5.546   6.352  0.00  0.00    +0.037 C 
ATOM      5  C   UNL     1      -4.241   6.157   7.545  0.00  0.00    +0.140 C 
ATOM      6  N   UNL     1      -5.682   6.231   7.422  0.00  0.00    -0.331 N 
ATOM      7  C   UNL     1      -6.277   7.027   6.447  0.00  0.00    +0.049 A 
ATOM      8  C   UNL     1      -7.039   8.135   6.787  0.00  0.00    +0.025 A 
ATOM      9  C   UNL     1      -7.573   8.927   5.787  0.00  0.00    +0.002 A 
ATOM     10  C   UNL     1      -7.349   8.623   4.457  0.00  0.00    +0.002 A 
ATOM     11  C   UNL     1      -6.604   7.507   4.112  0.00  0.00    +0.025 A 
ATOM     12  C   UNL     1      -6.090   6.701   5.112  0.00  0.00    +0.052 A 
ATOM     13  N   UNL     1      -5.404   5.523   4.840  0.00  0.00    -0.316 N 
ATOM     14  C   UNL     1      -2.178   5.254   6.578  0.00  0.00    +0.163 C 
ATOM     15  O   UNL     1      -1.706   5.470   7.676  0.00  0.00    -0.292 OA
ATOM     16  C   UNL     1      -1.293   4.687   5.508  0.00  0.00    +0.088 C 
ATOM     17  H   UNL     1      -6.322   5.652   8.104  0.00  0.00    +0.147 HD
ATOM     18  H   UNL     1      -5.992   4.747   4.328  0.00  0.00    +0.152 HD
ENDROOT
BRANCH   1  23
ATOM     19  C   UNL     1      -0.160   2.565   1.937  0.00  0.00    +0.121 A 
ATOM     20  C   UNL     1       0.493   3.371   1.015  0.00  0.00    +0.049 A 
ATOM     21  C   UNL     1       0.394   4.745   1.107  0.00  0.00    +0.049 A 
ATOM     22  C   UNL     1      -0.358   5.320   2.122  0.00  0.00    +0.124 A 
ATOM     23  C   UNL     1      -1.011   4.515   3.042  0.00  0.00    +0.002 A 
ATOM     24  C   UNL     1      -0.916   3.140   2.947  0.00  0.00    +0.053 A 
BRANCH  19  26
ATOM     25  C   UNL     1       0.729   0.689   0.777  0.00  0.00    +0.277 C 
ATOM     26  O   UNL     1      -0.062   1.212   1.846  0.00  0.00    -0.495 OA
ENDBRANCH  19  26
BRANCH  22  27
ATOM     27  O   UNL     1      -0.456   6.673   2.212  0.00  0.00    -0.495 OA
ATOM     28  C   UNL     1       0.242   7.441   1.230  0.00  0.00    +0.277 C 
ENDBRANCH  22  27
ENDBRANCH   1  23
BRANCH   5  29
ATOM     29  C   UNL     1      -3.707   7.551   7.750  0.00  0.00    +0.022 A 
ATOM     30  C   UNL     1      -3.022   8.185   6.731  0.00  0.00    +0.055 A 
ATOM     31  C   UNL     1      -2.534   9.469   6.918  0.00  0.00    +0.121 A 
ATOM     32  C   UNL     1      -2.725  10.114   8.131  0.00  0.00    +0.049 A 
ATOM     33  C   UNL     1      -3.405   9.479   9.151  0.00  0.00    +0.049 A 
ATOM     34  C   UNL     1      -3.898   8.195   8.963  0.00  0.00    +0.126 A 
BRANCH  34  35
ATOM     35  O   UNL     1      -4.568   7.570   9.967  0.00  0.00    -0.495 OA
ATOM     36  C   UNL     1      -4.727   8.293  11.189  0.00  0.00    +0.277 C 
ENDBRANCH  34  35
BRANCH  31  37
ATOM     37  O   UNL     1      -1.864  10.095   5.913  0.00  0.00    -0.495 OA
ATOM     38  C   UNL     1      -1.384  11.415   6.177  0.00  0.00    +0.277 C 
ENDBRANCH  31  37
ENDBRANCH   5  29
TORSDOF 6
