REMARK  Name = ZINC67047961
REMARK  3 active torsions:
REMARK  status: ('A' for Active; 'I' for Inactive)
REMARK    1  A    between atoms: C_4  and  C_6
REMARK    2  A    between atoms: C_13  and  C_15
REMARK    3  A    between atoms: C_15  and  C_16
REMARK                            x       y       z     vdW  Elec       q    Type
REMARK                         _______ _______ _______ _____ _____    ______ ____
ROOT
ATOM      1  C   UNL     1       1.436  -6.454   2.035  0.00  0.00    +0.152 C 
ENDROOT
BRANCH   1   2
ATOM      2  C   UNL     1       2.091  -7.007   3.274  0.00  0.00    +0.059 A 
ATOM      3  C   UNL     1       1.492  -7.964   4.025  0.00  0.00    +0.072 A 
ATOM      4  S   UNL     1       2.714  -8.195   5.306  0.00  0.00    -0.060 S 
ATOM      5  C   UNL     1       3.839  -7.068   4.761  0.00  0.00    +0.168 A 
ATOM      6  N   UNL     1       3.276  -6.584   3.675  0.00  0.00    -0.229 NA
ATOM      7  N   UNL     1       5.067  -6.734   5.320  0.00  0.00    -0.234 N 
ATOM      8  C   UNL     1       5.509  -7.413   6.539  0.00  0.00    +0.119 C 
ATOM      9  C   UNL     1       7.040  -7.462   6.560  0.00  0.00    +0.038 C 
ATOM     10  C   UNL     1       7.577  -6.034   6.420  0.00  0.00    +0.107 C 
ATOM     11  N   UNL     1       7.023  -5.430   5.207  0.00  0.00    -0.299 N 
ATOM     12  C   UNL     1       5.826  -5.799   4.728  0.00  0.00    +0.308 C 
ATOM     13  O   UNL     1       5.409  -5.262   3.720  0.00  0.00    -0.252 OA
ATOM     14  H   UNL     1       7.534  -4.751   4.739  0.00  0.00    +0.150 HD
ENDBRANCH   1   2
BRANCH   1  21
ATOM     15  C   UNL     1       1.335  -2.163  -0.022  0.00  0.00    +0.062 C 
ATOM     16  C   UNL     1       0.676  -2.761  -1.268  0.00  0.00    +0.013 C 
ATOM     17  C   UNL     1       0.912  -4.273  -1.296  0.00  0.00    +0.020 C 
ATOM     18  C   UNL     1       0.272  -4.909  -0.058  0.00  0.00    +0.108 C 
ATOM     19  N   UNL     1       0.793  -4.239   1.141  0.00  0.00    -0.301 N 
ATOM     20  C   UNL     1       0.700  -2.775   1.230  0.00  0.00    +0.118 C 
ATOM     21  C   UNL     1       1.347  -4.953   2.141  0.00  0.00    +0.221 C 
ATOM     22  O   UNL     1       1.774  -4.388   3.126  0.00  0.00    -0.275 OA
BRANCH  15  26
ATOM     23  C   UNL     1      -0.016   1.314   0.009  0.00  0.00    +0.119 A 
ATOM     24  C   UNL     1       1.186   1.946   0.001  0.00  0.00    +0.066 A 
ATOM     25  S   UNL     1       2.294   0.545  -0.017  0.00  0.00    -0.080 S 
ATOM     26  C   UNL     1       1.129  -0.670  -0.012  0.00  0.00    +0.083 A 
ATOM     27  N   UNL     1       0.002  -0.004   0.002  0.00  0.00    -0.252 NA
ENDBRANCH  15  26
ENDBRANCH   1  21
TORSDOF 3
