REMARK  Name = ZINC46129994
REMARK  9 active torsions:
REMARK  status: ('A' for Active; 'I' for Inactive)
REMARK    1  A    between atoms: C_1  and  C_2
REMARK    2  A    between atoms: C_5  and  C_12
REMARK    3  A    between atoms: C_7  and  N_8
REMARK    4  A    between atoms: C_9  and  C_11
REMARK    5  A    between atoms: C_12  and  N_14
REMARK    6  A    between atoms: N_16  and  C_17
REMARK    7  A    between atoms: C_22  and  C_23
REMARK    8  A    between atoms: N_25  and  C_26
REMARK    9  A    between atoms: C_26  and  C_27
REMARK                            x       y       z     vdW  Elec       q    Type
REMARK                         _______ _______ _______ _____ _____    ______ ____
ROOT
ATOM      1  N   UNL     1      -1.590  -5.374  -1.806  0.00  0.00    -0.143 NA
ATOM      2  C   UNL     1      -1.079  -6.552  -1.482  0.00  0.00    +0.194 C 
ATOM      3  N   UNL     1      -0.321  -7.238  -2.386  0.00  0.00    -0.328 N 
ATOM      4  N   UNL     1      -1.311  -7.080  -0.246  0.00  0.00    -0.355 N 
ATOM      5  H   UNL     1       0.037  -8.110  -2.156  0.00  0.00    +0.169 HD
ATOM      6  H   UNL     1      -1.768  -6.553   0.428  0.00  0.00    +0.162 HD
ENDROOT
BRANCH   3   7
ATOM      7  C   UNL     1      -0.059  -6.685  -3.644  0.00  0.00    +0.046 A 
ATOM      8  C   UNL     1       0.009  -5.306  -3.796  0.00  0.00    +0.026 A 
ATOM      9  C   UNL     1       0.268  -4.761  -5.039  0.00  0.00    +0.003 A 
ATOM     10  C   UNL     1       0.459  -5.587  -6.131  0.00  0.00    +0.020 A 
ATOM     11  C   UNL     1       0.392  -6.961  -5.983  0.00  0.00    +0.046 A 
ATOM     12  C   UNL     1       0.139  -7.512  -4.741  0.00  0.00    -0.009 A 
ATOM     13  C   UNL     1       0.073  -9.009  -4.579  0.00  0.00    +0.047 C 
ATOM     14 CL   UNL     1       0.632  -7.995  -7.358  0.00  0.00    -0.083 Cl
ENDBRANCH   3   7
BRANCH   1  15
ATOM     15  C   UNL     1      -2.463  -4.774  -0.986  0.00  0.00    +0.270 C 
ATOM     16  O   UNL     1      -2.714  -5.265   0.100  0.00  0.00    -0.268 OA
BRANCH  15  21
ATOM     17  C   UNL     1      -5.029   0.122  -2.612  0.00  0.00    +0.045 C 
ATOM     18  C   UNL     1      -4.358  -1.158  -2.185  0.00  0.00    -0.029 A 
ATOM     19  C   UNL     1      -3.456  -1.779  -3.029  0.00  0.00    +0.006 A 
ATOM     20  C   UNL     1      -2.839  -2.951  -2.645  0.00  0.00    +0.013 A 
ATOM     21  C   UNL     1      -3.124  -3.515  -1.401  0.00  0.00    +0.041 A 
ATOM     22  C   UNL     1      -4.034  -2.890  -0.549  0.00  0.00    +0.036 A 
ATOM     23  C   UNL     1      -4.645  -1.709  -0.942  0.00  0.00    +0.037 A 
BRANCH  23  24
ATOM     24  N   UNL     1      -5.554  -1.074  -0.088  0.00  0.00    -0.285 N 
ATOM     25  C   UNL     1      -6.321  -1.806   0.744  0.00  0.00    +0.214 C 
ATOM     26  O   UNL     1      -6.138  -3.001   0.844  0.00  0.00    -0.276 OA
ATOM     27  C   UNL     1      -7.407  -1.141   1.550  0.00  0.00    +0.109 C 
ATOM     28  H   UNL     1      -5.633  -0.107  -0.095  0.00  0.00    +0.155 HD
ENDBRANCH  23  24
ENDBRANCH  15  21
ENDBRANCH   1  15
BRANCH   4  29
ATOM     29  C   UNL     1      -0.871  -8.442   0.063  0.00  0.00    +0.147 C 
BRANCH  29  30
ATOM     30  C   UNL     1      -1.350  -8.828   1.464  0.00  0.00    +0.137 C 
ATOM     31  C   UNL     1      -0.857 -10.248   1.814  0.00  0.00    +0.035 C 
ATOM     32  C   UNL     1      -2.079 -10.846   2.563  0.00  0.00    +0.031 C 
ATOM     33  C   UNL     1      -3.248 -10.170   1.804  0.00  0.00    +0.160 C 
ATOM     34  O   UNL     1      -2.782  -8.844   1.500  0.00  0.00    -0.375 OA
ENDBRANCH  29  30
ENDBRANCH   4  29
TORSDOF 6
