REMARK  Name = ZINC66378034
REMARK  10 active torsions:
REMARK  status: ('A' for Active; 'I' for Inactive)
REMARK    1  A    between atoms: C_1  and  C_2
REMARK    2  A    between atoms: N_5  and  C_11
REMARK    3  A    between atoms: C_7  and  C_10
REMARK    4  A    between atoms: C_11  and  C_12
REMARK    5  A    between atoms: N_17  and  C_18
REMARK    6  A    between atoms: C_18  and  C_19
REMARK    7  A    between atoms: C_23  and  S_25
REMARK    8  A    between atoms: S_25  and  N_28
REMARK    9  A    between atoms: N_28  and  C_29
REMARK   10  A    between atoms: N_28  and  C_30
REMARK                            x       y       z     vdW  Elec       q    Type
REMARK                         _______ _______ _______ _____ _____    ______ ____
ROOT
ATOM      1  C   UNL     1      -2.572  -3.993   0.168  0.00  0.00    -0.054 C 
ATOM      2  C   UNL     1      -3.951  -4.664   0.338  0.00  0.00    -0.016 C 
ATOM      3  C   UNL     1      -3.643  -5.864   1.272  0.00  0.00    -0.020 C 
ATOM      4  C   UNL     1      -2.554  -5.268   2.199  0.00  0.00    -0.078 C 
ATOM      5  N   UNL     1      -1.740  -4.399   1.316  0.00  0.00    +0.385 N 
ATOM      6  H   UNL     1      -1.442  -3.581   1.825  0.00  0.00    -0.081 HD
ENDROOT
BRANCH   1   7
ATOM      7  C   UNL     1      -2.732  -2.472   0.153  0.00  0.00    +0.069 C 
BRANCH   7  11
ATOM      8  C   UNL     1      -5.255   1.120  -2.074  0.00  0.00    +0.039 C 
ATOM      9  C   UNL     1      -4.796  -0.337  -2.164  0.00  0.00    +0.130 C 
ATOM     10  C   UNL     1      -3.978  -0.694  -0.920  0.00  0.00    +0.115 C 
ATOM     11  N   UNL     1      -3.476  -2.069  -1.048  0.00  0.00    -0.299 NA
ATOM     12  C   UNL     1      -2.647  -2.211  -2.254  0.00  0.00    +0.115 C 
ATOM     13  C   UNL     1      -3.478  -1.839  -3.485  0.00  0.00    +0.130 C 
ATOM     14  O   UNL     1      -3.985  -0.511  -3.329  0.00  0.00    -0.371 OA
ATOM     15  C   UNL     1      -4.645  -2.818  -3.627  0.00  0.00    +0.039 C 
ENDBRANCH   7  11
ENDBRANCH   1   7
BRANCH   5  16
ATOM     16  C   UNL     1      -0.564  -5.138   0.837  0.00  0.00    -0.043 C 
BRANCH  16  17
ATOM     17  C   UNL     1       0.358  -5.418   1.996  0.00  0.00    -0.062 A 
ATOM     18  C   UNL     1       1.266  -4.459   2.404  0.00  0.00    +0.002 A 
ATOM     19  C   UNL     1       2.112  -4.715   3.466  0.00  0.00    +0.002 A 
ATOM     20  C   UNL     1       2.051  -5.931   4.121  0.00  0.00    +0.028 A 
ATOM     21  C   UNL     1       1.143  -6.890   3.713  0.00  0.00    +0.106 A 
ATOM     22  C   UNL     1       0.293  -6.632   2.653  0.00  0.00    +0.030 A 
BRANCH  21  23
ATOM     23  S   UNL     1       1.065  -8.441   4.547  0.00  0.00    +0.060 S 
ATOM     24  O   UNL     1       0.507  -9.369   3.627  0.00  0.00    -0.153 OA
ATOM     25  O   UNL     1       2.333  -8.639   5.156  0.00  0.00    -0.153 OA
BRANCH  23  26
ATOM     26  N   UNL     1      -0.031  -8.279   5.779  0.00  0.00    -0.183 NA
ATOM     27  C   UNL     1      -1.445  -8.580   5.545  0.00  0.00    +0.131 C 
ATOM     28  C   UNL     1       0.415  -7.836   7.102  0.00  0.00    +0.131 C 
ENDBRANCH  23  26
ENDBRANCH  21  23
ENDBRANCH  16  17
ENDBRANCH   5  16
TORSDOF 6
