REMARK  Name = ZINC06195974
REMARK  17 active torsions:
REMARK  status: ('A' for Active; 'I' for Inactive)
REMARK    1  A    between atoms: C_1  and  C_2
REMARK    2  A    between atoms: C_2  and  O_3
REMARK    3  A    between atoms: O_3  and  C_4
REMARK    4  A    between atoms: C_6  and  C_11
REMARK    5  A    between atoms: C_9  and  O_10
REMARK    6  A    between atoms: C_16  and  C_21
REMARK    7  A    between atoms: C_24  and  O_29
REMARK    8  A    between atoms: C_25  and  O_27
REMARK    9  A    between atoms: O_27  and  C_28
REMARK   10  A    between atoms: O_29  and  C_30
REMARK   11  A    between atoms: C_32  and  C_41
REMARK   12  A    between atoms: C_33  and  C_34
REMARK   13  A    between atoms: C_34  and  O_36
REMARK   14  A    between atoms: O_36  and  C_37
REMARK   15  A    between atoms: C_37  and  C_38
REMARK   16  A    between atoms: C_38  and  C_39
REMARK   17  A    between atoms: C_38  and  C_40
REMARK                            x       y       z     vdW  Elec       q    Type
REMARK                         _______ _______ _______ _____ _____    ______ ____
ROOT
ATOM      1  C   UNL     1      -2.557   4.152   0.049  0.00  0.00    +0.092 C 
ATOM      2  C   UNL     1      -2.661   5.007  -1.188  0.00  0.00    +0.024 C 
ATOM      3  C   UNL     1      -2.448   6.339  -1.125  0.00  0.00    +0.016 C 
ATOM      4  C   UNL     1      -2.538   7.199  -2.361  0.00  0.00    +0.059 C 
ATOM      5  C   UNL     1      -3.559   6.600  -3.331  0.00  0.00    +0.032 C 
ATOM      6  C   UNL     1      -3.123   5.173  -3.676  0.00  0.00    +0.088 C 
ATOM      7  C   UNL     1      -2.987   4.381  -2.404  0.00  0.00    +0.162 C 
ATOM      8  O   UNL     1      -3.163   3.179  -2.428  0.00  0.00    -0.292 OA
ATOM      9  N   UNL     1      -2.146   6.939   0.068  0.00  0.00    -0.321 N 
ATOM     10  C   UNL     1      -2.430   6.317   1.252  0.00  0.00    +0.016 C 
ATOM     11  C   UNL     1      -2.636   4.991   1.291  0.00  0.00    +0.065 C 
ATOM     12  C   UNL     1      -2.512   7.126   2.521  0.00  0.00    +0.061 C 
ATOM     13  H   UNL     1      -1.670   7.930   0.080  0.00  0.00    +0.152 HD
ENDROOT
BRANCH   1  16
ATOM     14  C   UNL     1      -0.016   1.356   0.009  0.00  0.00    +0.162 A 
ATOM     15  C   UNL     1      -1.225   2.034   0.019  0.00  0.00    +0.054 A 
ATOM     16  C   UNL     1      -1.242   3.416   0.033  0.00  0.00    -0.032 A 
ATOM     17  C   UNL     1      -0.055   4.125   0.025  0.00  0.00    +0.008 A 
ATOM     18  C   UNL     1       1.154   3.455   0.010  0.00  0.00    +0.049 A 
ATOM     19  C   UNL     1       1.178   2.069   0.002  0.00  0.00    +0.158 A 
BRANCH  19  20
ATOM     20  O   UNL     1       2.367   1.409  -0.013  0.00  0.00    -0.503 OA
ATOM     21  H   UNL     1       3.310   1.974  -0.019  0.00  0.00    +0.292 HD
ENDBRANCH  19  20
BRANCH  14  22
ATOM     22  O   UNL     1       0.002  -0.004   0.002  0.00  0.00    -0.489 OA
BRANCH  22  24
ATOM     23  C   UNL     1      -1.041  -2.184   0.000  0.00  0.00    +0.048 C 
ATOM     24  C   UNL     1      -1.262  -0.670   0.011  0.00  0.00    +0.226 C 
ENDBRANCH  22  24
ENDBRANCH  14  22
ENDBRANCH   1  16
BRANCH   5  25
ATOM     25  C   UNL     1      -3.618   7.430  -4.588  0.00  0.00    -0.040 A 
ATOM     26  C   UNL     1      -2.479   7.606  -5.351  0.00  0.00    +0.008 A 
ATOM     27  C   UNL     1      -2.527   8.366  -6.505  0.00  0.00    +0.049 A 
ATOM     28  C   UNL     1      -3.719   8.953  -6.898  0.00  0.00    +0.161 A 
ATOM     29  C   UNL     1      -4.865   8.775  -6.130  0.00  0.00    +0.162 A 
ATOM     30  C   UNL     1      -4.811   8.008  -4.977  0.00  0.00    +0.053 A 
BRANCH  29  31
ATOM     31  O   UNL     1      -6.037   9.349  -6.512  0.00  0.00    -0.491 OA
ATOM     32  C   UNL     1      -7.173   9.124  -5.675  0.00  0.00    +0.277 C 
ENDBRANCH  29  31
BRANCH  28  33
ATOM     33  O   UNL     1      -3.768   9.701  -8.033  0.00  0.00    -0.491 OA
ATOM     34  C   UNL     1      -2.553   9.839  -8.772  0.00  0.00    +0.277 C 
ENDBRANCH  28  33
ENDBRANCH   5  25
BRANCH  11  35
ATOM     35  C   UNL     1      -2.935   4.373   2.528  0.00  0.00    +0.338 C 
ATOM     36  O   UNL     1      -3.003   5.042   3.542  0.00  0.00    -0.245 OA
BRANCH  35  37
ATOM     37  O   UNL     1      -3.146   3.041   2.583  0.00  0.00    -0.461 OA
BRANCH  37  38
ATOM     38  C   UNL     1      -3.443   2.484   3.865  0.00  0.00    +0.235 C 
BRANCH  38  39
ATOM     39  C   UNL     1      -3.648   0.974   3.730  0.00  0.00    +0.020 C 
ATOM     40  C   UNL     1      -3.843   0.360   5.118  0.00  0.00    +0.010 C 
ATOM     41  C   UNL     1      -4.887   0.703   2.874  0.00  0.00    +0.010 C 
ENDBRANCH  38  39
ENDBRANCH  37  38
ENDBRANCH  35  37
ENDBRANCH  11  35
TORSDOF 11
