REMARK  Name = ZINC04082251
REMARK  5 active torsions:
REMARK  status: ('A' for Active; 'I' for Inactive)
REMARK    1  A    between atoms: C_1  and  C_2
REMARK    2  A    between atoms: C_9  and  O_20
REMARK    3  A    between atoms: C_12  and  C_14
REMARK    4  A    between atoms: C_25  and  O_32
REMARK    5  A    between atoms: C_29  and  C_30
REMARK                            x       y       z     vdW  Elec       q    Type
REMARK                         _______ _______ _______ _____ _____    ______ ____
ROOT
ATOM      1  C   UNL     1       1.454   3.027   0.671  0.00  0.00    +0.014 C 
ATOM      2  C   UNL     1       1.434   1.669  -0.034  0.00  0.00    +0.004 C 
ATOM      3  C   UNL     1       2.447   0.768   0.637  0.00  0.00    +0.010 C 
ATOM      4  C   UNL     1       2.533  -0.569  -0.095  0.00  0.00    +0.006 C 
ATOM      5  C   UNL     1       2.980  -0.321  -1.543  0.00  0.00    +0.012 C 
ATOM      6  C   UNL     1       1.957   0.545  -2.255  0.00  0.00    +0.026 C 
ATOM      7  C   UNL     1       1.726   1.876  -1.527  0.00  0.00    +0.075 C 
ATOM      8  C   UNL     1       0.360   2.423  -2.041  0.00  0.00    +0.036 C 
ATOM      9  C   UNL     1      -0.685   1.588  -1.269  0.00  0.00    +0.011 C 
ATOM     10  C   UNL     1       0.010   1.100   0.019  0.00  0.00    +0.027 C 
ATOM     11  C   UNL     1       2.365   0.879  -3.688  0.00  0.00    +0.011 C 
ATOM     12  C   UNL     1       3.151  -0.244  -4.350  0.00  0.00    +0.032 C 
ATOM     13  C   UNL     1       2.793  -1.553  -3.685  0.00  0.00    -0.058 C 
ATOM     14  C   UNL     1       2.231  -2.508  -4.358  0.00  0.00    +0.004 C 
ATOM     15  C   UNL     1       1.830  -3.834  -3.803  0.00  0.00    +0.137 C 
ATOM     16  C   UNL     1       2.193  -4.000  -2.336  0.00  0.00    +0.037 C 
ATOM     17  C   UNL     1       2.095  -2.665  -1.597  0.00  0.00    +0.021 C 
ATOM     18  C   UNL     1       3.102  -1.693  -2.217  0.00  0.00    +0.050 C 
ENDROOT
BRANCH  10  19
ATOM     19  C   UNL     1      -0.714   1.621   1.233  0.00  0.00    -0.022 C 
ATOM     20  C   UNL     1      -1.640   2.576   1.253  0.00  0.00    +0.094 C 
ATOM     21  C   UNL     1      -2.098   2.786   2.630  0.00  0.00    +0.332 C 
ATOM     22  O   UNL     1      -2.943   3.591   2.969  0.00  0.00    -0.246 OA
ATOM     23  O   UNL     1      -1.440   1.958   3.463  0.00  0.00    -0.457 OA
ATOM     24  C   UNL     1      -0.523   1.163   2.660  0.00  0.00    +0.264 C 
ENDBRANCH  10  19
BRANCH   7  25
ATOM     25  O   UNL     1       2.792   2.803  -1.741  0.00  0.00    -0.388 OA
ATOM     26  H   UNL     1       3.649   2.500  -1.410  0.00  0.00    +0.210 HD
ENDBRANCH   7  25
BRANCH  18  27
ATOM     27  C   UNL     1       4.503  -2.219  -2.043  0.00  0.00    +0.234 C 
ATOM     28  O   UNL     1       5.184  -2.457  -3.012  0.00  0.00    -0.300 OA
ENDBRANCH  18  27
BRANCH  15  29
ATOM     29  O   UNL     1       2.478  -4.860  -4.557  0.00  0.00    -0.388 OA
ATOM     30  H   UNL     1       2.298  -4.825  -5.506  0.00  0.00    +0.210 HD
ENDBRANCH  15  29
TORSDOF 4
