REMARK  Name = ZINC40460607
REMARK  6 active torsions:
REMARK  status: ('A' for Active; 'I' for Inactive)
REMARK    1  A    between atoms: C_3  and  C_10
REMARK    2  A    between atoms: C_5  and  N_7
REMARK    3  A    between atoms: C_11  and  C_16
REMARK    4  A    between atoms: C_17  and  C_18
REMARK    5  A    between atoms: C_17  and  C_20
REMARK    6  A    between atoms: C_22  and  C_25
REMARK                            x       y       z     vdW  Elec       q    Type
REMARK                         _______ _______ _______ _____ _____    ______ ____
ROOT
ATOM      1  C   UNL     1       5.306   4.008  -3.984  0.00  0.00    +0.100 A 
ATOM      2  C   UNL     1       4.617   5.030  -3.177  0.00  0.00    +0.021 A 
ATOM      3  C   UNL     1       5.500   6.109  -3.089  0.00  0.00    +0.113 A 
ATOM      4  N   UNL     1       6.606   5.785  -3.767  0.00  0.00    -0.284 N 
ATOM      5  H   UNL     1       7.383   6.356  -3.868  0.00  0.00    +0.188 HD
ATOM      6  N   UNL     1       6.479   4.501  -4.303  0.00  0.00    -0.173 NA
ENDROOT
BRANCH   1   9
ATOM      7  C   UNL     1       3.470   0.733  -3.830  0.00  0.00    +0.003 A 
ATOM      8  C   UNL     1       3.960   1.973  -3.475  0.00  0.00    +0.010 A 
ATOM      9  C   UNL     1       4.777   2.676  -4.359  0.00  0.00    +0.005 A 
ATOM     10  C   UNL     1       5.096   2.119  -5.598  0.00  0.00    +0.042 A 
ATOM     11  C   UNL     1       4.600   0.879  -5.941  0.00  0.00    +0.127 A 
ATOM     12  C   UNL     1       3.789   0.186  -5.060  0.00  0.00    +0.033 A 
BRANCH  11  13
ATOM     13  N   UNL     1       4.936   0.287  -7.256  0.00  0.00    +0.056 N 
ATOM     14  O   UNL     1       5.708   0.945  -8.096  0.00  0.00    -0.126 OA
ATOM     15  O   UNL     1       4.464  -0.897  -7.585  0.00  0.00    -0.126 OA
ENDBRANCH  11  13
ENDBRANCH   1   9
BRANCH   2  16
ATOM     16  C   UNL     1       3.332   4.938  -2.611  0.00  0.00    +0.033 C 
ATOM     17  C   UNL     1       3.045   5.604  -1.413  0.00  0.00    +0.084 C 
BRANCH  17  18
ATOM     18  C   UNL     1       4.076   6.257  -0.704  0.00  0.00    +0.119 A 
ATOM     19  N   UNL     1       4.228   7.560  -0.482  0.00  0.00    -0.238 NA
ATOM     20  C   UNL     1       5.261   7.981   0.206  0.00  0.00    +0.085 A 
ATOM     21  C   UNL     1       6.197   6.945   0.690  0.00  0.00    +0.076 A 
ATOM     22  S   UNL     1       5.484   5.532   0.115  0.00  0.00    -0.074 S 
BRANCH  20  23
ATOM     23  C   UNL     1       5.469   9.349   0.469  0.00  0.00    +0.038 A 
ATOM     24  C   UNL     1       4.680  10.456   0.091  0.00  0.00    +0.017 A 
ATOM     25  C   UNL     1       5.140  11.671   0.495  0.00  0.00    +0.008 A 
ATOM     26  C   UNL     1       6.312  11.732   1.226  0.00  0.00    +0.046 A 
ATOM     27  S   UNL     1       6.793  10.129   1.374  0.00  0.00    -0.095 S 
ENDBRANCH  20  23
ENDBRANCH  17  18
BRANCH  17  28
ATOM     28  C   UNL     1       1.706   5.624  -0.907  0.00  0.00    +0.102 C 
ATOM     29  N   UNL     1       0.643   5.639  -0.506  0.00  0.00    -0.191 NA
ENDBRANCH  17  28
ENDBRANCH   2  16
TORSDOF 6
