REMARK  Name = ZINC39528345
REMARK  9 active torsions:
REMARK  status: ('A' for Active; 'I' for Inactive)
REMARK    1  A    between atoms: C_1  and  C_2
REMARK    2  A    between atoms: C_2  and  C_3
REMARK    3  A    between atoms: C_2  and  S_4
REMARK    4  A    between atoms: S_4  and  C_7
REMARK    5  A    between atoms: C_10  and  N_20
REMARK    6  A    between atoms: C_11  and  C_13
REMARK    7  A    between atoms: C_13  and  C_14
REMARK    8  A    between atoms: C_24  and  C_27
REMARK    9  A    between atoms: C_27  and  C_28
REMARK                            x       y       z     vdW  Elec       q    Type
REMARK                         _______ _______ _______ _____ _____    ______ ____
ROOT
ATOM      1  C   UNL     1      -2.834  -0.312  -1.460  0.00  0.00    +0.089 A 
ATOM      2  C   UNL     1      -3.583   0.849  -1.398  0.00  0.00    +0.029 A 
ATOM      3  C   UNL     1      -4.050   1.434  -2.558  0.00  0.00    +0.025 A 
ATOM      4  C   UNL     1      -3.768   0.854  -3.789  0.00  0.00    +0.033 A 
ATOM      5  C   UNL     1      -3.017  -0.312  -3.847  0.00  0.00    -0.020 A 
ATOM      6  C   UNL     1      -2.547  -0.889  -2.683  0.00  0.00    +0.032 A 
ENDROOT
BRANCH   4   7
ATOM      7  N   UNL     1      -4.240   1.443  -4.964  0.00  0.00    -0.333 N 
ATOM      8  C   UNL     1      -5.541   1.058  -5.533  0.00  0.00    +0.086 C 
ATOM      9  C   UNL     1      -6.344   2.333  -5.813  0.00  0.00    -0.063 C 
ATOM     10  N   UNL     1      -5.553   3.233  -6.662  0.00  0.00    +0.383 N 
ATOM     11  C   UNL     1      -4.352   3.673  -5.941  0.00  0.00    -0.050 C 
ATOM     12  C   UNL     1      -3.453   2.469  -5.665  0.00  0.00    +0.089 C 
ATOM     13  H   UNL     1      -5.280   2.746  -7.503  0.00  0.00    -0.085 HD
ATOM     14  H   UNL     1      -6.111   4.037  -6.908  0.00  0.00    -0.085 HD
BRANCH  11  15
ATOM     15  C   UNL     1      -3.594   4.695  -6.791  0.00  0.00    +0.021 C 
BRANCH  15  16
ATOM     16  C   UNL     1      -4.435   5.934  -6.957  0.00  0.00    -0.049 A 
ATOM     17  C   UNL     1      -5.311   6.036  -8.021  0.00  0.00    +0.003 A 
ATOM     18  C   UNL     1      -6.084   7.173  -8.174  0.00  0.00    +0.000 A 
ATOM     19  C   UNL     1      -5.980   8.206  -7.262  0.00  0.00    +0.000 A 
ATOM     20  C   UNL     1      -5.104   8.103  -6.197  0.00  0.00    +0.000 A 
ATOM     21  C   UNL     1      -4.335   6.965  -6.042  0.00  0.00    +0.003 A 
ENDBRANCH  15  16
ENDBRANCH  11  15
ENDBRANCH   4   7
BRANCH   1  22
ATOM     22  S   UNL     1      -2.240  -1.055   0.023  0.00  0.00    -0.001 S 
ATOM     23  O   UNL     1      -2.085  -2.431  -0.297  0.00  0.00    -0.169 OA
ATOM     24  O   UNL     1      -3.157  -0.644   1.028  0.00  0.00    -0.169 OA
BRANCH  22  26
ATOM     25  C   UNL     1      -0.785   1.220   0.460  0.00  0.00    +0.032 C 
ATOM     26  C   UNL     1      -0.618  -0.294   0.308  0.00  0.00    +0.130 C 
ATOM     27  C   UNL     1      -0.001  -0.870   1.584  0.00  0.00    +0.032 C 
ENDBRANCH  22  26
ENDBRANCH   1  22
BRANCH   5  28
ATOM     28  C   UNL     1      -2.708  -0.945  -5.180  0.00  0.00    +0.072 C 
BRANCH  28  29
ATOM     29  C   UNL     1      -2.000  -2.257  -4.961  0.00  0.00    -0.043 A 
ATOM     30  C   UNL     1      -0.619  -2.303  -4.946  0.00  0.00    +0.004 A 
ATOM     31  C   UNL     1       0.031  -3.506  -4.745  0.00  0.00    +0.000 A 
ATOM     32  C   UNL     1      -0.701  -4.664  -4.560  0.00  0.00    +0.000 A 
ATOM     33  C   UNL     1      -2.083  -4.618  -4.574  0.00  0.00    +0.000 A 
ATOM     34  C   UNL     1      -2.732  -3.414  -4.771  0.00  0.00    +0.004 A 
ENDBRANCH  28  29
ENDBRANCH   5  28
TORSDOF 7
