REMARK  Name = ZINC06553950
REMARK  8 active torsions:
REMARK  status: ('A' for Active; 'I' for Inactive)
REMARK    1  A    between atoms: C_1  and  C_2
REMARK    2  A    between atoms: C_2  and  O_3
REMARK    3  A    between atoms: O_3  and  C_4
REMARK    4  A    between atoms: C_6  and  C_11
REMARK    5  A    between atoms: C_9  and  O_10
REMARK    6  A    between atoms: C_19  and  O_31
REMARK    7  A    between atoms: C_22  and  C_23
REMARK    8  A    between atoms: C_22  and  N_66
REMARK                            x       y       z     vdW  Elec       q    Type
REMARK                         _______ _______ _______ _____ _____    ______ ____
ROOT
ATOM      1  C   UNL     1       5.312   3.475   0.073  0.00  0.00    -0.031 C 
ATOM      2  C   UNL     1       6.377   2.391  -0.100  0.00  0.00    +0.011 C 
ATOM      3  C   UNL     1       6.489   1.559   1.178  0.00  0.00    +0.005 C 
ATOM      4  C   UNL     1       7.563   0.486   0.991  0.00  0.00    +0.000 C 
ATOM      5  C   UNL     1       7.183  -0.422  -0.180  0.00  0.00    +0.003 C 
ATOM      6  C   UNL     1       7.059   0.412  -1.458  0.00  0.00    +0.035 C 
ATOM      7  C   UNL     1       5.980   1.478  -1.263  0.00  0.00    +0.066 C 
ATOM      8  C   UNL     1       5.838   2.319  -2.533  0.00  0.00    +0.016 C 
ATOM      9  C   UNL     1       4.793   3.412  -2.296  0.00  0.00    -0.075 C 
ATOM     10  N   UNL     1       5.234   4.268  -1.173  0.00  0.00    +0.390 N 
ATOM     11  H   UNL     1       6.165   4.644  -1.388  0.00  0.00    -0.080 HD
ENDROOT
BRANCH   1  14
ATOM     12  C   UNL     1       2.625   1.441   1.780  0.00  0.00    +0.162 A 
ATOM     13  C   UNL     1       3.847   2.028   1.495  0.00  0.00    +0.051 A 
ATOM     14  C   UNL     1       3.984   2.832   0.379  0.00  0.00    -0.057 A 
ATOM     15  C   UNL     1       2.905   3.047  -0.459  0.00  0.00    +0.006 A 
ATOM     16  C   UNL     1       1.684   2.459  -0.183  0.00  0.00    +0.049 A 
ATOM     17  C   UNL     1       1.540   1.652   0.934  0.00  0.00    +0.158 A 
BRANCH  17  18
ATOM     18  O   UNL     1       0.341   1.073   1.207  0.00  0.00    -0.503 OA
ATOM     19  H   UNL     1       0.225   0.201   0.807  0.00  0.00    +0.292 HD
ENDBRANCH  17  18
BRANCH  12  20
ATOM     20  O   UNL     1       2.487   0.654   2.881  0.00  0.00    -0.489 OA
BRANCH  20  22
ATOM     21  C   UNL     1       3.297  -0.427   4.885  0.00  0.00    +0.048 C 
ATOM     22  C   UNL     1       3.643   0.482   3.704  0.00  0.00    +0.226 C 
ENDBRANCH  20  22
ENDBRANCH  12  20
ENDBRANCH   1  14
BRANCH   7  23
ATOM     23  O   UNL     1       4.733   0.845  -0.968  0.00  0.00    -0.388 OA
ATOM     24  H   UNL     1       4.420   0.250  -1.664  0.00  0.00    +0.210 HD
ENDBRANCH   7  23
BRANCH  10  25
ATOM     25  C   UNL     1       4.292   5.392  -0.998  0.00  0.00    +0.020 C 
BRANCH  25  26
ATOM     26  C   UNL     1       4.509   6.382  -2.113  0.00  0.00    +0.199 C 
ATOM     27  O   UNL     1       5.343   6.162  -2.965  0.00  0.00    -0.278 OA
ATOM     28  N   UNL     1       3.776   7.512  -2.163  0.00  0.00    -0.303 N 
ATOM     29  C   UNL     1       2.758   7.790  -1.141  0.00  0.00    +0.107 C 
ATOM     30  C   UNL     1       3.032   9.178  -0.543  0.00  0.00    +0.019 C 
ATOM     31  C   UNL     1       3.089  10.211  -1.670  0.00  0.00    +0.003 C 
ATOM     32  C   UNL     1       4.233   9.864  -2.625  0.00  0.00    +0.019 C 
ATOM     33  C   UNL     1       3.976   8.486  -3.244  0.00  0.00    +0.107 C 
ENDBRANCH  25  26
ENDBRANCH  10  25
TORSDOF 7
