REMARK  Name = ZINC64031610
REMARK  5 active torsions:
REMARK  status: ('A' for Active; 'I' for Inactive)
REMARK    1  A    between atoms: C_1  and  C_2
REMARK    2  A    between atoms: C_2  and  C_3
REMARK    3  A    between atoms: C_6  and  C_9
REMARK    4  A    between atoms: C_24  and  C_26
REMARK    5  A    between atoms: C_26  and  N_27
REMARK                            x       y       z     vdW  Elec       q    Type
REMARK                         _______ _______ _______ _____ _____    ______ ____
ROOT
ATOM      1  C   UNL     1      -5.419  -2.005   0.043  0.00  0.00    +0.133 C 
ATOM      2  C   UNL     1      -6.404  -0.839  -0.092  0.00  0.00    +0.131 C 
ATOM      3  C   UNL     1      -6.277  -0.325  -1.520  0.00  0.00    -0.035 C 
ATOM      4  C   UNL     1      -5.988   0.968  -1.429  0.00  0.00    -0.001 A 
ATOM      5  C   UNL     1      -5.815   2.007  -2.457  0.00  0.00    +0.010 A 
ATOM      6  C   UNL     1      -5.505   3.252  -2.005  0.00  0.00    +0.001 A 
ATOM      7  C   UNL     1      -5.352   3.561  -0.650  0.00  0.00    +0.002 A 
ATOM      8  C   UNL     1      -5.496   2.669   0.362  0.00  0.00    +0.026 A 
ATOM      9  C   UNL     1      -5.827   1.328   0.012  0.00  0.00    +0.043 A 
ATOM     10  N   UNL     1      -6.049   0.279   0.785  0.00  0.00    -0.375 N 
ATOM     11  C   UNL     1      -6.397  -1.231  -2.721  0.00  0.00    +0.052 C 
ATOM     12  C   UNL     1      -5.451  -2.420  -2.475  0.00  0.00    +0.113 C 
ATOM     13  N   UNL     1      -5.625  -2.906  -1.101  0.00  0.00    -0.290 N 
ATOM     14  C   UNL     1      -5.979  -4.189  -0.885  0.00  0.00    +0.238 C 
ATOM     15  O   UNL     1      -6.125  -4.595   0.248  0.00  0.00    -0.274 OA
ATOM     16  H   UNL     1      -5.985   0.243   1.752  0.00  0.00    +0.160 HD
ENDROOT
BRANCH   1  20
ATOM     17  C   UNL     1      -1.413  -0.522   0.014  0.00  0.00    -0.048 A 
ATOM     18  C   UNL     1      -2.233  -0.319  -1.081  0.00  0.00    +0.004 A 
ATOM     19  C   UNL     1      -3.530  -0.799  -1.071  0.00  0.00    +0.006 A 
ATOM     20  C   UNL     1      -4.006  -1.482   0.032  0.00  0.00    -0.025 A 
ATOM     21  C   UNL     1      -3.185  -1.685   1.126  0.00  0.00    +0.006 A 
ATOM     22  C   UNL     1      -1.888  -1.209   1.115  0.00  0.00    +0.004 A 
BRANCH  17  24
ATOM     23  C   UNL     1       0.933  -1.062  -0.578  0.00  0.00    +0.009 C 
ATOM     24  C   UNL     1      -0.000   0.002   0.003  0.00  0.00    +0.032 C 
ENDBRANCH  17  24
ENDBRANCH   1  20
BRANCH  14  25
ATOM     25  C   UNL     1      -6.192  -5.118  -2.053  0.00  0.00    +0.241 C 
BRANCH  25  26
ATOM     26  N   UNL     1      -6.566  -6.445  -1.558  0.00  0.00    -0.243 N 
ATOM     27  C   UNL     1      -7.657  -7.154  -1.898  0.00  0.00    +0.219 A 
ATOM     28  N   UNL     1      -7.628  -8.285  -1.241  0.00  0.00    -0.223 NA
ATOM     29  C   UNL     1      -6.539  -8.334  -0.475  0.00  0.00    +0.245 A 
ATOM     30  N   UNL     1      -5.854  -7.233  -0.638  0.00  0.00    -0.158 NA
ENDBRANCH  25  26
ENDBRANCH  14  25
TORSDOF 4
