REMARK  Name = ZINC39952991
REMARK  8 active torsions:
REMARK  status: ('A' for Active; 'I' for Inactive)
REMARK    1  A    between atoms: C_1  and  C_2
REMARK    2  A    between atoms: C_2  and  C_3
REMARK    3  A    between atoms: C_2  and  C_4
REMARK    4  A    between atoms: C_4  and  C_5
REMARK    5  A    between atoms: C_7  and  C_11
REMARK    6  A    between atoms: C_19  and  C_21
REMARK    7  A    between atoms: C_21  and  O_22
REMARK    8  A    between atoms: O_22  and  C_23
REMARK                            x       y       z     vdW  Elec       q    Type
REMARK                         _______ _______ _______ _____ _____    ______ ____
ROOT
ATOM      1  C   UNL     1      -0.180  -5.030   0.698  0.00  0.00    +0.206 C 
ATOM      2  N   UNL     1       1.050  -4.322   0.270  0.00  0.00    -0.231 NA
ATOM      3  N   UNL     1       1.715  -5.193  -0.715  0.00  0.00    -0.224 NA
ATOM      4  C   UNL     1       0.601  -6.009  -1.237  0.00  0.00    +0.240 C 
ATOM      5  N   UNL     1      -0.131  -6.350   0.028  0.00  0.00    -0.206 N 
ATOM      6  N   UNL     1      -0.406  -7.693   0.166  0.00  0.00    -0.175 NA
ATOM      7  C   UNL     1       0.144  -8.608  -0.562  0.00  0.00    +0.132 C 
ATOM      8  S   UNL     1       1.165  -7.675  -1.748  0.00  0.00    -0.064 S 
ATOM      9  H   UNL     1       1.655  -4.139   1.057  0.00  0.00    +0.143 HD
ATOM     10  H   UNL     1       2.412  -5.773  -0.272  0.00  0.00    +0.144 HD
ENDROOT
BRANCH   1  13
ATOM     11  C   UNL     1      -1.416  -2.035  -0.119  0.00  0.00    +0.062 C 
ATOM     12  C   UNL     1      -1.465  -2.886   0.907  0.00  0.00    +0.029 C 
ATOM     13  C   UNL     1      -1.420  -4.254   0.250  0.00  0.00    +0.190 C 
ATOM     14  N   UNL     1      -1.346  -3.930  -1.185  0.00  0.00    -0.177 NA
ATOM     15  N   UNL     1      -1.355  -2.701  -1.293  0.00  0.00    -0.159 NA
BRANCH  11  16
ATOM     16  C   UNL     1      -1.433  -0.534   0.013  0.00  0.00    +0.060 C 
BRANCH  16  18
ATOM     17  C   UNL     1      -0.019   1.526   0.010  0.00  0.00    +0.007 C 
ATOM     18  C   UNL     1       0.002  -0.004   0.002  0.00  0.00    -0.011 C 
ATOM     19  C   UNL     1       0.742  -0.511   1.242  0.00  0.00    +0.007 C 
ENDBRANCH  16  18
ENDBRANCH  11  16
ENDBRANCH   1  13
BRANCH   7  20
ATOM     20  C   UNL     1      -0.027 -10.102  -0.462  0.00  0.00    +0.293 C 
BRANCH  20  21
ATOM     21  O   UNL     1      -0.930 -10.408   0.602  0.00  0.00    -0.485 OA
BRANCH  21  22
ATOM     22  C   UNL     1      -1.195 -11.720   0.828  0.00  0.00    +0.129 A 
ATOM     23  C   UNL     1      -0.605 -12.684   0.058  0.00  0.00    +0.046 A 
ATOM     24  C   UNL     1      -0.867 -14.033   0.277  0.00  0.00    +0.004 A 
ATOM     25  C   UNL     1      -1.716 -14.434   1.263  0.00  0.00    +0.009 A 
ATOM     26  C   UNL     1      -2.343 -13.474   2.076  0.00  0.00    -0.014 A 
ATOM     27  C   UNL     1      -2.076 -12.099   1.861  0.00  0.00    +0.024 A 
ATOM     28  C   UNL     1      -2.699 -11.141   2.677  0.00  0.00    +0.012 A 
ATOM     29  C   UNL     1      -3.544 -11.543   3.665  0.00  0.00    +0.001 A 
ATOM     30  C   UNL     1      -3.803 -12.896   3.880  0.00  0.00    +0.001 A 
ATOM     31  C   UNL     1      -3.226 -13.852   3.102  0.00  0.00    +0.008 A 
ENDBRANCH  21  22
ENDBRANCH  20  21
ENDBRANCH   7  20
TORSDOF 6
