REMARK  Name = ZINC13277076
REMARK  4 active torsions:
REMARK  status: ('A' for Active; 'I' for Inactive)
REMARK    1  A    between atoms: C_1  and  C_2
REMARK    2  A    between atoms: N_5  and  C_8
REMARK    3  A    between atoms: N_11  and  C_16
REMARK    4  A    between atoms: C_19  and  C_22
REMARK                            x       y       z     vdW  Elec       q    Type
REMARK                         _______ _______ _______ _____ _____    ______ ____
ROOT
ATOM      1  C   UNL     1      -7.350   5.264   0.066  0.00  0.00    +0.074 A 
ATOM      2  C   UNL     1      -7.289   3.854   0.050  0.00  0.00    +0.158 A 
ATOM      3  N   UNL     1      -6.137   3.244   0.044  0.00  0.00    -0.170 NA
ATOM      4  N   UNL     1      -4.939   3.965   0.051  0.00  0.00    -0.195 N 
ATOM      5  C   UNL     1      -4.950   5.313   0.070  0.00  0.00    +0.292 A 
ATOM      6  O   UNL     1      -3.900   5.936   0.082  0.00  0.00    -0.264 OA
ATOM      7  C   UNL     1      -6.176   5.995   0.073  0.00  0.00    +0.129 A 
ATOM      8 CL   UNL     1      -6.218   7.730   0.093  0.00  0.00    -0.076 Cl
ENDROOT
BRANCH   1  13
ATOM      9  C   UNL     1     -12.704   7.015   0.057  0.00  0.00    +0.007 C 
ATOM     10  C   UNL     1     -11.454   6.133   0.041  0.00  0.00    -0.011 C 
ATOM     11  C   UNL     1     -10.636   6.382   1.311  0.00  0.00    +0.022 C 
ATOM     12  C   UNL     1      -9.357   5.543   1.261  0.00  0.00    +0.105 C 
ATOM     13  N   UNL     1      -8.575   5.910   0.073  0.00  0.00    -0.327 N 
ATOM     14  C   UNL     1      -9.323   5.635  -1.160  0.00  0.00    +0.105 C 
ATOM     15  C   UNL     1     -10.601   6.477  -1.183  0.00  0.00    +0.022 C 
ENDBRANCH   1  13
BRANCH   4  16
ATOM     16  C   UNL     1      -3.721   3.284   0.044  0.00  0.00    +0.069 A 
ATOM     17  C   UNL     1      -3.505   2.257  -0.870  0.00  0.00    +0.029 A 
ATOM     18  C   UNL     1      -2.305   1.583  -0.880  0.00  0.00    +0.017 A 
ATOM     19  C   UNL     1      -1.302   1.931   0.029  0.00  0.00    +0.063 A 
ATOM     20  C   UNL     1      -1.524   2.960   0.949  0.00  0.00    +0.017 A 
ATOM     21  C   UNL     1      -2.725   3.633   0.950  0.00  0.00    +0.029 A 
BRANCH  19  22
ATOM     22  C   UNL     1      -0.015   1.210   0.022  0.00  0.00    +0.387 C 
ATOM     23  O   UNL     1       0.175   0.313  -0.775  0.00  0.00    -0.241 OA
ATOM     24  O   UNL     1       0.953   1.551   0.895  0.00  0.00    -0.241 OA
ENDBRANCH  19  22
ENDBRANCH   4  16
TORSDOF 3
