REMARK  Name = ZINC38856767
REMARK  11 active torsions:
REMARK  status: ('A' for Active; 'I' for Inactive)
REMARK    1  A    between atoms: C_1  and  C_2
REMARK    2  A    between atoms: C_2  and  C_3
REMARK    3  A    between atoms: C_2  and  C_4
REMARK    4  A    between atoms: C_9  and  N_10
REMARK    5  A    between atoms: C_11  and  C_13
REMARK    6  A    between atoms: N_16  and  S_28
REMARK    7  A    between atoms: C_19  and  C_24
REMARK    8  A    between atoms: C_24  and  C_25
REMARK    9  A    between atoms: C_24  and  C_26
REMARK   10  A    between atoms: C_24  and  C_27
REMARK   11  A    between atoms: S_28  and  C_31
REMARK                            x       y       z     vdW  Elec       q    Type
REMARK                         _______ _______ _______ _____ _____    ______ ____
ROOT
ATOM      1  C   UNL     1      -0.460  -2.440  -4.365  0.00  0.00    +0.278 C 
ATOM      2  C   UNL     1       0.098  -1.125  -4.929  0.00  0.00    +0.185 C 
ATOM      3  N   UNL     1       0.957  -1.462  -6.077  0.00  0.00    -0.200 N 
ATOM      4  C   UNL     1       0.502  -2.449  -6.966  0.00  0.00    +0.093 A 
ATOM      5  C   UNL     1       1.113  -2.607  -8.200  0.00  0.00    +0.032 A 
ATOM      6  C   UNL     1       0.664  -3.583  -9.070  0.00  0.00    -0.040 A 
ATOM      7  C   UNL     1      -0.392  -4.399  -8.710  0.00  0.00    +0.008 A 
ATOM      8  C   UNL     1      -1.006  -4.245  -7.481  0.00  0.00    +0.048 A 
ATOM      9  C   UNL     1      -0.563  -3.268  -6.602  0.00  0.00    +0.144 A 
ATOM     10  O   UNL     1      -1.177  -3.120  -5.397  0.00  0.00    -0.476 OA
ENDROOT
BRANCH   1  12
ATOM     11  N   UNL     1      -0.907  -1.589  -2.086  0.00  0.00    -0.282 N 
ATOM     12  C   UNL     1      -1.388  -2.143  -3.216  0.00  0.00    +0.260 C 
ATOM     13  O   UNL     1      -2.569  -2.403  -3.308  0.00  0.00    -0.271 OA
ATOM     14  H   UNL     1       0.026  -1.327  -2.034  0.00  0.00    +0.155 HD
BRANCH  11  20
ATOM     15  C   UNL     1      -1.228  -1.368   0.298  0.00  0.00    -0.024 A 
ATOM     16  C   UNL     1      -2.063  -1.168   1.379  0.00  0.00    +0.006 A 
ATOM     17  C   UNL     1      -3.421  -0.997   1.183  0.00  0.00    +0.000 A 
ATOM     18  C   UNL     1      -3.947  -1.025  -0.096  0.00  0.00    +0.002 A 
ATOM     19  C   UNL     1      -3.117  -1.224  -1.182  0.00  0.00    +0.023 A 
ATOM     20  C   UNL     1      -1.751  -1.392  -0.988  0.00  0.00    +0.037 A 
BRANCH  15  22
ATOM     21  C   UNL     1       0.850  -0.270   1.090  0.00  0.00    +0.012 C 
ATOM     22  C   UNL     1       0.252  -1.555   0.513  0.00  0.00    +0.015 C 
ATOM     23  C   UNL     1       0.484  -2.709   1.490  0.00  0.00    +0.012 C 
ENDBRANCH  15  22
ENDBRANCH  11  20
ENDBRANCH   1  12
BRANCH   6  24
ATOM     24  C   UNL     1       1.326  -3.757 -10.413  0.00  0.00    -0.013 C 
ATOM     25  C   UNL     1       2.805  -4.093 -10.212  0.00  0.00    +0.015 C 
ATOM     26  C   UNL     1       0.643  -4.894 -11.175  0.00  0.00    +0.015 C 
ATOM     27  C   UNL     1       1.202  -2.459 -11.214  0.00  0.00    +0.015 C 
ENDBRANCH   6  24
BRANCH   3  28
ATOM     28  S   UNL     1       2.410  -0.703  -6.310  0.00  0.00    +0.043 S 
ATOM     29  O   UNL     1       2.728  -0.131  -5.049  0.00  0.00    -0.155 OA
ATOM     30  O   UNL     1       3.249  -1.694  -6.888  0.00  0.00    -0.155 OA
ATOM     31  C   UNL     1       2.064   0.604  -7.520  0.00  0.00    +0.218 C 
ENDBRANCH   3  28
TORSDOF 5
