REMARK  Name = ZINC33513646
REMARK  9 active torsions:
REMARK  status: ('A' for Active; 'I' for Inactive)
REMARK    1  A    between atoms: C_1  and  C_2
REMARK    2  A    between atoms: C_3  and  C_25
REMARK    3  A    between atoms: C_4  and  C_17
REMARK    4  A    between atoms: N_8  and  C_15
REMARK    5  A    between atoms: N_11  and  C_14
REMARK    6  A    between atoms: C_25  and  O_27
REMARK    7  A    between atoms: O_27  and  C_28
REMARK    8  A    between atoms: C_28  and  C_29
REMARK    9  A    between atoms: C_28  and  C_30
REMARK                            x       y       z     vdW  Elec       q    Type
REMARK                         _______ _______ _______ _____ _____    ______ ____
ROOT
ATOM      1  C   UNL     1       3.819   1.903   0.294  0.00  0.00    +0.061 C 
ATOM      2  C   UNL     1       2.441   1.294   0.310  0.00  0.00    +0.017 C 
ATOM      3  C   UNL     1       1.377   2.053  -0.000  0.00  0.00    +0.065 C 
ATOM      4  C   UNL     1      -0.018   1.499   0.010  0.00  0.00    +0.096 C 
ATOM      5  C   UNL     1       0.002  -0.004   0.002  0.00  0.00    +0.067 A 
ATOM      6  C   UNL     1       1.134  -0.694   0.317  0.00  0.00    +0.116 A 
ATOM      7  N   UNL     1       1.116  -2.068   0.305  0.00  0.00    -0.284 N 
ATOM      8  C   UNL     1      -0.010  -2.730  -0.019  0.00  0.00    +0.333 A 
ATOM      9  O   UNL     1      -0.009  -3.946  -0.025  0.00  0.00    -0.246 OA
ATOM     10  N   UNL     1      -1.137  -2.066  -0.336  0.00  0.00    -0.264 N 
ATOM     11  C   UNL     1      -1.162  -0.719  -0.334  0.00  0.00    +0.262 A 
ATOM     12  O   UNL     1      -2.186  -0.124  -0.622  0.00  0.00    -0.267 OA
ATOM     13  C   UNL     1      -2.346  -2.815  -0.687  0.00  0.00    +0.157 C 
ATOM     14  C   UNL     1       2.328  -2.816   0.646  0.00  0.00    +0.155 C 
ATOM     15  N   UNL     1       2.290  -0.025   0.640  0.00  0.00    -0.303 N 
ATOM     16  H   UNL     1       3.097  -0.556   1.167  0.00  0.00    +0.153 HD
ENDROOT
BRANCH   4  17
ATOM     17  C   UNL     1      -0.733   1.978   1.248  0.00  0.00    -0.034 A 
ATOM     18  C   UNL     1      -1.870   2.756   1.132  0.00  0.00    +0.006 A 
ATOM     19  C   UNL     1      -2.526   3.195   2.266  0.00  0.00    +0.022 A 
ATOM     20  C   UNL     1      -2.045   2.857   3.518  0.00  0.00    +0.059 A 
ATOM     21  C   UNL     1      -0.906   2.078   3.634  0.00  0.00    +0.060 A 
ATOM     22  C   UNL     1      -0.254   1.634   2.498  0.00  0.00    +0.026 A 
ATOM     23 CL   UNL     1      -0.302   1.653   5.205  0.00  0.00    -0.082 Cl
ATOM     24 CL   UNL     1      -2.868   3.410   4.943  0.00  0.00    -0.082 Cl
ENDBRANCH   4  17
BRANCH   3  25
ATOM     25  C   UNL     1       1.576   3.410  -0.344  0.00  0.00    +0.338 C 
ATOM     26  O   UNL     1       2.701   3.876  -0.358  0.00  0.00    -0.245 OA
BRANCH  25  27
ATOM     27  O   UNL     1       0.520   4.189  -0.658  0.00  0.00    -0.459 OA
BRANCH  27  28
ATOM     28  C   UNL     1       0.795   5.550  -0.996  0.00  0.00    +0.171 C 
ATOM     29  C   UNL     1      -0.258   6.052  -1.986  0.00  0.00    +0.052 C 
ATOM     30  C   UNL     1       0.755   6.408   0.270  0.00  0.00    +0.052 C 
ENDBRANCH  27  28
ENDBRANCH  25  27
ENDBRANCH   3  25
TORSDOF 4
