REMARK  Name = ZINC66899115
REMARK  7 active torsions:
REMARK  status: ('A' for Active; 'I' for Inactive)
REMARK    1  A    between atoms: C_1  and  C_2
REMARK    2  A    between atoms: C_5  and  C_7
REMARK    3  A    between atoms: C_7  and  N_8
REMARK    4  A    between atoms: C_9  and  N_13
REMARK    5  A    between atoms: C_14  and  C_16
REMARK    6  A    between atoms: C_23  and  S_25
REMARK    7  A    between atoms: S_25  and  C_28
REMARK                            x       y       z     vdW  Elec       q    Type
REMARK                         _______ _______ _______ _____ _____    ______ ____
ROOT
ATOM      1  N   UNL     1       0.160  -5.224  -1.766  0.00  0.00    -0.265 N 
ATOM      2  C   UNL     1      -0.436  -6.074  -2.625  0.00  0.00    +0.270 C 
ATOM      3  O   UNL     1       0.011  -6.216  -3.750  0.00  0.00    -0.268 OA
ATOM      4  H   UNL     1      -0.196  -5.111  -0.871  0.00  0.00    +0.157 HD
ENDROOT
BRANCH   2   5
ATOM      5  C   UNL     1      -1.618  -6.827  -2.208  0.00  0.00    +0.153 A 
ATOM      6  C   UNL     1      -2.337  -7.747  -2.983  0.00  0.00    +0.080 A 
ATOM      7  C   UNL     1      -2.199  -8.223  -4.294  0.00  0.00    +0.028 A 
ATOM      8  C   UNL     1      -3.088  -9.142  -4.766  0.00  0.00    +0.004 A 
ATOM      9  C   UNL     1      -4.124  -9.594  -3.933  0.00  0.00    +0.018 A 
ATOM     10  C   UNL     1      -4.243  -9.124  -2.672  0.00  0.00    +0.094 A 
ATOM     11  N   UNL     1      -3.358  -8.204  -2.188  0.00  0.00    -0.284 N 
ATOM     12  C   UNL     1      -3.244  -7.575  -0.985  0.00  0.00    +0.256 A 
ATOM     13  N   UNL     1      -2.219  -6.773  -1.001  0.00  0.00    -0.206 NA
BRANCH  12  14
ATOM     14  S   UNL     1      -4.320  -7.816   0.390  0.00  0.00    +0.028 S 
ATOM     15  O   UNL     1      -4.240  -6.604   1.129  0.00  0.00    -0.167 OA
ATOM     16  O   UNL     1      -5.551  -8.235  -0.181  0.00  0.00    -0.167 OA
ATOM     17  C   UNL     1      -3.574  -9.174   1.334  0.00  0.00    +0.204 C 
ENDBRANCH  12  14
ENDBRANCH   2   5
BRANCH   1  19
ATOM     18  N   UNL     1       1.983  -3.620  -1.407  0.00  0.00    -0.243 N 
ATOM     19  C   UNL     1       1.286  -4.506  -2.164  0.00  0.00    +0.124 A 
ATOM     20  C   UNL     1       1.890  -4.565  -3.383  0.00  0.00    +0.065 A 
ATOM     21  C   UNL     1       2.981  -3.692  -3.364  0.00  0.00    +0.136 A 
ATOM     22  N   UNL     1       3.034  -3.123  -2.188  0.00  0.00    -0.178 NA
BRANCH  18  23
ATOM     23  C   UNL     1       1.684  -3.245  -0.023  0.00  0.00    +0.219 C 
BRANCH  23  28
ATOM     24  C   UNL     1      -0.018   1.503   0.010  0.00  0.00    +0.086 C 
ATOM     25  C   UNL     1       0.002  -0.004   0.002  0.00  0.00    +0.102 A 
ATOM     26  C   UNL     1      -1.078  -0.805   0.003  0.00  0.00    +0.045 A 
ATOM     27  C   UNL     1      -0.601  -2.136  -0.007  0.00  0.00    +0.047 A 
ATOM     28  C   UNL     1       0.742  -2.069  -0.013  0.00  0.00    +0.127 A 
ATOM     29  O   UNL     1       1.102  -0.775  -0.013  0.00  0.00    -0.463 OA
ENDBRANCH  23  28
ENDBRANCH  18  23
ENDBRANCH   1  19
TORSDOF 5
