REMARK  Name = ZINC64890847
REMARK  5 active torsions:
REMARK  status: ('A' for Active; 'I' for Inactive)
REMARK    1  A    between atoms: C_1  and  C_2
REMARK    2  A    between atoms: C_2  and  C_3
REMARK    3  A    between atoms: C_3  and  N_4
REMARK    4  A    between atoms: C_8  and  C_17
REMARK    5  A    between atoms: C_19  and  C_22
REMARK                            x       y       z     vdW  Elec       q    Type
REMARK                         _______ _______ _______ _____ _____    ______ ____
ROOT
ATOM      1  N   UNL     1       0.738  -1.962  -1.265  0.00  0.00    -0.302 N 
ATOM      2  C   UNL     1       1.794  -2.645  -0.671  0.00  0.00    +0.068 A 
ATOM      3  C   UNL     1       2.826  -1.927  -0.072  0.00  0.00    +0.028 A 
ATOM      4  C   UNL     1       3.878  -2.590   0.520  0.00  0.00    +0.014 A 
ATOM      5  C   UNL     1       3.915  -3.985   0.522  0.00  0.00    +0.025 A 
ATOM      6  C   UNL     1       2.887  -4.709  -0.074  0.00  0.00    +0.039 A 
ATOM      7  C   UNL     1       1.826  -4.042  -0.671  0.00  0.00    +0.067 A 
ATOM      8  N   UNL     1       0.801  -4.774  -1.265  0.00  0.00    -0.316 N 
ATOM      9  H   UNL     1       0.832  -5.743  -1.259  0.00  0.00    +0.169 HD
ATOM     10  C   UNL     1      -0.234  -4.137  -1.848  0.00  0.00    +0.314 A 
ATOM     11  O   UNL     1      -1.131  -4.770  -2.368  0.00  0.00    -0.262 OA
ATOM     12  C   UNL     1      -0.270  -2.646  -1.843  0.00  0.00    +0.316 A 
ATOM     13  O   UNL     1      -1.197  -2.053  -2.358  0.00  0.00    -0.262 OA
ENDROOT
BRANCH   5  14
ATOM     14  C   UNL     1       5.050  -4.696   1.160  0.00  0.00    +0.202 A 
ATOM     15  N   UNL     1       6.094  -4.112   1.770  0.00  0.00    -0.187 NA
ATOM     16  C   UNL     1       6.916  -5.029   2.224  0.00  0.00    +0.259 A 
ATOM     17  O   UNL     1       6.414  -6.236   1.914  0.00  0.00    -0.332 OA
ATOM     18  N   UNL     1       5.195  -5.997   1.226  0.00  0.00    -0.056 NA
BRANCH  16  19
ATOM     19  C   UNL     1       8.178  -4.776   2.952  0.00  0.00    +0.040 A 
ATOM     20  C   UNL     1       8.585  -3.467   3.215  0.00  0.00    +0.014 A 
ATOM     21  C   UNL     1       9.764  -3.238   3.894  0.00  0.00    +0.016 A 
ATOM     22  C   UNL     1      10.542  -4.303   4.315  0.00  0.00    +0.018 A 
ATOM     23  C   UNL     1      10.143  -5.604   4.057  0.00  0.00    +0.016 A 
ATOM     24  C   UNL     1       8.964  -5.846   3.383  0.00  0.00    +0.014 A 
ATOM     25 BR   UNL     1      12.157  -3.981   5.245  0.00  0.00    -0.050 Br
ENDBRANCH  16  19
ENDBRANCH   5  14
BRANCH   1  26
ATOM     26  C   UNL     1       0.718  -0.497  -1.257  0.00  0.00    +0.125 C 
BRANCH  26  28
ATOM     27  C   UNL     1      -0.019   1.526   0.010  0.00  0.00    +0.005 C 
ATOM     28  C   UNL     1       0.002  -0.004   0.002  0.00  0.00    +0.018 C 
ENDBRANCH  26  28
ENDBRANCH   1  26
TORSDOF 4
