REMARK  Name = ZINC09786790
REMARK  6 active torsions:
REMARK  status: ('A' for Active; 'I' for Inactive)
REMARK    1  A    between atoms: C_1  and  C_2
REMARK    2  A    between atoms: C_3  and  N_9
REMARK    3  A    between atoms: C_10  and  C_12
REMARK    4  A    between atoms: C_12  and  C_13
REMARK    5  A    between atoms: N_21  and  C_22
REMARK    6  A    between atoms: C_22  and  C_23
REMARK                            x       y       z     vdW  Elec       q    Type
REMARK                         _______ _______ _______ _____ _____    ______ ____
ROOT
ATOM      1  C   UNL     1       4.709  -4.207   0.250  0.00  0.00    +0.059 A 
ATOM      2  C   UNL     1       5.285  -5.065  -0.627  0.00  0.00    +0.072 A 
ATOM      3  S   UNL     1       4.642  -6.624  -0.037  0.00  0.00    -0.060 S 
ATOM      4  C   UNL     1       3.699  -5.997   1.279  0.00  0.00    +0.166 A 
ATOM      5  N   UNL     1       3.928  -4.701   1.191  0.00  0.00    -0.229 NA
ATOM      6  N   UNL     1       2.909  -6.684   2.193  0.00  0.00    -0.248 N 
ATOM      7  C   UNL     1       2.805  -8.026   2.119  0.00  0.00    +0.306 C 
ATOM      8  O   UNL     1       3.403  -8.635   1.253  0.00  0.00    -0.252 OA
ATOM      9  N   UNL     1       2.040  -8.692   3.006  0.00  0.00    -0.296 N 
ATOM     10  H   UNL     1       2.432  -6.198   2.884  0.00  0.00    +0.158 HD
ATOM     11  H   UNL     1       1.563  -8.206   3.697  0.00  0.00    +0.151 HD
ENDROOT
BRANCH   1  12
ATOM     12  C   UNL     1       4.960  -2.724   0.156  0.00  0.00    +0.152 C 
BRANCH  12  14
ATOM     13  N   UNL     1       3.622  -0.653  -0.036  0.00  0.00    -0.285 N 
ATOM     14  C   UNL     1       3.643  -1.997   0.059  0.00  0.00    +0.223 C 
ATOM     15  O   UNL     1       2.604  -2.622   0.065  0.00  0.00    -0.275 OA
ATOM     16  H   UNL     1       4.453  -0.158  -0.107  0.00  0.00    +0.155 HD
BRANCH  13  19
ATOM     17  C   UNL     1       3.510   1.897   1.222  0.00  0.00    +0.047 C 
ATOM     18  C   UNL     1       2.301   1.276   0.571  0.00  0.00    -0.011 A 
ATOM     19  C   UNL     1       2.400   0.029  -0.031  0.00  0.00    +0.038 A 
ATOM     20  C   UNL     1       1.283  -0.540  -0.629  0.00  0.00    +0.023 A 
ATOM     21  C   UNL     1       0.078   0.135  -0.623  0.00  0.00    +0.003 A 
ATOM     22  C   UNL     1      -0.018   1.376  -0.023  0.00  0.00    +0.020 A 
ATOM     23  C   UNL     1       1.093   1.947   0.574  0.00  0.00    +0.046 A 
ATOM     24 CL   UNL     1       0.968   3.506   1.327  0.00  0.00    -0.083 Cl
ENDBRANCH  13  19
ENDBRANCH  12  14
ENDBRANCH   1  12
BRANCH   9  25
ATOM     25  C   UNL     1       1.927 -10.151   2.926  0.00  0.00    +0.132 C 
BRANCH  25  26
ATOM     26  C   UNL     1       1.020 -10.646   4.022  0.00  0.00    -0.016 C 
ATOM     27  C   UNL     1      -0.021 -11.385   3.728  0.00  0.00    +0.005 C 
ENDBRANCH  25  26
ENDBRANCH   9  25
TORSDOF 5
