REMARK  Name = ZINC59389621
REMARK  8 active torsions:
REMARK  status: ('A' for Active; 'I' for Inactive)
REMARK    1  A    between atoms: C_1  and  C_2
REMARK    2  A    between atoms: C_2  and  C_4
REMARK    3  A    between atoms: C_2  and  N_11
REMARK    4  A    between atoms: N_11  and  C_12
REMARK    5  A    between atoms: N_11  and  C_13
REMARK    6  A    between atoms: C_13  and  C_14
REMARK    7  A    between atoms: C_17  and  C_27
REMARK    8  A    between atoms: C_20  and  C_22
REMARK                            x       y       z     vdW  Elec       q    Type
REMARK                         _______ _______ _______ _____ _____    ______ ____
ROOT
ATOM      1  C   UNL     1       0.820  -0.412   3.618  0.00  0.00    +0.219 C 
ATOM      2  O   UNL     1       1.858  -1.027   3.492  0.00  0.00    -0.276 OA
ATOM      3  N   UNL     1       0.379  -0.081   4.848  0.00  0.00    -0.184 N 
ATOM      4  C   UNL     1       1.057  -0.397   6.115  0.00  0.00    +0.173 C 
ATOM      5  C   UNL     1       0.128   0.207   7.185  0.00  0.00    +0.093 C 
ATOM      6  C   UNL     1      -1.003   0.815   6.386  0.00  0.00    +0.104 C 
ATOM      7  N   UNL     1      -0.792   0.622   5.127  0.00  0.00    -0.178 NA
ENDROOT
BRANCH   6   8
ATOM      8  C   UNL     1      -2.157   1.519   6.953  0.00  0.00    +0.150 A 
ATOM      9  C   UNL     1      -3.188   2.067   6.246  0.00  0.00    +0.051 A 
ATOM     10  C   UNL     1      -4.066   2.636   7.187  0.00  0.00    +0.042 A 
ATOM     11  C   UNL     1      -3.539   2.412   8.408  0.00  0.00    +0.196 A 
ATOM     12  O   UNL     1      -2.390   1.732   8.264  0.00  0.00    -0.462 OA
ENDBRANCH   6   8
BRANCH   4  13
ATOM     13  C   UNL     1       1.177  -1.889   6.293  0.00  0.00    +0.128 A 
ATOM     14  C   UNL     1       2.233  -2.536   6.819  0.00  0.00    +0.046 A 
ATOM     15  C   UNL     1       1.921  -3.915   6.796  0.00  0.00    +0.041 A 
ATOM     16  C   UNL     1       0.694  -4.028   6.257  0.00  0.00    +0.195 A 
ATOM     17  O   UNL     1       0.246  -2.797   5.960  0.00  0.00    -0.466 OA
ENDBRANCH   4  13
BRANCH   1  18
ATOM     18  C   UNL     1       0.025  -0.017   2.401  0.00  0.00    +0.021 C 
BRANCH  18  19
ATOM     19  N   UNL     1       0.713  -0.491   1.192  0.00  0.00    +0.388 N 
ATOM     20  C   UNL     1       0.733  -1.960   1.184  0.00  0.00    -0.095 C 
ATOM     21  H   UNL     1       1.659  -0.141   1.185  0.00  0.00    -0.081 HD
BRANCH  19  23
ATOM     22  C   UNL     1      -0.019   1.526   0.010  0.00  0.00    -0.008 C 
ATOM     23  C   UNL     1       0.002  -0.004   0.002  0.00  0.00    -0.039 C 
BRANCH  23  24
ATOM     24  C   UNL     1       0.707  -0.490  -1.238  0.00  0.00    -0.043 A 
ATOM     25  C   UNL     1       2.024  -0.904  -1.167  0.00  0.00    +0.003 A 
ATOM     26  C   UNL     1       2.671  -1.350  -2.304  0.00  0.00    +0.000 A 
ATOM     27  C   UNL     1       2.002  -1.382  -3.513  0.00  0.00    +0.001 A 
ATOM     28  C   UNL     1       0.686  -0.968  -3.586  0.00  0.00    +0.020 A 
ATOM     29  C   UNL     1       0.035  -0.527  -2.446  0.00  0.00    +0.043 A 
ATOM     30 CL   UNL     1      -1.620  -0.013  -2.535  0.00  0.00    -0.083 Cl
ENDBRANCH  23  24
ENDBRANCH  19  23
ENDBRANCH  18  19
ENDBRANCH   1  18
TORSDOF 6
