REMARK  Name = ZINC61594935
REMARK  9 active torsions:
REMARK  status: ('A' for Active; 'I' for Inactive)
REMARK    1  A    between atoms: C_1  and  C_2
REMARK    2  A    between atoms: C_2  and  C_3
REMARK    3  A    between atoms: C_3  and  N_4
REMARK    4  A    between atoms: C_10  and  S_11
REMARK    5  A    between atoms: S_11  and  C_12
REMARK    6  A    between atoms: C_12  and  C_14
REMARK    7  A    between atoms: C_12  and  C_20
REMARK    8  A    between atoms: C_20  and  C_22
REMARK    9  A    between atoms: C_20  and  N_23
REMARK                            x       y       z     vdW  Elec       q    Type
REMARK                         _______ _______ _______ _____ _____    ______ ____
ROOT
ATOM      1  C   UNL     1      -2.341  -3.938  -3.074  0.00  0.00    +0.076 C 
ENDROOT
BRANCH   1   2
ATOM      2  C   UNL     1      -3.709  -3.599  -3.608  0.00  0.00    +0.003 A 
ATOM      3  C   UNL     1      -4.915  -4.105  -3.250  0.00  0.00    +0.013 A 
ATOM      4  C   UNL     1      -6.052  -3.639  -3.883  0.00  0.00    +0.023 A 
ATOM      5  C   UNL     1      -5.928  -2.689  -4.843  0.00  0.00    +0.055 A 
ATOM      6  S   UNL     1      -4.163  -2.420  -4.869  0.00  0.00    -0.085 S 
ATOM      7 BR   UNL     1      -7.274  -1.860  -5.879  0.00  0.00    -0.043 Br
ENDBRANCH   1   2
BRANCH   1   8
ATOM      8  C   UNL     1      -1.464  -4.458  -4.213  0.00  0.00    -0.060 C 
ATOM      9  C   UNL     1      -1.197  -3.328  -5.209  0.00  0.00    -0.013 C 
BRANCH   8  10
ATOM     10  N   UNL     1      -2.153  -5.561  -4.897  0.00  0.00    +0.381 N 
ATOM     11  H   UNL     1      -2.982  -5.209  -5.352  0.00  0.00    -0.090 HD
ATOM     12  H   UNL     1      -1.537  -5.966  -5.587  0.00  0.00    -0.090 HD
ATOM     13  H   UNL     1      -2.412  -6.266  -4.223  0.00  0.00    -0.090 HD
ENDBRANCH   8  10
ENDBRANCH   1   8
BRANCH   1  14
ATOM     14  S   UNL     1      -1.586  -2.451  -2.359  0.00  0.00    -0.079 S 
BRANCH  14  21
ATOM     15  N   UNL     1       0.859  -2.264  -1.012  0.00  0.00    -0.271 N 
ATOM     16  C   UNL     1       1.841  -3.072  -0.565  0.00  0.00    +0.345 A 
ATOM     17  O   UNL     1       2.846  -2.724   0.028  0.00  0.00    -0.245 OA
ATOM     18  N   UNL     1       1.507  -4.338  -0.892  0.00  0.00    -0.226 N 
ATOM     19  H   UNL     1       2.024  -5.136  -0.699  0.00  0.00    +0.194 HD
ATOM     20  N   UNL     1       0.277  -4.287  -1.562  0.00  0.00    -0.145 NA
ATOM     21  C   UNL     1      -0.099  -3.042  -1.620  0.00  0.00    +0.193 A 
BRANCH  15  22
ATOM     22  C   UNL     1       0.817  -0.807  -0.869  0.00  0.00    +0.129 C 
BRANCH  22  24
ATOM     23  C   UNL     1       0.073   1.079   0.592  0.00  0.00    +0.005 C 
ATOM     24  C   UNL     1       0.117  -0.443   0.443  0.00  0.00    +0.018 C 
ENDBRANCH  22  24
ENDBRANCH  15  22
ENDBRANCH  14  21
ENDBRANCH   1  14
TORSDOF 7
