REMARK  Name = ZINC18103237
REMARK  10 active torsions:
REMARK  status: ('A' for Active; 'I' for Inactive)
REMARK    1  A    between atoms: C_1  and  C_2
REMARK    2  A    between atoms: C_6  and  O_9
REMARK    3  A    between atoms: C_7  and  C_8
REMARK    4  A    between atoms: O_9  and  C_10
REMARK    5  A    between atoms: C_10  and  C_12
REMARK    6  A    between atoms: C_10  and  C_13
REMARK    7  A    between atoms: N_15  and  N_16
REMARK    8  A    between atoms: C_17  and  C_19
REMARK    9  A    between atoms: C_19  and  C_20
REMARK   10  A    between atoms: C_23  and  C_25
REMARK                            x       y       z     vdW  Elec       q    Type
REMARK                         _______ _______ _______ _____ _____    ______ ____
ROOT
ATOM      1  N   UNL     1      -2.167  -4.092  -1.166  0.00  0.00    -0.234 N 
ATOM      2  C   UNL     1      -3.265  -4.868  -1.261  0.00  0.00    +0.235 C 
ATOM      3  O   UNL     1      -4.331  -4.463  -0.848  0.00  0.00    -0.274 OA
ATOM      4  H   UNL     1      -1.315  -4.416  -1.496  0.00  0.00    +0.173 HD
ENDROOT
BRANCH   1   7
ATOM      5  C   UNL     1      -1.159  -2.041  -0.497  0.00  0.00    +0.270 C 
ATOM      6  O   UNL     1      -0.093  -2.446  -0.910  0.00  0.00    -0.270 OA
ATOM      7  N   UNL     1      -2.257  -2.817  -0.592  0.00  0.00    -0.231 N 
ATOM      8  H   UNL     1      -3.110  -2.493  -0.261  0.00  0.00    +0.173 HD
BRANCH   5   9
ATOM      9  C   UNL     1      -1.256  -0.671   0.121  0.00  0.00    +0.257 C 
ATOM     10  C   UNL     1      -1.625  -0.803   1.600  0.00  0.00    +0.062 C 
BRANCH   9  11
ATOM     11  O   UNL     1       0.002  -0.004   0.002  0.00  0.00    -0.480 OA
BRANCH  11  17
ATOM     12  C   UNL     1       2.398   4.222  -0.466  0.00  0.00    +0.044 C 
ATOM     13  C   UNL     1       1.130   3.448  -0.214  0.00  0.00    -0.044 A 
ATOM     14  C   UNL     1      -0.054   4.121   0.025  0.00  0.00    +0.004 A 
ATOM     15  C   UNL     1      -1.219   3.414   0.257  0.00  0.00    +0.004 A 
ATOM     16  C   UNL     1      -1.204   2.032   0.244  0.00  0.00    +0.046 A 
ATOM     17  C   UNL     1      -0.016   1.355   0.010  0.00  0.00    +0.125 A 
ATOM     18  C   UNL     1       1.152   2.067  -0.222  0.00  0.00    -0.006 A 
ATOM     19  C   UNL     1       2.443   1.334  -0.482  0.00  0.00    +0.048 C 
ENDBRANCH  11  17
ENDBRANCH   9  11
ENDBRANCH   5   9
ENDBRANCH   1   7
BRANCH   2  20
ATOM     20  C   UNL     1      -3.168  -6.238  -1.879  0.00  0.00    +0.153 C 
BRANCH  20  21
ATOM     21  C   UNL     1      -4.525  -6.894  -1.864  0.00  0.00    +0.058 A 
ATOM     22  C   UNL     1      -5.072  -7.356  -3.020  0.00  0.00    +0.071 A 
ATOM     23  S   UNL     1      -6.623  -8.007  -2.414  0.00  0.00    -0.075 S 
ATOM     24  C   UNL     1      -6.379  -7.586  -0.694  0.00  0.00    +0.109 A 
ATOM     25  N   UNL     1      -5.184  -7.015  -0.735  0.00  0.00    -0.243 NA
BRANCH  24  26
ATOM     26  C   UNL     1      -7.270  -7.815   0.464  0.00  0.00    +0.008 A 
ATOM     27  C   UNL     1      -6.879  -7.408   1.740  0.00  0.00    +0.010 A 
ATOM     28  C   UNL     1      -7.717  -7.619   2.816  0.00  0.00    +0.002 A 
ATOM     29  C   UNL     1      -8.939  -8.242   2.633  0.00  0.00    +0.015 A 
ATOM     30  C   UNL     1      -9.330  -8.654   1.371  0.00  0.00    +0.019 A 
ATOM     31  C   UNL     1      -8.503  -8.443   0.286  0.00  0.00    +0.025 A 
ATOM     32 BR   UNL     1     -11.002  -9.506   1.132  0.00  0.00    -0.050 Br
ENDBRANCH  24  26
ENDBRANCH  20  21
ENDBRANCH   2  20
TORSDOF 7
