REMARK  Name = ZINC49485590
REMARK  7 active torsions:
REMARK  status: ('A' for Active; 'I' for Inactive)
REMARK    1  A    between atoms: C_1  and  C_2
REMARK    2  A    between atoms: C_2  and  O_3
REMARK    3  A    between atoms: O_3  and  C_4
REMARK    4  A    between atoms: C_12  and  C_14
REMARK    5  A    between atoms: C_14  and  N_15
REMARK    6  A    between atoms: C_17  and  C_19
REMARK    7  A    between atoms: C_21  and  C_24
REMARK                            x       y       z     vdW  Elec       q    Type
REMARK                         _______ _______ _______ _____ _____    ______ ____
ROOT
ATOM      1  N   UNL     1       5.007  -5.486  -6.338  0.00  0.00    +0.386 N 
ATOM      2  C   UNL     1       4.123  -5.533  -7.518  0.00  0.00    -0.067 C 
ATOM      3  C   UNL     1       4.971  -6.703  -8.037  0.00  0.00    +0.045 C 
ATOM      4  C   UNL     1       5.270  -6.922  -6.548  0.00  0.00    -0.067 C 
ATOM      5  H   UNL     1       5.822  -4.906  -6.470  0.00  0.00    -0.081 HD
ENDROOT
BRANCH   3   6
ATOM      6  C   UNL     1       4.170  -7.809  -8.675  0.00  0.00    +0.227 A 
ATOM      7  N   UNL     1       4.290  -8.224  -9.904  0.00  0.00    -0.190 NA
ATOM      8  C   UNL     1       3.421  -9.224 -10.139  0.00  0.00    +0.222 A 
ATOM      9  N   UNL     1       2.738  -9.450  -9.045  0.00  0.00    -0.054 NA
ATOM     10  O   UNL     1       3.220  -8.535  -8.073  0.00  0.00    -0.338 OA
BRANCH   8  11
ATOM     11  C   UNL     1       3.264  -9.949 -11.425  0.00  0.00    +0.129 A 
ATOM     12  C   UNL     1       2.319 -10.968 -11.541  0.00  0.00    +0.142 A 
ATOM     13  N   UNL     1       2.182 -11.610 -12.687  0.00  0.00    -0.260 NA
ATOM     14  C   UNL     1       2.940 -11.289 -13.721  0.00  0.00    +0.130 A 
ATOM     15  C   UNL     1       3.879 -10.277 -13.609  0.00  0.00    +0.131 A 
ATOM     16  N   UNL     1       4.019  -9.626 -12.469  0.00  0.00    -0.249 NA
ENDBRANCH   8  11
ENDBRANCH   3   6
BRANCH   1  17
ATOM     17  C   UNL     1       4.295  -5.199  -5.086  0.00  0.00    +0.019 C 
BRANCH  17  26
ATOM     18  C   UNL     1       0.776  -1.798  -1.335  0.00  0.00    +0.403 C 
ATOM     19  O   UNL     1       0.312  -2.549  -0.500  0.00  0.00    -0.226 OA
ATOM     20  N   UNL     1       1.395  -2.298  -2.422  0.00  0.00    -0.264 N 
ATOM     21  C   UNL     1       1.966  -1.402  -3.437  0.00  0.00    +0.130 C 
ATOM     22  C   UNL     1       3.447  -1.754  -3.624  0.00  0.00    +0.127 C 
ATOM     23  N   UNL     1       3.564  -3.206  -3.816  0.00  0.00    -0.300 N 
ATOM     24  C   UNL     1       2.993  -4.103  -2.801  0.00  0.00    +0.127 C 
ATOM     25  C   UNL     1       1.517  -3.751  -2.611  0.00  0.00    +0.130 C 
ATOM     26  C   UNL     1       4.183  -3.707  -4.903  0.00  0.00    +0.199 C 
ATOM     27  O   UNL     1       4.650  -2.957  -5.734  0.00  0.00    -0.278 OA
BRANCH  18  28
ATOM     28  O   UNL     1       0.671  -0.465  -1.174  0.00  0.00    -0.451 OA
BRANCH  28  30
ATOM     29  C   UNL     1      -0.019   1.526   0.010  0.00  0.00    +0.048 C 
ATOM     30  C   UNL     1       0.002  -0.004   0.002  0.00  0.00    +0.230 C 
ENDBRANCH  28  30
ENDBRANCH  18  28
ENDBRANCH  17  26
ENDBRANCH   1  17
TORSDOF 6
