REMARK  Name = ZINC09195190
REMARK  14 active torsions:
REMARK  status: ('A' for Active; 'I' for Inactive)
REMARK    1  A    between atoms: C_1  and  C_2
REMARK    2  A    between atoms: C_2  and  C_3
REMARK    3  A    between atoms: C_2  and  C_4
REMARK    4  A    between atoms: C_7  and  C_10
REMARK    5  A    between atoms: N_12  and  C_13
REMARK    6  A    between atoms: C_13  and  C_15
REMARK    7  A    between atoms: C_13  and  C_18
REMARK    8  A    between atoms: C_15  and  C_16
REMARK    9  A    between atoms: C_15  and  C_17
REMARK   10  A    between atoms: N_20  and  C_21
REMARK   11  A    between atoms: C_21  and  C_22
REMARK   12  A    between atoms: C_22  and  C_23
REMARK   13  A    between atoms: C_26  and  S_29
REMARK   14  A    between atoms: S_29  and  N_32
REMARK                            x       y       z     vdW  Elec       q    Type
REMARK                         _______ _______ _______ _____ _____    ______ ____
ROOT
ATOM      1  C   UNL     1      -2.354   0.799   0.618  0.00  0.00    +0.234 C 
ATOM      2  O   UNL     1      -2.072  -0.317   1.000  0.00  0.00    -0.274 OA
ATOM      3  N   UNL     1      -3.619   1.251   0.731  0.00  0.00    -0.313 N 
ATOM      4  H   UNL     1      -3.844   2.143   0.425  0.00  0.00    +0.149 HD
ENDROOT
BRANCH   1   5
ATOM      5  C   UNL     1      -1.290   1.681   0.017  0.00  0.00    +0.161 C 
BRANCH   5   8
ATOM      6  C   UNL     1       1.147   1.655   0.000  0.00  0.00    +0.217 C 
ATOM      7  O   UNL     1       1.130   2.868   0.007  0.00  0.00    -0.275 OA
ATOM      8  N   UNL     1      -0.011   0.966   0.007  0.00  0.00    -0.304 N 
ATOM      9  H   UNL     1       0.002  -0.004   0.002  0.00  0.00    +0.149 HD
BRANCH   6  13
ATOM     10  C   UNL     1       5.051   0.298   1.205  0.00  0.00    -0.008 C 
ATOM     11  C   UNL     1       4.946   1.183  -0.039  0.00  0.00    +0.004 C 
ATOM     12  C   UNL     1       3.611   1.930  -0.022  0.00  0.00    +0.013 C 
ATOM     13  C   UNL     1       2.462   0.920  -0.017  0.00  0.00    +0.075 C 
ATOM     14  C   UNL     1       2.567   0.035   1.227  0.00  0.00    +0.013 C 
ATOM     15  C   UNL     1       3.902  -0.712   1.210  0.00  0.00    +0.004 C 
BRANCH  10  17
ATOM     16  C   UNL     1       7.536   0.561   1.182  0.00  0.00    +0.007 C 
ATOM     17  C   UNL     1       6.387  -0.449   1.188  0.00  0.00    -0.014 C 
ATOM     18  C   UNL     1       6.491  -1.334   2.432  0.00  0.00    +0.007 C 
ENDBRANCH  10  17
ENDBRANCH   6  13
ENDBRANCH   5   8
BRANCH   5  19
ATOM     19  C   UNL     1      -1.680   2.047  -1.416  0.00  0.00    +0.012 C 
ATOM     20  C   UNL     1      -0.600   2.943  -2.026  0.00  0.00    +0.009 C 
ATOM     21  C   UNL     1      -1.816   0.772  -2.250  0.00  0.00    +0.009 C 
ENDBRANCH   5  19
ENDBRANCH   1   5
BRANCH   3  22
ATOM     22  C   UNL     1      -4.653   0.393   1.315  0.00  0.00    +0.109 C 
BRANCH  22  23
ATOM     23  C   UNL     1      -5.989   1.140   1.325  0.00  0.00    +0.054 C 
BRANCH  23  24
ATOM     24  C   UNL     1      -7.053   0.259   1.926  0.00  0.00    -0.046 A 
ATOM     25  C   UNL     1      -7.797  -0.578   1.114  0.00  0.00    +0.005 A 
ATOM     26  C   UNL     1      -8.770  -1.390   1.666  0.00  0.00    +0.029 A 
ATOM     27  C   UNL     1      -9.005  -1.359   3.028  0.00  0.00    +0.105 A 
ATOM     28  C   UNL     1      -8.265  -0.519   3.838  0.00  0.00    +0.029 A 
ATOM     29  C   UNL     1      -7.289   0.290   3.287  0.00  0.00    +0.005 A 
BRANCH  27  30
ATOM     30  S   UNL     1     -10.249  -2.391   3.730  0.00  0.00    +0.056 S 
ATOM     31  O   UNL     1     -10.426  -3.481   2.835  0.00  0.00    -0.153 OA
ATOM     32  O   UNL     1      -9.900  -2.575   5.095  0.00  0.00    -0.153 OA
BRANCH  30  33
ATOM     33  N   UNL     1     -11.664  -1.532   3.715  0.00  0.00    -0.204 NA
ATOM     34  H   UNL     1     -12.512  -1.995   3.636  0.00  0.00    +0.144 HD
ATOM     35  H   UNL     1     -11.645  -0.564   3.787  0.00  0.00    +0.144 HD
ENDBRANCH  30  33
ENDBRANCH  27  30
ENDBRANCH  23  24
ENDBRANCH  22  23
ENDBRANCH   3  22
TORSDOF 10
