REMARK  Name = ZINC14997549
REMARK  9 active torsions:
REMARK  status: ('A' for Active; 'I' for Inactive)
REMARK    1  A    between atoms: C_1  and  C_2
REMARK    2  A    between atoms: C_2  and  C_4
REMARK    3  A    between atoms: C_2  and  N_61
REMARK    4  A    between atoms: C_6  and  C_10
REMARK    5  A    between atoms: C_16  and  N_61
REMARK    6  A    between atoms: C_17  and  C_18
REMARK    7  A    between atoms: C_17  and  N_61
REMARK    8  A    between atoms: N_26  and  C_29
REMARK    9  A    between atoms: C_29  and  C_30
REMARK                            x       y       z     vdW  Elec       q    Type
REMARK                         _______ _______ _______ _____ _____    ______ ____
ROOT
ATOM      1  C   UNL     1       0.121  -0.307   1.583  0.00  0.00    +0.001 A 
ATOM      2  C   UNL     1      -0.833  -0.393   2.544  0.00  0.00    +0.017 A 
ATOM      3  C   UNL     1      -0.433  -0.807   3.890  0.00  0.00    -0.001 A 
ATOM      4  C   UNL     1      -1.372  -0.914   4.922  0.00  0.00    +0.011 A 
ATOM      5  C   UNL     1      -0.968  -1.304   6.167  0.00  0.00    +0.021 A 
ATOM      6  C   UNL     1       0.368  -1.595   6.418  0.00  0.00    +0.043 A 
ATOM      7  C   UNL     1       1.310  -1.496   5.415  0.00  0.00    +0.046 A 
ATOM      8  C   UNL     1       0.921  -1.102   4.140  0.00  0.00    +0.054 A 
ATOM      9  N   UNL     1       1.841  -0.995   3.118  0.00  0.00    -0.302 N 
ATOM     10  C   UNL     1       1.464  -0.619   1.884  0.00  0.00    +0.253 A 
ATOM     11  O   UNL     1       2.303  -0.540   1.004  0.00  0.00    -0.267 OA
ATOM     12 CL   UNL     1       0.856  -2.087   8.010  0.00  0.00    -0.083 Cl
ENDROOT
BRANCH   1  13
ATOM     13  C   UNL     1      -0.257   0.116   0.187  0.00  0.00    -0.037 C 
BRANCH  13  15
ATOM     14  C   UNL     1       1.387   1.892   0.129  0.00  0.00    -0.095 C 
ATOM     15  N   UNL     1      -0.054   1.574   0.059  0.00  0.00    +0.386 N 
ATOM     16  H   UNL     1      -0.538   2.047   0.832  0.00  0.00    -0.081 HD
BRANCH  15  18
ATOM     17  C   UNL     1      -0.377   3.559  -1.338  0.00  0.00    -0.007 C 
ATOM     18  C   UNL     1      -0.616   2.052  -1.222  0.00  0.00    -0.020 C 
BRANCH  18  19
ATOM     19  C   UNL     1      -2.097   1.776  -1.239  0.00  0.00    +0.050 A 
ATOM     20  C   UNL     1      -2.882   1.618  -2.382  0.00  0.00    +0.051 A 
ATOM     21  C   UNL     1      -4.166   1.380  -1.978  0.00  0.00    +0.066 A 
ATOM     22  N   UNL     1      -4.173   1.398  -0.615  0.00  0.00    -0.277 N 
ATOM     23  H   UNL     1      -4.969   1.258  -0.028  0.00  0.00    +0.189 HD
ATOM     24  N   UNL     1      -2.863   1.648  -0.185  0.00  0.00    -0.180 NA
BRANCH  21  25
ATOM     25  C   UNL     1      -5.333   1.149  -2.858  0.00  0.00    -0.000 A 
ATOM     26  C   UNL     1      -5.179   1.164  -4.244  0.00  0.00    +0.010 A 
ATOM     27  C   UNL     1      -6.270   0.943  -5.059  0.00  0.00    +0.001 A 
ATOM     28  C   UNL     1      -7.517   0.718  -4.504  0.00  0.00    +0.000 A 
ATOM     29  C   UNL     1      -7.678   0.708  -3.130  0.00  0.00    +0.001 A 
ATOM     30  C   UNL     1      -6.593   0.922  -2.304  0.00  0.00    +0.010 A 
ENDBRANCH  21  25
ENDBRANCH  18  19
ENDBRANCH  15  18
ENDBRANCH  13  15
ENDBRANCH   1  13
BRANCH   9  31
ATOM     31  C   UNL     1       3.249  -1.302   3.381  0.00  0.00    +0.180 C 
BRANCH  31  32
ATOM     32  C   UNL     1       3.501  -2.765   3.122  0.00  0.00    +0.061 A 
ATOM     33  C   UNL     1       3.983  -3.168   1.890  0.00  0.00    +0.025 A 
ATOM     34  C   UNL     1       4.212  -4.516   1.662  0.00  0.00    +0.003 A 
ATOM     35  C   UNL     1       3.947  -5.413   2.686  0.00  0.00    +0.020 A 
ATOM     36  C   UNL     1       3.467  -4.936   3.891  0.00  0.00    +0.111 A 
ATOM     37  N   UNL     1       3.265  -3.646   4.074  0.00  0.00    -0.258 NA
ENDBRANCH  31  32
ENDBRANCH   9  31
TORSDOF 7
