REMARK  Name = ZINC01092810
REMARK  4 active torsions:
REMARK  status: ('A' for Active; 'I' for Inactive)
REMARK    1  A    between atoms: C_1  and  C_2
REMARK    2  A    between atoms: C_2  and  C_34
REMARK    3  A    between atoms: C_6  and  C_19
REMARK    4  A    between atoms: C_22  and  C_25
REMARK                            x       y       z     vdW  Elec       q    Type
REMARK                         _______ _______ _______ _____ _____    ______ ____
ROOT
ATOM      1  C   UNL     1      -0.705   3.107  -1.306  0.00  0.00    +0.011 C 
ATOM      2  C   UNL     1      -0.731   1.579  -1.251  0.00  0.00    -0.024 C 
ATOM      3  C   UNL     1      -0.013   1.087   0.008  0.00  0.00    +0.043 C 
ATOM      4  C   UNL     1      -0.723   1.573   1.244  0.00  0.00    -0.029 C 
ATOM      5  C   UNL     1      -2.076   1.737   1.233  0.00  0.00    +0.023 C 
ATOM      6  C   UNL     1      -2.812   2.164   2.479  0.00  0.00    +0.135 C 
ATOM      7  N   UNL     1      -1.937   2.948   3.351  0.00  0.00    -0.332 N 
ATOM      8  C   UNL     1      -0.585   2.656   3.415  0.00  0.00    +0.036 A 
ATOM      9  C   UNL     1       0.012   1.875   2.416  0.00  0.00    +0.007 A 
ATOM     10  C   UNL     1       1.398   1.450   2.606  0.00  0.00    -0.009 A 
ATOM     11  C   UNL     1       2.002   0.459   1.829  0.00  0.00    +0.009 A 
ATOM     12  C   UNL     1       3.319   0.149   2.015  0.00  0.00    +0.001 A 
ATOM     13  C   UNL     1       4.075   0.794   2.988  0.00  0.00    +0.001 A 
ATOM     14  C   UNL     1       3.506   1.725   3.803  0.00  0.00    +0.008 A 
ATOM     15  C   UNL     1       2.142   2.031   3.666  0.00  0.00    -0.017 A 
ATOM     16  C   UNL     1       1.506   2.898   4.574  0.00  0.00    +0.010 A 
ATOM     17  C   UNL     1       0.184   3.177   4.459  0.00  0.00    +0.024 A 
ATOM     18  C   UNL     1      -2.826   1.509   0.069  0.00  0.00    +0.162 C 
ATOM     19  O   UNL     1      -4.032   1.666   0.099  0.00  0.00    -0.292 OA
ATOM     20  C   UNL     1      -2.178   1.080  -1.217  0.00  0.00    +0.086 C 
ATOM     21  C   UNL     1      -0.028   1.015  -2.489  0.00  0.00    +0.011 C 
ATOM     22  H   UNL     1      -2.304   3.675   3.888  0.00  0.00    +0.147 HD
ENDROOT
BRANCH   6  23
ATOM     23  C   UNL     1      -3.293   0.944   3.220  0.00  0.00    -0.023 A 
ATOM     24  C   UNL     1      -2.415   0.231   4.017  0.00  0.00    +0.006 A 
ATOM     25  C   UNL     1      -2.851  -0.884   4.702  0.00  0.00    +0.011 A 
ATOM     26  C   UNL     1      -4.178  -1.299   4.582  0.00  0.00    +0.009 A 
ATOM     27  C   UNL     1      -5.058  -0.578   3.773  0.00  0.00    +0.011 A 
ATOM     28  C   UNL     1      -4.610   0.538   3.097  0.00  0.00    +0.006 A 
BRANCH  26  29
ATOM     29  C   UNL     1      -4.651  -2.496   5.310  0.00  0.00    +0.134 A 
ATOM     30  N   UNL     1      -5.853  -3.057   5.337  0.00  0.00    -0.140 NA
ATOM     31  N   UNL     1      -6.090  -4.091   6.019  0.00  0.00    -0.126 NA
ATOM     32  C   UNL     1      -5.151  -4.679   6.751  0.00  0.00    +0.179 A 
ATOM     33  S   UNL     1      -3.763  -3.605   6.398  0.00  0.00    -0.031 S 
ATOM     34  N   UNL     1      -5.224  -5.806   7.554  0.00  0.00    -0.336 N 
ATOM     35  H   UNL     1      -6.061  -6.287   7.639  0.00  0.00    +0.144 HD
ATOM     36  H   UNL     1      -4.437  -6.114   8.030  0.00  0.00    +0.144 HD
ENDBRANCH  26  29
ENDBRANCH   6  23
TORSDOF 2
