REMARK  Name = ZINC21263640
REMARK  13 active torsions:
REMARK  status: ('A' for Active; 'I' for Inactive)
REMARK    1  A    between atoms: C_1  and  C_2
REMARK    2  A    between atoms: C_2  and  C_3
REMARK    3  A    between atoms: C_6  and  C_9
REMARK    4  A    between atoms: C_9  and  N_10
REMARK    5  A    between atoms: N_10  and  C_11
REMARK    6  A    between atoms: N_10  and  C_17
REMARK    7  A    between atoms: C_11  and  C_12
REMARK    8  A    between atoms: C_17  and  N_19
REMARK    9  A    between atoms: N_19  and  C_20
REMARK   10  A    between atoms: C_22  and  C_28
REMARK   11  A    between atoms: C_22  and  C_29
REMARK   12  A    between atoms: C_24  and  C_26
REMARK   13  A    between atoms: C_24  and  C_27
REMARK                            x       y       z     vdW  Elec       q    Type
REMARK                         _______ _______ _______ _____ _____    ______ ____
ROOT
ATOM      1  N   UNL     1       1.137   2.397   0.004  0.00  0.00    -0.301 N 
ENDROOT
BRANCH   1   2
ATOM      2  C   UNL     1      -0.021   1.708   0.011  0.00  0.00    +0.134 C 
ATOM      3  S   UNL     1       0.002  -0.004   0.002  0.00  0.00    -0.019 S 
BRANCH   2   4
ATOM      4  N   UNL     1      -1.197   2.366   0.021  0.00  0.00    -0.324 N 
ATOM      5  H   UNL     1      -1.212   3.466   0.027  0.00  0.00    +0.148 HD
BRANCH   4   6
ATOM      6  C   UNL     1      -2.459   1.614   0.022  0.00  0.00    +0.069 C 
ATOM      7  C   UNL     1      -2.852   1.288  -1.418  0.00  0.00    +0.009 C 
ATOM      8  C   UNL     1      -4.173   0.523  -1.447  0.00  0.00    -0.072 C 
ATOM      9  N   UNL     1      -5.208   1.152  -0.653  0.00  0.00    +0.386 N 
ATOM     10  C   UNL     1      -4.888   1.729   0.636  0.00  0.00    -0.072 C 
ATOM     11  C   UNL     1      -3.558   2.477   0.642  0.00  0.00    +0.009 C 
ATOM     12  C   UNL     1      -4.879   0.659   1.735  0.00  0.00    -0.010 C 
ATOM     13  C   UNL     1      -5.995   2.745   0.998  0.00  0.00    -0.010 C 
ATOM     14  C   UNL     1      -3.938  -0.925  -1.003  0.00  0.00    -0.010 C 
ATOM     15  C   UNL     1      -4.653   0.479  -2.915  0.00  0.00    -0.010 C 
ATOM     16  H   UNL     1      -5.643   1.991  -1.216  0.00  0.00    -0.084 HD
ATOM     17  H   UNL     1      -5.993   0.417  -0.425  0.00  0.00    -0.084 HD
ENDBRANCH   4   6
ENDBRANCH   2   4
ENDBRANCH   1   2
BRANCH   1  18
ATOM     18  C   UNL     1       2.415   1.682  -0.012  0.00  0.00    +0.142 C 
BRANCH  18  22
ATOM     19  C   UNL     1       3.620   1.009  -4.055  0.00  0.00    -0.048 A 
ATOM     20  C   UNL     1       4.009   2.163  -3.401  0.00  0.00    +0.004 A 
ATOM     21  C   UNL     1       3.619   2.381  -2.092  0.00  0.00    +0.005 A 
ATOM     22  C   UNL     1       2.840   1.445  -1.438  0.00  0.00    -0.030 A 
ATOM     23  C   UNL     1       2.455   0.288  -2.091  0.00  0.00    +0.005 A 
ATOM     24  C   UNL     1       2.841   0.072  -3.400  0.00  0.00    +0.004 A 
BRANCH  19  26
ATOM     25  C   UNL     1       5.379   0.026  -5.499  0.00  0.00    +0.009 C 
ATOM     26  C   UNL     1       4.044   0.772  -5.481  0.00  0.00    +0.032 C 
ENDBRANCH  19  26
ENDBRANCH  18  22
ENDBRANCH   1  18
BRANCH   1  27
ATOM     27  C   UNL     1       1.117   3.862   0.012  0.00  0.00    +0.181 C 
BRANCH  27  28
ATOM     28  C   UNL     1       1.124   4.357   1.436  0.00  0.00    +0.122 A 
ATOM     29  C   UNL     1       2.218   4.630   2.168  0.00  0.00    +0.046 A 
ATOM     30  C   UNL     1       1.765   5.063   3.436  0.00  0.00    +0.041 A 
ATOM     31  C   UNL     1       0.421   5.028   3.402  0.00  0.00    +0.195 A 
ATOM     32  O   UNL     1       0.038   4.605   2.186  0.00  0.00    -0.466 OA
ENDBRANCH  27  28
ENDBRANCH   1  27
TORSDOF 8
