REMARK  Name = ZINC44023473
REMARK  5 active torsions:
REMARK  status: ('A' for Active; 'I' for Inactive)
REMARK    1  A    between atoms: C_1  and  C_2
REMARK    2  A    between atoms: C_2  and  C_4
REMARK    3  A    between atoms: C_7  and  N_10
REMARK    4  A    between atoms: N_10  and  C_11
REMARK    5  A    between atoms: N_15  and  C_20
REMARK                            x       y       z     vdW  Elec       q    Type
REMARK                         _______ _______ _______ _____ _____    ______ ____
ROOT
ATOM      1  C   UNL     1      -4.812  -4.250  -0.074  0.00  0.00    +0.109 A 
ATOM      2  C   UNL     1      -5.983  -4.948  -0.176  0.00  0.00    +0.112 A 
ATOM      3  C   UNL     1      -5.936  -6.348  -0.283  0.00  0.00    +0.259 A 
ATOM      4  O   UNL     1      -6.968  -6.990  -0.375  0.00  0.00    -0.267 OA
ATOM      5  N   UNL     1      -4.744  -6.975  -0.283  0.00  0.00    -0.258 N 
ATOM      6  C   UNL     1      -3.600  -6.273  -0.182  0.00  0.00    +0.331 A 
ATOM      7  O   UNL     1      -2.535  -6.859  -0.185  0.00  0.00    -0.246 OA
ATOM      8  N   UNL     1      -3.618  -4.931  -0.085  0.00  0.00    -0.296 N 
ATOM      9  H   UNL     1      -2.784  -4.441  -0.017  0.00  0.00    +0.172 HD
ENDROOT
BRANCH   5  10
ATOM     10  C   UNL     1      -4.692  -8.435  -0.395  0.00  0.00    +0.095 C 
ATOM     11  C   UNL     1      -4.003  -9.017   0.842  0.00  0.00    +0.025 C 
ATOM     12  C   UNL     1      -3.949 -10.541   0.725  0.00  0.00    +0.002 C 
ATOM     13  C   UNL     1      -3.161 -10.930  -0.527  0.00  0.00    +0.000 C 
ATOM     14  C   UNL     1      -3.849 -10.348  -1.764  0.00  0.00    +0.002 C 
ATOM     15  C   UNL     1      -3.903  -8.823  -1.647  0.00  0.00    +0.025 C 
ENDBRANCH   5  10
BRANCH   1  16
ATOM     16  N   UNL     1      -4.828  -2.881   0.032  0.00  0.00    -0.301 N 
ATOM     17  H   UNL     1      -5.665  -2.398  -0.053  0.00  0.00    +0.154 HD
BRANCH  16  21
ATOM     18  C   UNL     1      -1.294  -0.809   0.717  0.00  0.00    +0.017 A 
ATOM     19  C   UNL     1      -2.237  -0.308  -0.189  0.00  0.00    +0.013 A 
ATOM     20  C   UNL     1      -3.398  -0.993  -0.411  0.00  0.00    +0.024 A 
ATOM     21  C   UNL     1      -3.644  -2.187   0.261  0.00  0.00    +0.032 A 
ATOM     22  C   UNL     1      -2.709  -2.689   1.163  0.00  0.00    +0.024 A 
ATOM     23  C   UNL     1      -1.543  -2.013   1.388  0.00  0.00    +0.013 A 
BRANCH  18  25
ATOM     24  C   UNL     1       0.222   1.219   0.237  0.00  0.00    +0.091 C 
ATOM     25  C   UNL     1      -0.045  -0.076   0.959  0.00  0.00    +0.160 C 
ATOM     26  O   UNL     1       0.773  -0.514   1.741  0.00  0.00    -0.292 OA
ENDBRANCH  18  25
ENDBRANCH  16  21
ENDBRANCH   1  16
TORSDOF 4
