REMARK  Name = ZINC32913566
REMARK  10 active torsions:
REMARK  status: ('A' for Active; 'I' for Inactive)
REMARK    1  A    between atoms: C_1  and  C_2
REMARK    2  A    between atoms: C_2  and  C_3
REMARK    3  A    between atoms: C_3  and  C_4
REMARK    4  A    between atoms: C_3  and  C_5
REMARK    5  A    between atoms: C_3  and  C_6
REMARK    6  A    between atoms: N_14  and  C_18
REMARK    7  A    between atoms: C_18  and  C_19
REMARK    8  A    between atoms: N_21  and  C_22
REMARK    9  A    between atoms: C_22  and  C_23
REMARK   10  A    between atoms: C_25  and  C_33
REMARK                            x       y       z     vdW  Elec       q    Type
REMARK                         _______ _______ _______ _____ _____    ______ ____
ROOT
ATOM      1  C   UNL     1      10.893  -3.538   2.340  0.00  0.00    -0.005 C 
ATOM      2  C   UNL     1       9.895  -3.741   1.199  0.00  0.00    +0.006 C 
ATOM      3  C   UNL     1       9.074  -5.006   1.460  0.00  0.00    +0.035 C 
ATOM      4  C   UNL     1       8.335  -4.869   2.787  0.00  0.00    +0.113 C 
ATOM      5  C   UNL     1       9.317  -4.645   3.931  0.00  0.00    +0.035 C 
ATOM      6  C   UNL     1      10.137  -3.381   3.661  0.00  0.00    +0.006 C 
ATOM      7  C   UNL     1       7.337  -3.736   2.719  0.00  0.00    +0.247 C 
ATOM      8  O   UNL     1       7.572  -2.562   2.525  0.00  0.00    -0.273 OA
ATOM      9  N   UNL     1       6.131  -4.305   2.921  0.00  0.00    -0.215 N 
ATOM     10  C   UNL     1       6.234  -5.626   3.110  0.00  0.00    +0.310 C 
ATOM     11  O   UNL     1       5.285  -6.356   3.317  0.00  0.00    -0.252 OA
ATOM     12  N   UNL     1       7.509  -6.056   3.042  0.00  0.00    -0.285 N 
ATOM     13  H   UNL     1       7.982  -7.045   3.136  0.00  0.00    +0.151 HD
ENDROOT
BRANCH   1  14
ATOM     14  C   UNL     1      11.721  -2.279   2.075  0.00  0.00    -0.032 C 
ATOM     15  C   UNL     1      12.480  -2.436   0.755  0.00  0.00    +0.011 C 
ATOM     16  C   UNL     1      10.792  -1.066   1.988  0.00  0.00    +0.011 C 
BRANCH  14  18
ATOM     17  C   UNL     1      13.548  -0.816   2.950  0.00  0.00    +0.004 C 
ATOM     18  C   UNL     1      12.720  -2.075   3.216  0.00  0.00    +0.003 C 
ENDBRANCH  14  18
ENDBRANCH   1  14
BRANCH   9  19
ATOM     19  C   UNL     1       4.865  -3.567   2.938  0.00  0.00    +0.213 C 
BRANCH  19  20
ATOM     20  C   UNL     1       4.293  -3.519   1.544  0.00  0.00    +0.231 C 
ATOM     21  O   UNL     1       4.885  -4.049   0.627  0.00  0.00    -0.274 OA
ATOM     22  N   UNL     1       3.125  -2.888   1.316  0.00  0.00    -0.310 N 
ATOM     23  H   UNL     1       2.588  -2.408   2.148  0.00  0.00    +0.149 HD
BRANCH  22  24
ATOM     24  C   UNL     1       2.569  -2.841  -0.038  0.00  0.00    +0.140 C 
BRANCH  24  25
ATOM     25  C   UNL     1       1.267  -2.083  -0.022  0.00  0.00    -0.019 A 
ATOM     26  C   UNL     1       0.071  -2.742  -0.014  0.00  0.00    +0.028 A 
ATOM     27  C   UNL     1      -1.121  -2.021   0.001  0.00  0.00    +0.039 A 
ATOM     28  N   UNL     1      -1.133  -0.710   0.009  0.00  0.00    -0.252 NA
ATOM     29  C   UNL     1       0.002  -0.004   0.002  0.00  0.00    +0.072 A 
ATOM     30  C   UNL     1       1.250  -0.676  -0.013  0.00  0.00    +0.005 A 
ATOM     31  C   UNL     1       2.440   0.070  -0.021  0.00  0.00    +0.010 A 
ATOM     32  C   UNL     1       2.381   1.430  -0.013  0.00  0.00    +0.001 A 
ATOM     33  C   UNL     1       1.155   2.093   0.002  0.00  0.00    +0.002 A 
ATOM     34  C   UNL     1      -0.017   1.402   0.010  0.00  0.00    +0.028 A 
ATOM     35  C   UNL     1      -2.430  -2.767   0.009  0.00  0.00    +0.065 C 
ENDBRANCH  24  25
ENDBRANCH  22  24
ENDBRANCH  19  20
ENDBRANCH   9  19
TORSDOF 6
