REMARK  Name = ZINC08901218
REMARK  11 active torsions:
REMARK  status: ('A' for Active; 'I' for Inactive)
REMARK    1  A    between atoms: C_1  and  C_2
REMARK    2  A    between atoms: C_3  and  C_29
REMARK    3  A    between atoms: C_4  and  C_28
REMARK    4  A    between atoms: C_5  and  S_10
REMARK    5  A    between atoms: C_6  and  C_9
REMARK    6  A    between atoms: C_7  and  C_8
REMARK    7  A    between atoms: S_10  and  N_13
REMARK    8  A    between atoms: N_13  and  C_14
REMARK    9  A    between atoms: C_14  and  C_15
REMARK   10  A    between atoms: C_15  and  C_17
REMARK   11  A    between atoms: C_15  and  N_63
REMARK                            x       y       z     vdW  Elec       q    Type
REMARK                         _______ _______ _______ _____ _____    ______ ____
ROOT
ATOM      1  N   UNL     1       3.812   5.047   0.165  0.00  0.00    -0.191 NA
ATOM      2  H   UNL     1       4.564   4.678  -0.325  0.00  0.00    +0.148 HD
ENDROOT
BRANCH   1   3
ATOM      3  S   UNL     1       3.317   4.340   1.578  0.00  0.00    +0.059 S 
ATOM      4  O   UNL     1       3.190   5.385   2.533  0.00  0.00    -0.153 OA
ATOM      5  O   UNL     1       4.162   3.216   1.787  0.00  0.00    -0.153 OA
BRANCH   3  10
ATOM      6  C   UNL     1      -2.235   2.169   0.649  0.00  0.00    +0.044 C 
ATOM      7  C   UNL     1      -0.849   2.713   0.878  0.00  0.00    -0.044 A 
ATOM      8  C   UNL     1      -0.680   3.946   1.479  0.00  0.00    -0.043 A 
ATOM      9  C   UNL     1       0.592   4.442   1.694  0.00  0.00    -0.021 A 
ATOM     10  C   UNL     1       1.696   3.707   1.304  0.00  0.00    +0.112 A 
ATOM     11  C   UNL     1       1.527   2.476   0.699  0.00  0.00    -0.021 A 
ATOM     12  C   UNL     1       0.255   1.980   0.484  0.00  0.00    -0.043 A 
ATOM     13  C   UNL     1       0.071   0.637  -0.176  0.00  0.00    +0.044 C 
ATOM     14  C   UNL     1       2.730   1.674   0.274  0.00  0.00    +0.046 C 
ATOM     15  C   UNL     1       0.776   5.785   2.355  0.00  0.00    +0.046 C 
ATOM     16  C   UNL     1      -1.883   4.748   1.905  0.00  0.00    +0.044 C 
ENDBRANCH   3  10
ENDBRANCH   1   3
BRANCH   1  17
ATOM     17  C   UNL     1       3.116   6.231  -0.345  0.00  0.00    +0.095 C 
BRANCH  17  18
ATOM     18  C   UNL     1       4.070   7.048  -1.218  0.00  0.00    -0.021 C 
BRANCH  18  25
ATOM     19  C   UNL     1       5.597   8.916  -0.924  0.00  0.00    -0.078 C 
ATOM     20  C   UNL     1       6.856   9.408  -0.264  0.00  0.00    -0.019 C 
ATOM     21  C   UNL     1       8.064   8.937  -1.100  0.00  0.00    -0.002 C 
ATOM     22  C   UNL     1       8.390   7.536  -0.858  0.00  0.00    -0.002 C 
ATOM     23  C   UNL     1       7.227   6.594  -1.234  0.00  0.00    -0.019 C 
ATOM     24  C   UNL     1       6.205   6.633  -0.131  0.00  0.00    -0.078 C 
ATOM     25  N   UNL     1       5.096   7.627  -0.336  0.00  0.00    +0.385 N 
ATOM     26  H   UNL     1       4.672   7.832   0.577  0.00  0.00    -0.081 HD
ENDBRANCH  18  25
BRANCH  18  27
ATOM     27  C   UNL     1       3.308   8.158  -1.893  0.00  0.00    -0.053 A 
ATOM     28  C   UNL     1       2.937   8.049  -3.220  0.00  0.00    +0.009 A 
ATOM     29  C   UNL     1       2.252   9.066  -3.797  0.00  0.00    +0.045 A 
ATOM     30  S   UNL     1       2.111  10.228  -2.449  0.00  0.00    -0.105 S 
ATOM     31  C   UNL     1       2.970   9.277  -1.206  0.00  0.00    +0.047 A 
ENDBRANCH  18  27
ENDBRANCH  17  18
ENDBRANCH   1  17
TORSDOF 6
