REMARK  Name = ZINC38581360
REMARK  8 active torsions:
REMARK  status: ('A' for Active; 'I' for Inactive)
REMARK    1  A    between atoms: C_1  and  C_2
REMARK    2  A    between atoms: C_2  and  C_3
REMARK    3  A    between atoms: C_3  and  C_5
REMARK    4  A    between atoms: C_3  and  N_19
REMARK    5  A    between atoms: N_7  and  C_8
REMARK    6  A    between atoms: C_8  and  C_9
REMARK    7  A    between atoms: C_9  and  C_10
REMARK    8  A    between atoms: C_20  and  C_22
REMARK                            x       y       z     vdW  Elec       q    Type
REMARK                         _______ _______ _______ _____ _____    ______ ____
ROOT
ATOM      1  C   UNL     1       0.718  -0.497  -1.257  0.00  0.00    +0.159 C 
ENDROOT
BRANCH   1   2
ATOM      2  C   UNL     1       0.632  -2.000  -1.327  0.00  0.00    +0.233 C 
ATOM      3  O   UNL     1       1.645  -2.666  -1.337  0.00  0.00    -0.274 OA
ATOM      4  N   UNL     1      -0.572  -2.604  -1.380  0.00  0.00    -0.313 N 
ATOM      5  H   UNL     1      -1.383  -2.072  -1.372  0.00  0.00    +0.149 HD
BRANCH   4   6
ATOM      6  C   UNL     1      -0.656  -4.065  -1.449  0.00  0.00    +0.109 C 
BRANCH   6   7
ATOM      7  C   UNL     1      -2.125  -4.490  -1.498  0.00  0.00    +0.056 C 
BRANCH   7   8
ATOM      8  C   UNL     1      -2.212  -5.992  -1.569  0.00  0.00    -0.021 A 
ATOM      9  C   UNL     1      -2.183  -6.921  -0.436  0.00  0.00    +0.003 A 
ATOM     10  C   UNL     1      -2.079  -6.762   0.947  0.00  0.00    +0.010 A 
ATOM     11  C   UNL     1      -2.083  -7.862   1.758  0.00  0.00    +0.001 A 
ATOM     12  C   UNL     1      -2.189  -9.136   1.218  0.00  0.00    +0.002 A 
ATOM     13  C   UNL     1      -2.293  -9.316  -0.144  0.00  0.00    +0.026 A 
ATOM     14  C   UNL     1      -2.292  -8.211  -0.988  0.00  0.00    +0.047 A 
ATOM     15  N   UNL     1      -2.379  -8.062  -2.354  0.00  0.00    -0.360 N 
ATOM     16  C   UNL     1      -2.336  -6.734  -2.681  0.00  0.00    +0.087 A 
ATOM     17  H   UNL     1      -2.463  -8.790  -2.990  0.00  0.00    +0.165 HD
ENDBRANCH   7   8
ENDBRANCH   6   7
ENDBRANCH   4   6
ENDBRANCH   1   2
BRANCH   1  18
ATOM     18  N   UNL     1       2.125  -0.091  -1.209  0.00  0.00    -0.301 N 
ATOM     19  C   UNL     1       2.487   1.134  -1.640  0.00  0.00    +0.255 C 
ATOM     20  O   UNL     1       1.649   1.899  -2.066  0.00  0.00    -0.272 OA
ATOM     21  H   UNL     1       2.795  -0.703  -0.868  0.00  0.00    +0.150 HD
BRANCH  19  22
ATOM     22  C   UNL     1       3.934   1.552  -1.591  0.00  0.00    +0.263 C 
ATOM     23  C   UNL     1       4.778   0.725  -2.590  0.00  0.00    +0.093 C 
ATOM     24  C   UNL     1       4.757   1.608  -3.823  0.00  0.00    -0.002 A 
ATOM     25  C   UNL     1       5.071   1.363  -5.142  0.00  0.00    +0.007 A 
ATOM     26  C   UNL     1       4.951   2.372  -6.080  0.00  0.00    +0.000 A 
ATOM     27  C   UNL     1       4.517   3.625  -5.689  0.00  0.00    +0.004 A 
ATOM     28  C   UNL     1       4.205   3.874  -4.369  0.00  0.00    +0.046 A 
ATOM     29  C   UNL     1       4.326   2.864  -3.417  0.00  0.00    +0.125 A 
ATOM     30  O   UNL     1       4.092   2.897  -2.072  0.00  0.00    -0.479 OA
ENDBRANCH  19  22
ENDBRANCH   1  18
BRANCH   1  32
ATOM     31  C   UNL     1      -0.019   1.526   0.010  0.00  0.00    +0.006 C 
ATOM     32  C   UNL     1       0.002  -0.004   0.002  0.00  0.00    +0.028 C 
ENDBRANCH   1  32
TORSDOF 7
