REMARK  Name = ZINC15403530
REMARK  8 active torsions:
REMARK  status: ('A' for Active; 'I' for Inactive)
REMARK    1  A    between atoms: C_1  and  C_2
REMARK    2  A    between atoms: C_3  and  C_13
REMARK    3  A    between atoms: C_4  and  C_7
REMARK    4  A    between atoms: C_16  and  C_18
REMARK    5  A    between atoms: C_18  and  N_53
REMARK    6  A    between atoms: C_19  and  C_20
REMARK    7  A    between atoms: C_19  and  C_26
REMARK    8  A    between atoms: C_19  and  N_53
REMARK                            x       y       z     vdW  Elec       q    Type
REMARK                         _______ _______ _______ _____ _____    ______ ____
ROOT
ATOM      1  C   UNL     1      -0.444  -4.112   1.310  0.00  0.00    +0.254 A 
ATOM      2  N   UNL     1       0.861  -4.034   1.184  0.00  0.00    -0.107 NA
ATOM      3  N   UNL     1       1.213  -2.796   1.184  0.00  0.00    -0.114 NA
ATOM      4  C   UNL     1       0.158  -2.042   1.316  0.00  0.00    +0.201 A 
ATOM      5  O   UNL     1      -0.914  -2.851   1.395  0.00  0.00    -0.422 OA
ENDROOT
BRANCH   1   8
ATOM      6  C   UNL     1      -3.608  -4.370   1.627  0.00  0.00    +0.090 C 
ATOM      7  C   UNL     1      -2.603  -5.484   1.485  0.00  0.00    +0.147 A 
ATOM      8  C   UNL     1      -1.248  -5.351   1.350  0.00  0.00    +0.108 A 
ATOM      9  C   UNL     1      -0.785  -6.750   1.260  0.00  0.00    +0.126 A 
ATOM     10  N   UNL     1      -1.872  -7.476   1.344  0.00  0.00    -0.077 NA
ATOM     11  O   UNL     1      -2.862  -6.797   1.463  0.00  0.00    -0.359 OA
BRANCH   9  12
ATOM     12  C   UNL     1       0.610  -7.231   1.108  0.00  0.00    +0.004 A 
ATOM     13  C   UNL     1       1.520  -6.505   0.342  0.00  0.00    +0.010 A 
ATOM     14  C   UNL     1       2.818  -6.954   0.209  0.00  0.00    +0.001 A 
ATOM     15  C   UNL     1       3.213  -8.128   0.824  0.00  0.00    +0.000 A 
ATOM     16  C   UNL     1       2.313  -8.855   1.582  0.00  0.00    +0.001 A 
ATOM     17  C   UNL     1       1.014  -8.413   1.726  0.00  0.00    +0.010 A 
ENDBRANCH   9  12
ENDBRANCH   1   8
BRANCH   4  18
ATOM     18  C   UNL     1       0.142  -0.536   1.364  0.00  0.00    +0.018 C 
BRANCH  18  19
ATOM     19  N   UNL     1       0.001  -0.010  -0.007  0.00  0.00    +0.392 N 
ATOM     20  H   UNL     1      -0.876  -0.356  -0.414  0.00  0.00    -0.084 HD
ATOM     21  H   UNL     1       0.793  -0.332  -0.576  0.00  0.00    -0.084 HD
BRANCH  19  22
ATOM     22  C   UNL     1      -0.018   1.465   0.010  0.00  0.00    -0.009 C 
BRANCH  22  23
ATOM     23  C   UNL     1       1.396   1.986  -0.001  0.00  0.00    -0.057 A 
ATOM     24  C   UNL     1       2.356   1.366  -0.778  0.00  0.00    +0.002 A 
ATOM     25  C   UNL     1       3.651   1.848  -0.792  0.00  0.00    +0.000 A 
ATOM     26  C   UNL     1       3.990   2.943  -0.020  0.00  0.00    +0.000 A 
ATOM     27  C   UNL     1       3.031   3.560   0.762  0.00  0.00    +0.000 A 
ATOM     28  C   UNL     1       1.734   3.082   0.772  0.00  0.00    +0.002 A 
ENDBRANCH  22  23
BRANCH  22  29
ATOM     29  C   UNL     1      -0.747   1.964  -1.211  0.00  0.00    -0.057 A 
ATOM     30  C   UNL     1      -0.558   1.342  -2.431  0.00  0.00    +0.002 A 
ATOM     31  C   UNL     1      -1.230   1.797  -3.550  0.00  0.00    +0.000 A 
ATOM     32  C   UNL     1      -2.084   2.880  -3.451  0.00  0.00    +0.000 A 
ATOM     33  C   UNL     1      -2.268   3.505  -2.232  0.00  0.00    +0.000 A 
ATOM     34  C   UNL     1      -1.600   3.047  -1.112  0.00  0.00    +0.002 A 
ENDBRANCH  22  29
ENDBRANCH  19  22
ENDBRANCH  18  19
ENDBRANCH   4  18
TORSDOF 7
