REMARK  Name = ZINC20898566
REMARK  8 active torsions:
REMARK  status: ('A' for Active; 'I' for Inactive)
REMARK    1  A    between atoms: C_1  and  C_2
REMARK    2  A    between atoms: C_7  and  C_8
REMARK    3  A    between atoms: C_10  and  C_33
REMARK    4  A    between atoms: C_14  and  C_17
REMARK    5  A    between atoms: C_21  and  O_24
REMARK    6  A    between atoms: C_22  and  O_23
REMARK    7  A    between atoms: N_25  and  C_32
REMARK    8  A    between atoms: N_28  and  C_31
REMARK                            x       y       z     vdW  Elec       q    Type
REMARK                         _______ _______ _______ _____ _____    ______ ____
ROOT
ATOM      1  C   UNL     1       6.717   4.655   0.652  0.00  0.00    +0.044 C 
ATOM      2  C   UNL     1       6.287   3.411  -0.082  0.00  0.00    -0.046 A 
ATOM      3  C   UNL     1       5.662   2.388   0.607  0.00  0.00    +0.028 A 
ATOM      4  C   UNL     1       5.263   1.245  -0.066  0.00  0.00    +0.052 A 
ATOM      5  C   UNL     1       5.482   1.145  -1.444  0.00  0.00    +0.068 A 
ATOM      6  C   UNL     1       6.117   2.166  -2.124  0.00  0.00    +0.031 A 
ATOM      7  C   UNL     1       6.519   3.300  -1.441  0.00  0.00    -0.045 A 
ATOM      8  C   UNL     1       7.211   4.417  -2.179  0.00  0.00    +0.044 C 
ATOM      9  N   UNL     1       5.013   0.001  -2.106  0.00  0.00    -0.306 N 
ATOM     10  C   UNL     1       5.274  -0.411  -3.375  0.00  0.00    +0.069 A 
ATOM     11  C   UNL     1       4.604  -1.593  -3.573  0.00  0.00    +0.089 A 
ATOM     12  C   UNL     1       3.876  -1.882  -2.312  0.00  0.00    +0.082 A 
ATOM     13  C   UNL     1       4.151  -0.889  -1.479  0.00  0.00    +0.073 A 
ATOM     14  C   UNL     1       3.663  -0.659  -0.066  0.00  0.00    +0.154 C 
ATOM     15  N   UNL     1       4.646   0.193   0.621  0.00  0.00    -0.330 N 
ATOM     16  N   UNL     1       3.096  -3.046  -2.233  0.00  0.00    -0.294 N 
ATOM     17  C   UNL     1       3.056  -3.839  -3.326  0.00  0.00    +0.332 A 
ATOM     18  O   UNL     1       2.380  -4.847  -3.258  0.00  0.00    -0.246 OA
ATOM     19  N   UNL     1       3.696  -3.609  -4.477  0.00  0.00    -0.263 N 
ATOM     20  C   UNL     1       4.486  -2.526  -4.698  0.00  0.00    +0.266 A 
ATOM     21  O   UNL     1       5.056  -2.344  -5.757  0.00  0.00    -0.267 OA
ATOM     22  C   UNL     1       3.537  -4.580  -5.562  0.00  0.00    +0.157 C 
ATOM     23  C   UNL     1       2.357  -3.387  -1.015  0.00  0.00    +0.154 C 
ATOM     24  H   UNL     1       4.897   0.003   1.675  0.00  0.00    +0.147 HD
ENDROOT
BRANCH  14  25
ATOM     25  C   UNL     1       2.323   0.031  -0.095  0.00  0.00    +0.024 A 
ATOM     26  C   UNL     1       1.870   0.611  -1.266  0.00  0.00    +0.009 A 
ATOM     27  C   UNL     1       0.642   1.244  -1.297  0.00  0.00    +0.004 A 
ATOM     28  C   UNL     1      -0.139   1.300  -0.157  0.00  0.00    +0.049 A 
ATOM     29  C   UNL     1       0.309   0.721   1.019  0.00  0.00    +0.159 A 
ATOM     30  C   UNL     1       1.546   0.083   1.050  0.00  0.00    +0.164 A 
BRANCH  30  31
ATOM     31  O   UNL     1       1.990  -0.487   2.202  0.00  0.00    -0.503 OA
ATOM     32  H   UNL     1       1.371  -0.445   3.110  0.00  0.00    +0.292 HD
ENDBRANCH  30  31
BRANCH  29  33
ATOM     33  O   UNL     1      -0.459   0.775   2.140  0.00  0.00    -0.503 OA
ATOM     34  H   UNL     1      -0.102   0.314   3.074  0.00  0.00    +0.292 HD
ENDBRANCH  29  33
ENDBRANCH  14  25
BRANCH  10  35
ATOM     35  C   UNL     1       6.122   0.286  -4.362  0.00  0.00    -0.000 A 
ATOM     36  C   UNL     1       5.595   0.661  -5.600  0.00  0.00    +0.010 A 
ATOM     37  C   UNL     1       6.391   1.317  -6.515  0.00  0.00    +0.001 A 
ATOM     38  C   UNL     1       7.713   1.594  -6.213  0.00  0.00    +0.000 A 
ATOM     39  C   UNL     1       8.243   1.221  -4.990  0.00  0.00    +0.001 A 
ATOM     40  C   UNL     1       7.457   0.569  -4.064  0.00  0.00    +0.010 A 
ENDBRANCH  10  35
TORSDOF 4
