REMARK  Name = ZINC08995954
REMARK  5 active torsions:
REMARK  status: ('A' for Active; 'I' for Inactive)
REMARK    1  A    between atoms: C_4  and  C_7
REMARK    2  A    between atoms: C_7  and  C_8
REMARK    3  A    between atoms: C_8  and  C_10
REMARK    4  A    between atoms: C_8  and  N_26
REMARK    5  A    between atoms: C_10  and  C_12
REMARK                            x       y       z     vdW  Elec       q    Type
REMARK                         _______ _______ _______ _____ _____    ______ ____
ROOT
ATOM      1  C   UNL     1      -3.781  -2.538  -0.357  0.00  0.00    +0.159 C 
ENDROOT
BRANCH   1   2
ATOM      2  N   UNL     1      -5.098  -3.051   0.026  0.00  0.00    -0.223 N 
ATOM      3  C   UNL     1      -6.257  -2.678  -0.546  0.00  0.00    +0.254 C 
ATOM      4  O   UNL     1      -6.375  -1.875  -1.449  0.00  0.00    -0.270 OA
ATOM      5  C   UNL     1      -7.362  -3.413   0.105  0.00  0.00    +0.049 A 
ATOM      6  C   UNL     1      -8.737  -3.439  -0.062  0.00  0.00    +0.014 A 
ATOM      7  C   UNL     1      -9.511  -4.261   0.742  0.00  0.00    +0.001 A 
ATOM      8  C   UNL     1      -8.921  -5.053   1.709  0.00  0.00    +0.001 A 
ATOM      9  C   UNL     1      -7.547  -5.036   1.888  0.00  0.00    +0.014 A 
ATOM     10  C   UNL     1      -6.760  -4.220   1.091  0.00  0.00    +0.049 A 
ATOM     11  C   UNL     1      -5.309  -3.953   1.002  0.00  0.00    +0.254 C 
ATOM     12  O   UNL     1      -4.450  -4.464   1.693  0.00  0.00    -0.270 OA
ENDBRANCH   1   2
BRANCH   1  13
ATOM     13  C   UNL     1      -3.750  -1.043  -0.168  0.00  0.00    +0.179 C 
ATOM     14  O   UNL     1      -4.788  -0.427  -0.019  0.00  0.00    -0.291 OA
BRANCH  13  15
ATOM     15  C   UNL     1      -2.530  -0.366  -0.163  0.00  0.00    +0.071 C 
ATOM     16  C   UNL     1      -2.502   1.004   0.010  0.00  0.00    +0.038 C 
ATOM     17  C   UNL     1      -1.230   1.760   0.017  0.00  0.00    +0.003 A 
ATOM     18  C   UNL     1      -0.013   1.076   0.008  0.00  0.00    +0.059 A 
ATOM     19  C   UNL     1       1.173   1.785   0.000  0.00  0.00    +0.167 A 
ATOM     20  C   UNL     1       1.147   3.180   0.009  0.00  0.00    +0.167 A 
ATOM     21  C   UNL     1      -0.064   3.856   0.028  0.00  0.00    +0.054 A 
ATOM     22  C   UNL     1      -1.255   3.156   0.037  0.00  0.00    -0.033 A 
ATOM     23  C   UNL     1      -2.555   3.915   0.069  0.00  0.00    +0.054 C 
ATOM     24  C   UNL     1      -3.700   3.059  -0.472  0.00  0.00    +0.106 C 
ATOM     25  N   UNL     1      -3.663   1.741   0.183  0.00  0.00    -0.343 N 
ATOM     26  O   UNL     1       2.433   3.637  -0.004  0.00  0.00    -0.453 OA
ATOM     27  C   UNL     1       3.244   2.517   0.397  0.00  0.00    +0.466 C 
ATOM     28  O   UNL     1       2.474   1.372  -0.014  0.00  0.00    -0.453 OA
ATOM     29  H   UNL     1      -4.527   1.393   0.768  0.00  0.00    +0.146 HD
ENDBRANCH  13  15
ENDBRANCH   1  13
BRANCH   1  30
ATOM     30  C   UNL     1      -3.512  -2.871  -1.826  0.00  0.00    +0.066 C 
BRANCH  30  34
ATOM     31  C   UNL     1      -3.255  -7.109  -2.300  0.00  0.00    +0.000 A 
ATOM     32  C   UNL     1      -4.475  -6.472  -2.428  0.00  0.00    +0.000 A 
ATOM     33  C   UNL     1      -4.558  -5.101  -2.275  0.00  0.00    +0.004 A 
ATOM     34  C   UNL     1      -3.421  -4.366  -1.993  0.00  0.00    -0.045 A 
ATOM     35  C   UNL     1      -2.200  -5.003  -1.870  0.00  0.00    +0.004 A 
ATOM     36  C   UNL     1      -2.118  -6.375  -2.019  0.00  0.00    +0.000 A 
ENDBRANCH  30  34
ENDBRANCH   1  30
TORSDOF 5
