REMARK  Name = ZINC45255924
REMARK  7 active torsions:
REMARK  status: ('A' for Active; 'I' for Inactive)
REMARK    1  A    between atoms: C_1  and  C_2
REMARK    2  A    between atoms: C_4  and  C_26
REMARK    3  A    between atoms: C_6  and  O_8
REMARK    4  A    between atoms: O_8  and  C_9
REMARK    5  A    between atoms: C_10  and  C_19
REMARK    6  A    between atoms: C_11  and  C_18
REMARK    7  A    between atoms: C_19  and  N_20
REMARK                            x       y       z     vdW  Elec       q    Type
REMARK                         _______ _______ _______ _____ _____    ______ ____
ROOT
ATOM      1  C   UNL     1       0.187  -1.835   3.367  0.00  0.00    +0.153 A 
ATOM      2  C   UNL     1       0.282  -2.411   4.649  0.00  0.00    +0.036 A 
ATOM      3  C   UNL     1       0.325  -1.617   5.740  0.00  0.00    +0.024 A 
ATOM      4  N   UNL     1       0.275  -0.264   5.622  0.00  0.00    -0.325 N 
ATOM      5  H   UNL     1       0.307   0.286   6.419  0.00  0.00    +0.169 HD
ATOM      6  C   UNL     1       0.184   0.324   4.414  0.00  0.00    +0.266 A 
ATOM      7  O   UNL     1       0.142   1.542   4.332  0.00  0.00    -0.267 OA
ATOM      8  C   UNL     1       0.143  -0.457   3.253  0.00  0.00    +0.120 A 
ATOM      9  I   UNL     1       0.008   0.449   1.369  0.00  0.00    -0.034 I 
ATOM     10  C   UNL     1       0.427  -2.240   7.109  0.00  0.00    +0.064 C 
ENDROOT
BRANCH   1  11
ATOM     11  O   UNL     1       0.144  -2.618   2.262  0.00  0.00    -0.454 OA
BRANCH  11  17
ATOM     12  C   UNL     1       2.326  -5.929  -0.583  0.00  0.00    +0.044 C 
ATOM     13  C   UNL     1       2.362  -4.943   0.556  0.00  0.00    -0.047 A 
ATOM     14  C   UNL     1       3.531  -4.754   1.270  0.00  0.00    +0.007 A 
ATOM     15  C   UNL     1       3.567  -3.850   2.316  0.00  0.00    -0.047 A 
ATOM     16  C   UNL     1       2.434  -3.133   2.650  0.00  0.00    +0.049 A 
ATOM     17  C   UNL     1       1.260  -3.321   1.935  0.00  0.00    +0.129 A 
ATOM     18  C   UNL     1       1.228  -4.225   0.883  0.00  0.00    +0.049 A 
ATOM     19  C   UNL     1       4.842  -3.646   3.092  0.00  0.00    +0.044 C 
ENDBRANCH  11  17
ENDBRANCH   1  11
BRANCH   2  20
ATOM     20  C   UNL     1       0.338  -3.909   4.802  0.00  0.00    +0.184 C 
BRANCH  20  21
ATOM     21  N   UNL     1      -1.024  -4.449   4.816  0.00  0.00    -0.265 N 
ATOM     22  C   UNL     1      -1.503  -5.414   4.003  0.00  0.00    +0.110 A 
ATOM     23  C   UNL     1      -2.797  -5.629   4.331  0.00  0.00    +0.064 A 
ATOM     24  C   UNL     1      -3.123  -4.762   5.387  0.00  0.00    +0.138 A 
ATOM     25  N   UNL     1      -2.055  -4.058   5.680  0.00  0.00    -0.156 NA
ATOM     26  N   UNL     1      -4.369  -4.670   6.020  0.00  0.00    -0.342 N 
ATOM     27  H   UNL     1      -5.101  -5.238   5.735  0.00  0.00    +0.144 HD
ATOM     28  H   UNL     1      -4.499  -4.037   6.744  0.00  0.00    +0.144 HD
ENDBRANCH  20  21
ENDBRANCH   2  20
TORSDOF 4
