REMARK  Name = ZINC66087817
REMARK  7 active torsions:
REMARK  status: ('A' for Active; 'I' for Inactive)
REMARK    1  A    between atoms: C_1  and  C_2
REMARK    2  A    between atoms: N_8  and  C_9
REMARK    3  A    between atoms: C_9  and  C_10
REMARK    4  A    between atoms: C_10  and  C_11
REMARK    5  A    between atoms: C_11  and  N_12
REMARK    6  A    between atoms: C_14  and  C_18
REMARK    7  A    between atoms: C_21  and  N_24
REMARK                            x       y       z     vdW  Elec       q    Type
REMARK                         _______ _______ _______ _____ _____    ______ ____
ROOT
ATOM      1  N   UNL     1       4.842  -0.112   3.791  0.00  0.00    -0.335 N 
ATOM      2  C   UNL     1       4.739   0.633   4.856  0.00  0.00    +0.102 A 
ATOM      3  C   UNL     1       5.447   0.165   6.067  0.00  0.00    +0.038 A 
ATOM      4  S   UNL     1       6.161  -1.263   5.534  0.00  0.00    -0.062 S 
ATOM      5  C   UNL     1       5.569  -1.247   3.852  0.00  0.00    +0.126 A 
ATOM      6  S   UNL     1       5.856  -2.393   2.613  0.00  0.00    -0.025 S 
ENDROOT
BRANCH   3   7
ATOM      7  C   UNL     1       5.511   0.785   7.391  0.00  0.00    -0.010 A 
ATOM      8  C   UNL     1       4.833   1.992   7.641  0.00  0.00    +0.011 A 
ATOM      9  C   UNL     1       4.900   2.565   8.885  0.00  0.00    +0.033 A 
ATOM     10  C   UNL     1       5.633   1.959   9.895  0.00  0.00    +0.126 A 
ATOM     11  C   UNL     1       6.306   0.769   9.659  0.00  0.00    +0.033 A 
ATOM     12  C   UNL     1       6.247   0.176   8.424  0.00  0.00    +0.011 A 
BRANCH  10  13
ATOM     13  N   UNL     1       5.698   2.586  11.234  0.00  0.00    +0.056 N 
ATOM     14  O   UNL     1       5.061   3.716  11.464  0.00  0.00    -0.126 OA
ATOM     15  O   UNL     1       6.393   2.015  12.196  0.00  0.00    -0.126 OA
ENDBRANCH  10  13
ENDBRANCH   3   7
BRANCH   1  16
ATOM     16  C   UNL     1       4.173   0.276   2.547  0.00  0.00    +0.121 C 
BRANCH  16  17
ATOM     17  C   UNL     1       2.764  -0.321   2.518  0.00  0.00    +0.003 C 
BRANCH  17  18
ATOM     18  C   UNL     1       2.066   0.083   1.218  0.00  0.00    -0.077 C 
BRANCH  18  25
ATOM     19  C   UNL     1      -0.019   1.526   0.010  0.00  0.00    -0.013 C 
ATOM     20  C   UNL     1       0.002  -0.004   0.002  0.00  0.00    -0.072 C 
ATOM     21  C   UNL     1      -1.434  -0.533   0.011  0.00  0.00    -0.016 C 
ATOM     22  C   UNL     1      -1.408  -2.064   0.003  0.00  0.00    -0.003 C 
ATOM     23  C   UNL     1      -0.600  -2.558   1.206  0.00  0.00    -0.019 C 
ATOM     24  C   UNL     1       0.805  -1.954   1.152  0.00  0.00    -0.078 C 
ATOM     25  N   UNL     1       0.713  -0.490   1.191  0.00  0.00    +0.381 N 
ATOM     26  H   UNL     1       0.213  -0.206   2.020  0.00  0.00    -0.081 HD
ENDBRANCH  18  25
ENDBRANCH  17  18
ENDBRANCH  16  17
ENDBRANCH   1  16
TORSDOF 6
