REMARK  Name = ZINC24917372
REMARK  9 active torsions:
REMARK  status: ('A' for Active; 'I' for Inactive)
REMARK    1  A    between atoms: C_1  and  C_2
REMARK    2  A    between atoms: N_13  and  C_30
REMARK    3  A    between atoms: C_14  and  S_16
REMARK    4  A    between atoms: S_16  and  C_17
REMARK    5  A    between atoms: C_17  and  C_19
REMARK    6  A    between atoms: C_17  and  C_20
REMARK    7  A    between atoms: N_26  and  C_27
REMARK    8  A    between atoms: N_26  and  C_28
REMARK    9  A    between atoms: C_30  and  C_31
REMARK                            x       y       z     vdW  Elec       q    Type
REMARK                         _______ _______ _______ _____ _____    ______ ____
ROOT
ATOM      1  C   UNL     1      -0.479  13.929   0.052  0.00  0.00    +0.008 C 
ATOM      2  C   UNL     1      -0.152  12.525   0.565  0.00  0.00    -0.009 C 
ATOM      3  C   UNL     1       1.357  12.401   0.797  0.00  0.00    +0.008 C 
ATOM      4  C   UNL     1       1.663  11.101   1.541  0.00  0.00    +0.037 C 
ATOM      5  C   UNL     1       1.015   9.941   0.791  0.00  0.00    -0.023 A 
ATOM      6  C   UNL     1       0.023  10.161  -0.096  0.00  0.00    -0.004 A 
ATOM      7  S   UNL     1      -0.411   8.556  -0.710  0.00  0.00    -0.073 S 
ATOM      8  C   UNL     1       0.744   7.590   0.230  0.00  0.00    +0.117 A 
ATOM      9  C   UNL     1       1.430   8.551   0.991  0.00  0.00    +0.076 A 
ATOM     10  C   UNL     1       2.446   8.046   1.864  0.00  0.00    +0.264 A 
ATOM     11  O   UNL     1       3.093   8.806   2.563  0.00  0.00    -0.267 OA
ATOM     12  N   UNL     1       2.676   6.721   1.901  0.00  0.00    -0.280 N 
ATOM     13  C   UNL     1       1.961   5.855   1.125  0.00  0.00    +0.174 A 
ATOM     14  N   UNL     1       1.024   6.294   0.310  0.00  0.00    -0.216 NA
ATOM     15  C   UNL     1      -0.578  11.480  -0.476  0.00  0.00    +0.046 C 
ENDROOT
BRANCH  13  16
ATOM     16  S   UNL     1       2.301   4.129   1.209  0.00  0.00    -0.077 S 
BRANCH  16  17
ATOM     17  C   UNL     1       1.093   3.512   0.011  0.00  0.00    +0.119 C 
ATOM     18  C   UNL     1       1.445   4.035  -1.383  0.00  0.00    +0.028 C 
BRANCH  17  19
ATOM     19  C   UNL     1       1.118   2.005   0.002  0.00  0.00    +0.149 A 
ATOM     20  N   UNL     1       2.275   1.365  -0.012  0.00  0.00    -0.198 NA
ATOM     21  C   UNL     1       2.301   0.034  -0.020  0.00  0.00    +0.217 A 
ATOM     22  N   UNL     1       1.162  -0.651  -0.013  0.00  0.00    -0.181 NA
ATOM     23  C   UNL     1       0.002  -0.004   0.002  0.00  0.00    +0.222 A 
ATOM     24  N   UNL     1      -0.016   1.327   0.009  0.00  0.00    -0.198 NA
ATOM     25  N   UNL     1      -1.183  -0.711   0.010  0.00  0.00    -0.306 N 
ATOM     26  C   UNL     1      -2.462   0.003   0.026  0.00  0.00    +0.132 C 
ATOM     27  C   UNL     1      -1.162  -2.176   0.002  0.00  0.00    +0.132 C 
ATOM     28  N   UNL     1       3.509  -0.633  -0.034  0.00  0.00    -0.327 N 
ATOM     29  H   UNL     1       3.529  -1.733  -0.041  0.00  0.00    +0.145 HD
ATOM     30  H   UNL     1       4.451  -0.065  -0.040  0.00  0.00    +0.145 HD
ENDBRANCH  17  19
ENDBRANCH  16  17
ENDBRANCH  13  16
BRANCH  12  31
ATOM     31  C   UNL     1       3.714   6.197   2.792  0.00  0.00    +0.201 C 
BRANCH  31  32
ATOM     32  C   UNL     1       5.031   6.155   2.060  0.00  0.00    +0.125 A 
ATOM     33  C   UNL     1       5.936   7.148   2.012  0.00  0.00    +0.046 A 
ATOM     34  C   UNL     1       7.013   6.682   1.224  0.00  0.00    +0.041 A 
ATOM     35  C   UNL     1       6.698   5.435   0.831  0.00  0.00    +0.195 A 
ATOM     36  O   UNL     1       5.496   5.121   1.340  0.00  0.00    -0.466 OA
ENDBRANCH  31  32
ENDBRANCH  12  31
TORSDOF 5
