REMARK  Name = ZINC09672757
REMARK  7 active torsions:
REMARK  status: ('A' for Active; 'I' for Inactive)
REMARK    1  A    between atoms: C_1  and  C_2
REMARK    2  A    between atoms: C_3  and  C_26
REMARK    3  A    between atoms: C_4  and  C_21
REMARK    4  A    between atoms: C_9  and  S_11
REMARK    5  A    between atoms: S_11  and  C_12
REMARK    6  A    between atoms: C_12  and  C_13
REMARK    7  A    between atoms: N_28  and  C_29
REMARK                            x       y       z     vdW  Elec       q    Type
REMARK                         _______ _______ _______ _____ _____    ______ ____
ROOT
ATOM      1  C   UNL     1      -0.060   1.509  -0.514  0.00  0.00    +0.061 C 
ATOM      2  C   UNL     1      -0.017   0.014  -0.332  0.00  0.00    +0.018 C 
ATOM      3  C   UNL     1      -1.168  -0.652  -0.159  0.00  0.00    +0.061 C 
ATOM      4  C   UNL     1      -1.233  -2.142   0.042  0.00  0.00    +0.184 C 
ATOM      5  N   UNL     1       0.066  -2.732  -0.272  0.00  0.00    -0.219 N 
ATOM      6  C   UNL     1       1.197  -2.006  -0.447  0.00  0.00    +0.219 A 
ATOM      7  N   UNL     1       2.174  -2.833  -0.705  0.00  0.00    -0.187 NA
ATOM      8  C   UNL     1       1.708  -4.090  -0.709  0.00  0.00    +0.211 A 
ATOM      9  N   UNL     1       0.418  -4.070  -0.448  0.00  0.00    -0.141 NA
ATOM     10  N   UNL     1       1.200  -0.622  -0.355  0.00  0.00    -0.287 N 
ATOM     11  H   UNL     1       2.031  -0.123  -0.305  0.00  0.00    +0.155 HD
ENDROOT
BRANCH   4  12
ATOM     12  C   UNL     1      -1.587  -2.441   1.476  0.00  0.00    +0.019 A 
ATOM     13  C   UNL     1      -2.651  -3.121   1.968  0.00  0.00    +0.013 A 
ATOM     14  C   UNL     1      -2.774  -3.275   3.337  0.00  0.00    +0.008 A 
ATOM     15  C   UNL     1      -1.826  -2.740   4.145  0.00  0.00    +0.045 A 
ATOM     16  S   UNL     1      -0.711  -1.997   2.966  0.00  0.00    -0.099 S 
ENDBRANCH   4  12
BRANCH   3  17
ATOM     17  C   UNL     1      -2.378   0.081  -0.166  0.00  0.00    +0.248 C 
ATOM     18  O   UNL     1      -2.358   1.288  -0.326  0.00  0.00    -0.270 OA
ATOM     19  N   UNL     1      -3.553  -0.557   0.005  0.00  0.00    -0.282 N 
ATOM     20  H   UNL     1      -3.576  -1.525   0.055  0.00  0.00    +0.155 HD
BRANCH  19  21
ATOM     21  C   UNL     1      -4.739   0.177   0.110  0.00  0.00    +0.034 A 
ATOM     22  C   UNL     1      -5.927  -0.345  -0.385  0.00  0.00    +0.023 A 
ATOM     23  C   UNL     1      -7.096   0.383  -0.280  0.00  0.00    +0.002 A 
ATOM     24  C   UNL     1      -7.084   1.631   0.316  0.00  0.00    +0.000 A 
ATOM     25  C   UNL     1      -5.903   2.154   0.809  0.00  0.00    +0.002 A 
ATOM     26  C   UNL     1      -4.731   1.429   0.713  0.00  0.00    +0.023 A 
ENDBRANCH  19  21
ENDBRANCH   3  17
BRANCH   8  27
ATOM     27  S   UNL     1       2.667  -5.536  -1.014  0.00  0.00    -0.080 S 
BRANCH  27  28
ATOM     28  C   UNL     1       4.341  -4.900  -1.300  0.00  0.00    +0.114 C 
BRANCH  28  29
ATOM     29  C   UNL     1       5.275  -6.050  -1.576  0.00  0.00    -0.019 A 
ATOM     30  C   UNL     1       5.934  -6.672  -0.532  0.00  0.00    +0.006 A 
ATOM     31  C   UNL     1       6.791  -7.727  -0.786  0.00  0.00    +0.000 A 
ATOM     32  C   UNL     1       6.989  -8.160  -2.083  0.00  0.00    +0.001 A 
ATOM     33  C   UNL     1       6.331  -7.539  -3.128  0.00  0.00    +0.020 A 
ATOM     34  C   UNL     1       5.469  -6.487  -2.874  0.00  0.00    +0.045 A 
ATOM     35 CL   UNL     1       4.638  -5.710  -4.185  0.00  0.00    -0.083 Cl
ENDBRANCH  28  29
ENDBRANCH  27  28
ENDBRANCH   8  27
TORSDOF 6
