REMARK  Name = ZINC45782673
REMARK  6 active torsions:
REMARK  status: ('A' for Active; 'I' for Inactive)
REMARK    1  A    between atoms: C_1  and  C_2
REMARK    2  A    between atoms: C_9  and  C_11
REMARK    3  A    between atoms: N_13  and  C_14
REMARK    4  A    between atoms: C_14  and  C_16
REMARK    5  A    between atoms: C_14  and  C_17
REMARK    6  A    between atoms: C_20  and  N_23
REMARK                            x       y       z     vdW  Elec       q    Type
REMARK                         _______ _______ _______ _____ _____    ______ ____
ROOT
ATOM      1  C   UNL     1       2.241  -7.614   3.318  0.00  0.00    +0.100 C 
ATOM      2  C   UNL     1       1.875  -7.830   4.788  0.00  0.00    +0.033 C 
ENDROOT
BRANCH   1   3
ATOM      3  C   UNL     1       2.069  -8.906   2.562  0.00  0.00    -0.027 A 
ATOM      4  C   UNL     1       0.810  -9.301   2.150  0.00  0.00    +0.007 A 
ATOM      5  C   UNL     1       0.649 -10.484   1.456  0.00  0.00    +0.023 A 
ATOM      6  C   UNL     1       1.753 -11.278   1.174  0.00  0.00    +0.035 A 
ATOM      7  C   UNL     1       3.016 -10.878   1.590  0.00  0.00    +0.023 A 
ATOM      8  C   UNL     1       3.171  -9.691   2.278  0.00  0.00    +0.007 A 
BRANCH   6   9
ATOM      9  N   UNL     1       1.593 -12.478   0.472  0.00  0.00    -0.270 N 
ATOM     10  C   UNL     1       0.637 -12.584  -0.473  0.00  0.00    +0.301 C 
ATOM     11  O   UNL     1      -0.021 -11.610  -0.783  0.00  0.00    -0.253 OA
ATOM     12  N   UNL     1       0.411 -13.769  -1.073  0.00  0.00    -0.313 N 
ATOM     13  H   UNL     1       2.169 -13.234   0.666  0.00  0.00    +0.156 HD
ATOM     14  H   UNL     1       0.936 -14.546  -0.825  0.00  0.00    +0.146 HD
ATOM     15  H   UNL     1      -0.276 -13.845  -1.753  0.00  0.00    +0.146 HD
ENDBRANCH   6   9
ENDBRANCH   1   3
BRANCH   1  18
ATOM     16  C   UNL     1       1.675  -5.285   2.877  0.00  0.00    +0.251 C 
ATOM     17  O   UNL     1       2.681  -4.957   3.478  0.00  0.00    -0.270 OA
ATOM     18  N   UNL     1       1.366  -6.590   2.742  0.00  0.00    -0.304 N 
ATOM     19  H   UNL     1       0.564  -6.852   2.264  0.00  0.00    +0.150 HD
BRANCH  16  27
ATOM     20  C   UNL     1      -1.102   1.366   0.567  0.00  0.00    +0.008 C 
ATOM     21  C   UNL     1      -0.968  -0.158   0.517  0.00  0.00    -0.009 C 
ATOM     22  C   UNL     1      -2.350  -0.795   0.688  0.00  0.00    +0.009 C 
ATOM     23  C   UNL     1      -2.246  -2.293   0.367  0.00  0.00    +0.043 C 
ATOM     24  C   UNL     1      -1.068  -2.856   1.107  0.00  0.00    -0.006 A 
ATOM     25  C   UNL     1      -0.059  -2.149   1.692  0.00  0.00    -0.036 A 
ATOM     26  C   UNL     1       0.931  -2.885   2.326  0.00  0.00    +0.024 A 
ATOM     27  C   UNL     1       0.798  -4.261   2.301  0.00  0.00    +0.074 A 
ATOM     28  S   UNL     1      -0.718  -4.464   1.385  0.00  0.00    -0.088 S 
ATOM     29  C   UNL     1      -0.042  -0.624   1.640  0.00  0.00    +0.039 C 
ENDBRANCH  16  27
ENDBRANCH   1  18
TORSDOF 4
