REMARK  Name = ZINC63836230
REMARK  7 active torsions:
REMARK  status: ('A' for Active; 'I' for Inactive)
REMARK    1  A    between atoms: C_1  and  N_2
REMARK    2  A    between atoms: N_2  and  C_3
REMARK    3  A    between atoms: C_3  and  C_4
REMARK    4  A    between atoms: C_10  and  C_12
REMARK    5  A    between atoms: C_12  and  C_13
REMARK    6  A    between atoms: C_13  and  C_14
REMARK    7  A    between atoms: C_22  and  C_24
REMARK                            x       y       z     vdW  Elec       q    Type
REMARK                         _______ _______ _______ _____ _____    ______ ____
ROOT
ATOM      1  C   UNL     1      -0.043  -0.139  -4.939  0.00  0.00    -0.034 C 
ATOM      2  C   UNL     1      -0.057   1.205  -5.095  0.00  0.00    +0.002 A 
ATOM      3  C   UNL     1      -0.055   2.317  -4.138  0.00  0.00    +0.048 A 
ATOM      4  C   UNL     1      -0.073   3.587  -4.606  0.00  0.00    +0.124 A 
ATOM      5  C   UNL     1      -0.092   3.865  -5.982  0.00  0.00    +0.040 A 
ATOM      6  C   UNL     1      -0.095   2.896  -6.921  0.00  0.00    +0.029 A 
ATOM      7  C   UNL     1      -0.077   1.525  -6.541  0.00  0.00    +0.043 A 
ATOM      8  N   UNL     1      -0.076   0.422  -7.250  0.00  0.00    -0.374 N 
ATOM      9  C   UNL     1      -0.048  -0.723  -6.334  0.00  0.00    +0.137 C 
ATOM     10  F   UNL     1      -0.072   4.613  -3.728  0.00  0.00    -0.205 F 
ATOM     11  H   UNL     1      -0.088   0.373  -8.219  0.00  0.00    +0.161 HD
ENDROOT
BRANCH   9  12
ATOM     12  C   UNL     1       1.197  -1.542  -6.559  0.00  0.00    -0.021 A 
ATOM     13  C   UNL     1       2.390  -0.914  -6.867  0.00  0.00    +0.009 A 
ATOM     14  C   UNL     1       3.532  -1.664  -7.073  0.00  0.00    +0.039 A 
ATOM     15  C   UNL     1       3.482  -3.044  -6.970  0.00  0.00    +0.123 A 
ATOM     16  C   UNL     1       2.287  -3.671  -6.662  0.00  0.00    +0.039 A 
ATOM     17  C   UNL     1       1.147  -2.919  -6.451  0.00  0.00    +0.009 A 
ATOM     18  F   UNL     1       4.598  -3.778  -7.172  0.00  0.00    -0.205 F 
ENDBRANCH   9  12
BRANCH   1  19
ATOM     19  C   UNL     1      -0.020  -0.899  -3.638  0.00  0.00    +0.043 C 
BRANCH  19  20
ATOM     20  C   UNL     1      -0.023   0.089  -2.470  0.00  0.00    +0.100 C 
BRANCH  20  23
ATOM     21  C   UNL     1      -0.018   1.461   0.010  0.00  0.00    +0.132 C 
ATOM     22  N   UNL     1       0.002  -0.004   0.002  0.00  0.00    -0.303 N 
ATOM     23  C   UNL     1       0.000  -0.672  -1.169  0.00  0.00    +0.216 C 
ATOM     24  O   UNL     1       0.017  -1.884  -1.175  0.00  0.00    -0.276 OA
BRANCH  22  25
ATOM     25  C   UNL     1       0.024  -0.743   1.267  0.00  0.00    +0.122 C 
BRANCH  25  26
ATOM     26  C   UNL     1      -1.411  -1.020   1.720  0.00  0.00    +0.072 C 
ATOM     27  C   UNL     1      -1.445  -1.703   3.113  0.00  0.00    +0.043 C 
ATOM     28  C   UNL     1      -2.577  -1.174   3.935  0.00  0.00    -0.019 C 
ATOM     29  C   UNL     1      -3.146  -0.031   3.608  0.00  0.00    +0.036 C 
ATOM     30  S   UNL     1      -2.298   0.538   2.144  0.00  0.00    -0.128 S 
ENDBRANCH  25  26
ENDBRANCH  22  25
ENDBRANCH  20  23
ENDBRANCH  19  20
ENDBRANCH   1  19
TORSDOF 6
