REMARK  Name = ZINC43262544
REMARK  6 active torsions:
REMARK  status: ('A' for Active; 'I' for Inactive)
REMARK    1  A    between atoms: C_1  and  C_2
REMARK    2  A    between atoms: C_6  and  C_20
REMARK    3  A    between atoms: N_9  and  C_10
REMARK    4  A    between atoms: C_10  and  C_12
REMARK    5  A    between atoms: C_10  and  C_14
REMARK    6  A    between atoms: C_12  and  N_13
REMARK                            x       y       z     vdW  Elec       q    Type
REMARK                         _______ _______ _______ _____ _____    ______ ____
ROOT
ATOM      1  C   UNL     1       0.563   1.808  -0.392  0.00  0.00    +0.024 C 
ATOM      2  C   UNL     1       0.253   0.311  -0.322  0.00  0.00    +0.054 C 
ATOM      3  C   UNL     1      -1.247   0.091  -0.530  0.00  0.00    +0.019 C 
ATOM      4  C   UNL     1      -1.556  -1.406  -0.439  0.00  0.00    +0.015 C 
ATOM      5  C   UNL     1      -1.092  -1.933   0.922  0.00  0.00    +0.089 C 
ATOM      6  C   UNL     1       0.403  -1.654   1.089  0.00  0.00    +0.098 C 
ATOM      7  N   UNL     1       0.646  -0.208   0.994  0.00  0.00    -0.293 NA
ENDROOT
BRANCH   5   8
ATOM      8  C   UNL     1      -1.339  -3.417   0.998  0.00  0.00    +0.215 C 
ATOM      9  O   UNL     1      -0.411  -4.178   1.172  0.00  0.00    -0.276 OA
ATOM     10  N   UNL     1      -2.592  -3.899   0.873  0.00  0.00    -0.329 N 
ATOM     11  H   UNL     1      -3.334  -3.290   0.734  0.00  0.00    +0.145 HD
ATOM     12  H   UNL     1      -2.751  -4.854   0.922  0.00  0.00    +0.145 HD
ENDBRANCH   5   8
BRANCH   7  13
ATOM     13  C   UNL     1       2.050   0.109   1.287  0.00  0.00    +0.076 C 
BRANCH  13  14
ATOM     14  C   UNL     1       2.929  -0.447   0.197  0.00  0.00    +0.006 A 
ATOM     15  C   UNL     1       3.912   0.169  -0.504  0.00  0.00    +0.014 A 
ATOM     16  C   UNL     1       4.596  -0.545  -1.470  0.00  0.00    +0.023 A 
ATOM     17  C   UNL     1       4.262  -1.842  -1.687  0.00  0.00    +0.055 A 
ATOM     18  S   UNL     1       2.952  -2.090  -0.501  0.00  0.00    -0.085 S 
ATOM     19 BR   UNL     1       4.999  -3.071  -2.921  0.00  0.00    -0.043 Br
ENDBRANCH  13  14
BRANCH  13  20
ATOM     20  C   UNL     1       2.445  -0.513   2.628  0.00  0.00    -0.062 C 
BRANCH  20  21
ATOM     21  N   UNL     1       1.513  -0.063   3.670  0.00  0.00    +0.379 N 
ATOM     22  H   UNL     1       1.773  -0.474   4.554  0.00  0.00    -0.090 HD
ATOM     23  H   UNL     1       1.549   0.942   3.743  0.00  0.00    -0.090 HD
ATOM     24  H   UNL     1       0.576  -0.349   3.429  0.00  0.00    -0.090 HD
ENDBRANCH  20  21
ENDBRANCH  13  20
ENDBRANCH   7  13
TORSDOF 5
