REMARK  Name = ZINC35781934
REMARK  7 active torsions:
REMARK  status: ('A' for Active; 'I' for Inactive)
REMARK    1  A    between atoms: C_1  and  C_2
REMARK    2  A    between atoms: C_2  and  N_3
REMARK    3  A    between atoms: C_5  and  N_8
REMARK    4  A    between atoms: N_8  and  S_9
REMARK    5  A    between atoms: S_9  and  C_12
REMARK    6  A    between atoms: C_15  and  C_17
REMARK    7  A    between atoms: C_17  and  N_18
REMARK                            x       y       z     vdW  Elec       q    Type
REMARK                         _______ _______ _______ _____ _____    ______ ____
ROOT
ATOM      1  S   UNL     1      -5.081  -3.459  -0.311  0.00  0.00    +0.079 S 
ATOM      2  O   UNL     1      -5.907  -4.136  -1.248  0.00  0.00    -0.149 OA
ATOM      3  O   UNL     1      -4.223  -4.149   0.588  0.00  0.00    -0.149 OA
ENDROOT
BRANCH   1   4
ATOM      4  C   UNL     1      -6.150  -2.465   0.677  0.00  0.00    +0.146 A 
ATOM      5  C   UNL     1      -7.382  -1.983   0.381  0.00  0.00    +0.037 A 
ATOM      6  C   UNL     1      -8.045  -1.216   1.321  0.00  0.00    +0.011 A 
ATOM      7  C   UNL     1      -7.443  -0.970   2.511  0.00  0.00    -0.026 A 
ATOM      8  S   UNL     1      -5.895  -1.839   2.329  0.00  0.00    -0.075 S 
BRANCH   7   9
ATOM      9  C   UNL     1      -7.952  -0.172   3.684  0.00  0.00    -0.043 C 
BRANCH   9  10
ATOM     10  N   UNL     1      -8.692  -1.058   4.593  0.00  0.00    +0.381 N 
ATOM     11  H   UNL     1      -9.033  -0.524   5.379  0.00  0.00    -0.090 HD
ATOM     12  H   UNL     1      -9.472  -1.468   4.102  0.00  0.00    -0.090 HD
ATOM     13  H   UNL     1      -8.080  -1.788   4.923  0.00  0.00    -0.090 HD
ENDBRANCH   9  10
ENDBRANCH   7   9
ENDBRANCH   1   4
BRANCH   1  14
ATOM     14  N   UNL     1      -4.122  -2.429  -1.183  0.00  0.00    -0.213 N 
ATOM     15  H   UNL     1      -4.194  -2.401  -2.150  0.00  0.00    +0.174 HD
BRANCH  14  18
ATOM     16  N   UNL     1      -1.372  -0.511   0.012  0.00  0.00    -0.270 N 
ATOM     17  C   UNL     1      -1.912  -1.379  -0.884  0.00  0.00    +0.132 A 
ATOM     18  C   UNL     1      -3.202  -1.593  -0.521  0.00  0.00    +0.085 A 
ATOM     19  C   UNL     1      -3.457  -0.834   0.630  0.00  0.00    +0.158 A 
ATOM     20  N   UNL     1      -2.362  -0.193   0.951  0.00  0.00    -0.178 NA
BRANCH  16  22
ATOM     21  C   UNL     1      -0.019   1.526   0.010  0.00  0.00    +0.029 C 
ATOM     22  C   UNL     1       0.002  -0.004   0.002  0.00  0.00    +0.140 C 
ENDBRANCH  16  22
ENDBRANCH  14  18
ENDBRANCH   1  14
TORSDOF 6
