REMARK  Name = ZINC08767049
REMARK  11 active torsions:
REMARK  status: ('A' for Active; 'I' for Inactive)
REMARK    1  A    between atoms: C_1  and  C_2
REMARK    2  A    between atoms: C_2  and  O_3
REMARK    3  A    between atoms: O_3  and  C_4
REMARK    4  A    between atoms: C_4  and  C_6
REMARK    5  A    between atoms: C_7  and  C_41
REMARK    6  A    between atoms: C_14  and  C_15
REMARK    7  A    between atoms: C_18  and  N_20
REMARK    8  A    between atoms: C_25  and  N_73
REMARK    9  A    between atoms: C_27  and  C_29
REMARK   10  A    between atoms: C_38  and  O_39
REMARK   11  A    between atoms: O_39  and  C_40
REMARK                            x       y       z     vdW  Elec       q    Type
REMARK                         _______ _______ _______ _____ _____    ______ ____
ROOT
ATOM      1  C   UNL     1      -3.942   5.906  -0.471  0.00  0.00    +0.085 C 
ATOM      2  C   UNL     1      -4.934   4.969  -0.379  0.00  0.00    +0.053 C 
ATOM      3  N   UNL     1      -4.637   3.683  -0.250  0.00  0.00    -0.228 NA
ATOM      4  C   UNL     1      -3.421   3.197  -0.201  0.00  0.00    +0.178 A 
ATOM      5  N   UNL     1      -2.283   3.966  -0.277  0.00  0.00    -0.275 N 
ATOM      6  C   UNL     1      -1.097   3.347  -0.216  0.00  0.00    +0.268 A 
ATOM      7  O   UNL     1      -0.057   3.979  -0.278  0.00  0.00    -0.266 OA
ATOM      8  C   UNL     1      -1.086   1.938  -0.077  0.00  0.00    +0.084 A 
ATOM      9  C   UNL     1      -0.013   1.076   0.008  0.00  0.00    +0.067 C 
ATOM     10  S   UNL     1      -2.833   1.575  -0.048  0.00  0.00    -0.046 S 
ATOM     11  C   UNL     1      -2.507   5.431  -0.423  0.00  0.00    +0.166 C 
ATOM     12  C   UNL     1      -6.376   5.402  -0.422  0.00  0.00    +0.066 C 
ENDROOT
BRANCH  11  13
ATOM     13  C   UNL     1      -1.828   6.121   0.732  0.00  0.00    +0.029 A 
ATOM     14  C   UNL     1      -1.050   7.269   0.510  0.00  0.00    -0.009 A 
ATOM     15  C   UNL     1      -0.886   7.800  -0.782  0.00  0.00    +0.009 A 
ATOM     16  C   UNL     1      -0.126   8.915  -0.960  0.00  0.00    +0.001 A 
ATOM     17  C   UNL     1       0.495   9.540   0.120  0.00  0.00    +0.001 A 
ATOM     18  C   UNL     1       0.359   9.054   1.384  0.00  0.00    +0.008 A 
ATOM     19  C   UNL     1      -0.419   7.905   1.608  0.00  0.00    -0.017 A 
ATOM     20  C   UNL     1      -0.582   7.376   2.900  0.00  0.00    +0.012 A 
ATOM     21  C   UNL     1      -1.341   6.263   3.082  0.00  0.00    +0.046 A 
ATOM     22  C   UNL     1      -1.970   5.636   2.001  0.00  0.00    +0.126 A 
BRANCH  22  23
ATOM     23  O   UNL     1      -2.727   4.529   2.215  0.00  0.00    -0.495 OA
ATOM     24  C   UNL     1      -2.837   4.069   3.564  0.00  0.00    +0.277 C 
ENDBRANCH  22  23
ENDBRANCH  11  13
BRANCH   9  25
ATOM     25  C   UNL     1       1.293   1.557  -0.191  0.00  0.00    +0.131 A 
ATOM     26  C   UNL     1       2.461   0.823  -0.067  0.00  0.00    +0.051 A 
ATOM     27  C   UNL     1       3.515   1.693  -0.355  0.00  0.00    +0.066 A 
ATOM     28  C   UNL     1       2.967   2.912  -0.634  0.00  0.00    +0.189 A 
ATOM     29  O   UNL     1       1.632   2.821  -0.533  0.00  0.00    -0.442 OA
BRANCH  28  30
ATOM     30  N   UNL     1       3.672   4.052  -0.965  0.00  0.00    -0.305 N 
ATOM     31  C   UNL     1       4.659   4.380   0.072  0.00  0.00    +0.089 C 
ATOM     32  C   UNL     1       5.471   5.600  -0.369  0.00  0.00    -0.060 C 
ATOM     33  C   UNL     1       3.575   6.403  -1.642  0.00  0.00    -0.060 C 
ATOM     34  C   UNL     1       2.763   5.183  -1.201  0.00  0.00    +0.089 C 
ATOM     35  C   UNL     1       5.313   7.944  -0.957  0.00  0.00    -0.096 C 
ATOM     36  N   UNL     1       4.549   6.736  -0.581  0.00  0.00    +0.380 N 
ATOM     37  H   UNL     1       4.041   6.920   0.292  0.00  0.00    -0.082 HD
ENDBRANCH  28  30
ENDBRANCH   9  25
BRANCH   1  38
ATOM     38  C   UNL     1      -4.246   7.270  -0.606  0.00  0.00    +0.339 C 
ATOM     39  O   UNL     1      -5.409   7.633  -0.642  0.00  0.00    -0.245 OA
BRANCH  38  40
ATOM     40  O   UNL     1      -3.251   8.179  -0.696  0.00  0.00    -0.462 OA
BRANCH  40  42
ATOM     41  C   UNL     1      -2.381  10.422  -0.918  0.00  0.00    +0.048 C 
ATOM     42  C   UNL     1      -3.634   9.549  -0.832  0.00  0.00    +0.229 C 
ENDBRANCH  40  42
ENDBRANCH  38  40
ENDBRANCH   1  38
TORSDOF 7
