REMARK  Name = ZINC33014905
REMARK  12 active torsions:
REMARK  status: ('A' for Active; 'I' for Inactive)
REMARK    1  A    between atoms: C_1  and  C_2
REMARK    2  A    between atoms: C_5  and  N_9
REMARK    3  A    between atoms: C_7  and  C_8
REMARK    4  A    between atoms: C_19  and  N_20
REMARK    5  A    between atoms: N_20  and  C_21
REMARK    6  A    between atoms: C_21  and  C_22
REMARK    7  A    between atoms: C_22  and  C_24
REMARK    8  A    between atoms: C_22  and  N_32
REMARK    9  A    between atoms: C_27  and  O_30
REMARK   10  A    between atoms: O_30  and  C_31
REMARK   11  A    between atoms: N_32  and  C_33
REMARK   12  A    between atoms: N_32  and  C_34
REMARK                            x       y       z     vdW  Elec       q    Type
REMARK                         _______ _______ _______ _____ _____    ______ ____
ROOT
ATOM      1  N   UNL     1       1.924   0.641  -0.176  0.00  0.00    -0.202 N 
ATOM      2  C   UNL     1       1.826  -0.591   0.347  0.00  0.00    +0.258 C 
ATOM      3  O   UNL     1       2.794  -1.328   0.326  0.00  0.00    -0.269 OA
ATOM      4  C   UNL     1       0.572  -1.064   0.946  0.00  0.00    +0.046 A 
ATOM      5  C   UNL     1       0.463  -2.344   1.492  0.00  0.00    +0.014 A 
ATOM      6  C   UNL     1      -0.732  -2.750   2.045  0.00  0.00    +0.001 A 
ATOM      7  C   UNL     1      -1.829  -1.902   2.064  0.00  0.00    +0.001 A 
ATOM      8  C   UNL     1      -1.743  -0.632   1.529  0.00  0.00    +0.009 A 
ATOM      9  C   UNL     1      -0.546  -0.204   0.968  0.00  0.00    +0.000 A 
ATOM     10  C   UNL     1      -0.400   1.145   0.382  0.00  0.00    +0.059 C 
ATOM     11  C   UNL     1      -1.456   2.030   0.367  0.00  0.00    +0.081 C 
ATOM     12  C   UNL     1       0.901   1.511  -0.190  0.00  0.00    +0.259 C 
ATOM     13  O   UNL     1       1.054   2.615  -0.680  0.00  0.00    -0.269 OA
ENDROOT
BRANCH   1  18
ATOM     14  C   UNL     1       6.877   2.246  -2.433  0.00  0.00    +0.044 C 
ATOM     15  C   UNL     1       5.562   1.820  -1.834  0.00  0.00    -0.047 A 
ATOM     16  C   UNL     1       5.454   1.633  -0.468  0.00  0.00    +0.005 A 
ATOM     17  C   UNL     1       4.250   1.243   0.085  0.00  0.00    +0.024 A 
ATOM     18  C   UNL     1       3.147   1.038  -0.734  0.00  0.00    +0.045 A 
ATOM     19  C   UNL     1       3.260   1.220  -2.105  0.00  0.00    +0.027 A 
ATOM     20  C   UNL     1       4.465   1.616  -2.651  0.00  0.00    -0.046 A 
ATOM     21  C   UNL     1       4.587   1.820  -4.139  0.00  0.00    +0.044 C 
ENDBRANCH   1  18
BRANCH  11  22
ATOM     22  N   UNL     1      -2.732   1.564   0.350  0.00  0.00    -0.350 N 
ATOM     23  H   UNL     1      -2.923   0.486   0.240  0.00  0.00    +0.145 HD
BRANCH  22  24
ATOM     24  C   UNL     1      -3.854   2.498   0.477  0.00  0.00    +0.090 C 
BRANCH  24  25
ATOM     25  C   UNL     1      -5.171   1.740   0.296  0.00  0.00    -0.021 C 
BRANCH  25  26
ATOM     26  C   UNL     1      -5.232   1.165  -1.095  0.00  0.00    -0.059 A 
ATOM     27  C   UNL     1      -5.594   1.969  -2.160  0.00  0.00    +0.005 A 
ATOM     28  C   UNL     1      -5.646   1.446  -3.437  0.00  0.00    +0.046 A 
ATOM     29  C   UNL     1      -5.345   0.108  -3.650  0.00  0.00    +0.120 A 
ATOM     30  C   UNL     1      -4.987  -0.699  -2.579  0.00  0.00    +0.046 A 
ATOM     31  C   UNL     1      -4.931  -0.169  -1.305  0.00  0.00    +0.005 A 
BRANCH  29  32
ATOM     32  O   UNL     1      -5.399  -0.411  -4.904  0.00  0.00    -0.495 OA
ATOM     33  C   UNL     1      -5.775   0.478  -5.958  0.00  0.00    +0.277 C 
ENDBRANCH  29  32
ENDBRANCH  25  26
BRANCH  25  34
ATOM     34  N   UNL     1      -6.297   2.662   0.495  0.00  0.00    +0.382 N 
ATOM     35  C   UNL     1      -7.581   1.956   0.382  0.00  0.00    -0.096 C 
ATOM     36  C   UNL     1      -6.189   3.355   1.785  0.00  0.00    -0.096 C 
ATOM     37  H   UNL     1      -6.258   3.421  -0.301  0.00  0.00    -0.082 HD
ENDBRANCH  25  34
ENDBRANCH  24  25
ENDBRANCH  22  24
ENDBRANCH  11  22
TORSDOF 7
