REMARK  Name = ZINC20627053
REMARK  5 active torsions:
REMARK  status: ('A' for Active; 'I' for Inactive)
REMARK    1  A    between atoms: C_3  and  N_15
REMARK    2  A    between atoms: C_5  and  S_7
REMARK    3  A    between atoms: S_7  and  N_10
REMARK    4  A    between atoms: N_15  and  S_16
REMARK    5  A    between atoms: S_16  and  C_19
REMARK                            x       y       z     vdW  Elec       q    Type
REMARK                         _______ _______ _______ _____ _____    ______ ____
ROOT
ATOM      1  C   UNL     1      -3.001  -1.268   1.752  0.00  0.00    +0.004 A 
ATOM      2  C   UNL     1      -1.885  -0.491   1.508  0.00  0.00    +0.027 A 
ATOM      3  C   UNL     1      -1.972   0.892   1.596  0.00  0.00    +0.076 A 
ATOM      4  C   UNL     1      -3.180   1.489   1.933  0.00  0.00    +0.055 A 
ATOM      5  C   UNL     1      -4.293   0.707   2.171  0.00  0.00    +0.107 A 
ATOM      6  C   UNL     1      -4.203  -0.671   2.083  0.00  0.00    +0.028 A 
ENDROOT
BRANCH   5   7
ATOM      7  S   UNL     1      -5.827   1.463   2.594  0.00  0.00    +0.061 S 
ATOM      8  O   UNL     1      -5.784   2.786   2.076  0.00  0.00    -0.153 OA
ATOM      9  O   UNL     1      -6.847   0.539   2.239  0.00  0.00    -0.153 OA
BRANCH   7  10
ATOM     10  N   UNL     1      -5.867   1.601   4.244  0.00  0.00    -0.177 NA
ATOM     11  C   UNL     1      -6.403   0.598   5.175  0.00  0.00    +0.109 C 
ATOM     12  C   UNL     1      -6.251   1.168   6.600  0.00  0.00    +0.018 C 
ATOM     13  C   UNL     1      -6.165   2.697   6.354  0.00  0.00    +0.018 C 
ATOM     14  C   UNL     1      -5.376   2.753   5.021  0.00  0.00    +0.109 C 
ENDBRANCH   7  10
ENDBRANCH   5   7
BRANCH   3  15
ATOM     15  N   UNL     1      -0.846   1.681   1.350  0.00  0.00    -0.098 NA
BRANCH  15  16
ATOM     16  S   UNL     1       0.106   1.377   0.030  0.00  0.00    +0.094 S 
ATOM     17  O   UNL     1       0.439  -0.003   0.078  0.00  0.00    -0.148 OA
ATOM     18  O   UNL     1       1.094   2.398  -0.002  0.00  0.00    -0.148 OA
BRANCH  16  19
ATOM     19  C   UNL     1      -0.898   1.604  -1.400  0.00  0.00    +0.137 A 
ATOM     20  C   UNL     1      -1.182   0.538  -2.235  0.00  0.00    +0.058 A 
ATOM     21  C   UNL     1      -1.963   0.746  -3.324  0.00  0.00    +0.081 A 
ATOM     22  S   UNL     1      -2.312   2.492  -3.200  0.00  0.00    -0.063 S 
ATOM     23  C   UNL     1      -1.401   2.826  -1.702  0.00  0.00    +0.106 A 
ATOM     24 CL   UNL     1      -1.208   4.328  -0.851  0.00  0.00    -0.074 Cl
ATOM     25 CL   UNL     1      -2.482  -0.390  -4.530  0.00  0.00    -0.076 Cl
ENDBRANCH  16  19
ENDBRANCH  15  16
ENDBRANCH   3  15
TORSDOF 5
