REMARK  Name = ZINC02275310
REMARK  6 active torsions:
REMARK  status: ('A' for Active; 'I' for Inactive)
REMARK    1  A    between atoms: C_1  and  C_2
REMARK    2  A    between atoms: C_2  and  C_32
REMARK    3  A    between atoms: C_6  and  N_24
REMARK    4  A    between atoms: C_12  and  N_16
REMARK    5  A    between atoms: N_16  and  C_17
REMARK    6  A    between atoms: C_17  and  C_18
REMARK                            x       y       z     vdW  Elec       q    Type
REMARK                         _______ _______ _______ _____ _____    ______ ____
ROOT
ATOM      1  C   UNL     1      -1.423  -0.473   0.549  0.00  0.00    +0.041 C 
ATOM      2  C   UNL     1      -0.025   0.033   0.184  0.00  0.00    +0.068 C 
ATOM      3  C   UNL     1      -0.029   1.562   0.132  0.00  0.00    +0.070 C 
ATOM      4  C   UNL     1       1.387   2.070   0.059  0.00  0.00    -0.024 A 
ATOM      5  C   UNL     1       2.451   1.285   0.375  0.00  0.00    +0.020 A 
ATOM      6  C   UNL     1       3.747   1.805   0.297  0.00  0.00    +0.105 A 
ATOM      7  C   UNL     1       2.939   3.842  -0.402  0.00  0.00    +0.089 A 
ATOM      8  C   UNL     1       1.603   3.409  -0.351  0.00  0.00    +0.037 A 
ATOM      9  C   UNL     1       0.587   4.406  -0.735  0.00  0.00    +0.115 A 
ATOM     10  C   UNL     1       1.077   5.667  -1.105  0.00  0.00    +0.083 A 
ATOM     11  S   UNL     1       2.835   5.529  -0.947  0.00  0.00    -0.065 S 
ATOM     12  C   UNL     1       0.201   6.675  -1.485  0.00  0.00    +0.159 A 
ATOM     13  N   UNL     1      -1.103   6.395  -1.481  0.00  0.00    -0.113 NA
ATOM     14  N   UNL     1      -1.517   5.230  -1.136  0.00  0.00    -0.041 NA
ATOM     15  N   UNL     1      -0.755   4.266  -0.778  0.00  0.00    -0.128 NA
ATOM     16  C   UNL     1       2.271  -0.147   0.810  0.00  0.00    +0.199 C 
ATOM     17  O   UNL     1       0.914  -0.383   1.182  0.00  0.00    -0.369 OA
ATOM     18  C   UNL     1       0.388  -0.528  -1.178  0.00  0.00    +0.041 C 
ATOM     19  N   UNL     1       4.018   3.084  -0.089  0.00  0.00    -0.337 N 
ATOM     20  H   UNL     1       4.976   3.449  -0.140  0.00  0.00    +0.168 HD
ENDROOT
BRANCH   6  21
ATOM     21  N   UNL     1       4.832   1.003   0.624  0.00  0.00    -0.312 N 
ATOM     22  C   UNL     1       5.572   1.558   1.767  0.00  0.00    +0.134 C 
ATOM     23  C   UNL     1       6.722   0.614   2.131  0.00  0.00    +0.178 C 
ATOM     24  O   UNL     1       7.557   0.424   0.986  0.00  0.00    -0.377 OA
ATOM     25  C   UNL     1       6.868  -0.116  -0.146  0.00  0.00    +0.178 C 
ATOM     26  C   UNL     1       5.721   0.821  -0.533  0.00  0.00    +0.134 C 
ENDBRANCH   6  21
BRANCH  12  27
ATOM     27  N   UNL     1       0.666   7.928  -1.855  0.00  0.00    -0.323 N 
ATOM     28  H   UNL     1       1.618   8.113  -1.852  0.00  0.00    +0.148 HD
BRANCH  27  29
ATOM     29  C   UNL     1      -0.282   8.973  -2.251  0.00  0.00    +0.138 C 
BRANCH  29  30
ATOM     30  C   UNL     1       0.473  10.228  -2.604  0.00  0.00    -0.030 A 
ATOM     31  C   UNL     1       0.740  11.171  -1.628  0.00  0.00    +0.005 A 
ATOM     32  C   UNL     1       1.437  12.320  -1.950  0.00  0.00    +0.000 A 
ATOM     33  C   UNL     1       1.858  12.532  -3.250  0.00  0.00    +0.000 A 
ATOM     34  C   UNL     1       1.586  11.592  -4.226  0.00  0.00    +0.000 A 
ATOM     35  C   UNL     1       0.894  10.440  -3.903  0.00  0.00    +0.005 A 
ENDBRANCH  29  30
ENDBRANCH  27  29
ENDBRANCH  12  27
TORSDOF 4
