REMARK  Name = ZINC06557924
REMARK  8 active torsions:
REMARK  status: ('A' for Active; 'I' for Inactive)
REMARK    1  A    between atoms: C_1  and  C_2
REMARK    2  A    between atoms: C_5  and  C_8
REMARK    3  A    between atoms: C_11  and  S_14
REMARK    4  A    between atoms: N_12  and  N_13
REMARK    5  A    between atoms: S_14  and  C_15
REMARK    6  A    between atoms: C_15  and  C_17
REMARK    7  A    between atoms: C_15  and  C_18
REMARK    8  A    between atoms: N_20  and  C_21
REMARK                            x       y       z     vdW  Elec       q    Type
REMARK                         _______ _______ _______ _____ _____    ______ ____
ROOT
ATOM      1  S   UNL     1      -3.250   1.268   0.175  0.00  0.00    -0.072 S 
ENDROOT
BRANCH   1   5
ATOM      2  C   UNL     1      -0.265   1.896  -2.267  0.00  0.00    +0.182 A 
ATOM      3  N   UNL     1      -1.295   2.334  -2.952  0.00  0.00    -0.127 NA
ATOM      4  N   UNL     1      -2.372   2.194  -2.265  0.00  0.00    -0.121 NA
ATOM      5  C   UNL     1      -2.096   1.651  -1.100  0.00  0.00    +0.209 A 
ATOM      6  N   UNL     1      -0.747   1.439  -1.062  0.00  0.00    -0.224 N 
BRANCH   2  11
ATOM      7  C   UNL     1       5.227   1.874  -3.983  0.00  0.00    +0.044 C 
ATOM      8  C   UNL     1       3.789   1.880  -3.534  0.00  0.00    -0.050 A 
ATOM      9  C   UNL     1       3.396   1.085  -2.472  0.00  0.00    +0.004 A 
ATOM     10  C   UNL     1       2.081   1.085  -2.055  0.00  0.00    +0.012 A 
ATOM     11  C   UNL     1       1.146   1.890  -2.708  0.00  0.00    +0.021 A 
ATOM     12  C   UNL     1       1.548   2.686  -3.782  0.00  0.00    +0.012 A 
ATOM     13  C   UNL     1       2.867   2.680  -4.184  0.00  0.00    +0.004 A 
ENDBRANCH   2  11
BRANCH   6  14
ATOM     14  N   UNL     1      -0.026   0.893  -0.038  0.00  0.00    -0.295 N 
ATOM     15  H   UNL     1       0.119  -0.095  -0.185  0.00  0.00    +0.163 HD
ATOM     16  H   UNL     1       0.853   1.373   0.082  0.00  0.00    +0.163 HD
ENDBRANCH   6  14
ENDBRANCH   1   5
BRANCH   1  17
ATOM     17  C   UNL     1      -4.782   1.829  -0.610  0.00  0.00    +0.137 C 
ATOM     18  C   UNL     1      -4.726   3.345  -0.812  0.00  0.00    +0.029 C 
BRANCH  17  19
ATOM     19  C   UNL     1      -5.954   1.483   0.272  0.00  0.00    +0.227 C 
ATOM     20  O   UNL     1      -5.795   1.345   1.466  0.00  0.00    -0.275 OA
ATOM     21  N   UNL     1      -7.180   1.326  -0.267  0.00  0.00    -0.308 N 
ATOM     22  H   UNL     1      -7.307   1.436  -1.222  0.00  0.00    +0.149 HD
BRANCH  21  23
ATOM     23  C   UNL     1      -8.319   0.989   0.590  0.00  0.00    +0.103 C 
ATOM     24  C   UNL     1      -9.608   1.464  -0.076  0.00  0.00    +0.027 C 
ATOM     25  C   UNL     1     -10.796   0.915   0.723  0.00  0.00    +0.007 C 
ATOM     26  C   UNL     1     -10.863  -0.596   0.509  0.00  0.00    +0.035 C 
ATOM     27  C   UNL     1      -9.522  -1.228   0.775  0.00  0.00    -0.042 A 
ATOM     28  C   UNL     1      -8.353  -0.501   0.808  0.00  0.00    -0.024 A 
ATOM     29  C   UNL     1      -7.148  -1.147   1.052  0.00  0.00    +0.006 A 
ATOM     30  C   UNL     1      -7.114  -2.510   1.265  0.00  0.00    +0.000 A 
ATOM     31  C   UNL     1      -8.287  -3.239   1.235  0.00  0.00    +0.000 A 
ATOM     32  C   UNL     1      -9.485  -2.600   0.990  0.00  0.00    +0.004 A 
ENDBRANCH  21  23
ENDBRANCH  17  19
ENDBRANCH   1  17
TORSDOF 6
