REMARK  Name = ZINC36547011
REMARK  12 active torsions:
REMARK  status: ('A' for Active; 'I' for Inactive)
REMARK    1  A    between atoms: C_1  and  C_2
REMARK    2  A    between atoms: C_2  and  C_3
REMARK    3  A    between atoms: C_3  and  C_4
REMARK    4  A    between atoms: N_6  and  C_7
REMARK    5  A    between atoms: N_6  and  C_14
REMARK    6  A    between atoms: C_14  and  C_16
REMARK    7  A    between atoms: C_14  and  C_23
REMARK    8  A    between atoms: C_19  and  O_22
REMARK    9  A    between atoms: N_25  and  C_26
REMARK   10  A    between atoms: C_26  and  S_27
REMARK   11  A    between atoms: S_27  and  C_30
REMARK   12  A    between atoms: C_33  and  C_36
REMARK                            x       y       z     vdW  Elec       q    Type
REMARK                         _______ _______ _______ _____ _____    ______ ____
ROOT
ATOM      1  C   UNL     1       1.869  -1.957  -3.439  0.00  0.00    +0.197 C 
ENDROOT
BRANCH   1   2
ATOM      2  C   UNL     1       0.633  -1.318  -4.020  0.00  0.00    -0.018 A 
ATOM      3  C   UNL     1      -0.256  -0.658  -3.193  0.00  0.00    +0.009 A 
ATOM      4  C   UNL     1      -1.389  -0.072  -3.723  0.00  0.00    +0.046 A 
ATOM      5  C   UNL     1      -1.634  -0.146  -5.087  0.00  0.00    +0.117 A 
ATOM      6  C   UNL     1      -0.739  -0.809  -5.915  0.00  0.00    +0.046 A 
ATOM      7  C   UNL     1       0.395  -1.389  -5.380  0.00  0.00    +0.009 A 
BRANCH   5   8
ATOM      8  O   UNL     1      -2.748   0.429  -5.611  0.00  0.00    -0.507 OA
ATOM      9  H   UNL     1      -2.625   1.348  -5.884  0.00  0.00    +0.292 HD
ENDBRANCH   5   8
ENDBRANCH   1   2
BRANCH   1  10
ATOM     10  C   UNL     1       2.647  -0.928  -2.660  0.00  0.00    +0.240 C 
ATOM     11  O   UNL     1       2.578  -0.905  -1.449  0.00  0.00    -0.273 OA
ATOM     12  N   UNL     1       3.419  -0.034  -3.308  0.00  0.00    -0.294 N 
ATOM     13  H   UNL     1       3.474  -0.053  -4.277  0.00  0.00    +0.150 HD
BRANCH  12  14
ATOM     14  C   UNL     1       4.176   0.966  -2.551  0.00  0.00    +0.278 C 
BRANCH  14  15
ATOM     15  S   UNL     1       5.863   0.362  -2.270  0.00  0.00    +0.013 S 
ATOM     16  O   UNL     1       6.629   1.348  -1.591  0.00  0.00    -0.168 OA
ATOM     17  O   UNL     1       5.832  -0.979  -1.803  0.00  0.00    -0.168 OA
BRANCH  15  18
ATOM     18  C   UNL     1       6.581   0.263  -3.876  0.00  0.00    +0.090 A 
ATOM     19  C   UNL     1       6.472  -0.903  -4.611  0.00  0.00    +0.027 A 
ATOM     20  C   UNL     1       7.035  -0.982  -5.871  0.00  0.00    +0.005 A 
ATOM     21  C   UNL     1       7.708   0.106  -6.396  0.00  0.00    -0.050 A 
ATOM     22  C   UNL     1       7.817   1.272  -5.662  0.00  0.00    +0.005 A 
ATOM     23  C   UNL     1       7.250   1.352  -4.404  0.00  0.00    +0.027 A 
ATOM     24  C   UNL     1       8.323   0.020  -7.769  0.00  0.00    +0.044 C 
ENDBRANCH  15  18
ENDBRANCH  14  15
ENDBRANCH  12  14
ENDBRANCH   1  10
BRANCH   1  27
ATOM     25  C   UNL     1       2.004  -4.281  -2.720  0.00  0.00    +0.221 C 
ATOM     26  O   UNL     1       1.614  -5.208  -2.043  0.00  0.00    -0.275 OA
ATOM     27  N   UNL     1       1.479  -3.052  -2.547  0.00  0.00    -0.254 N 
BRANCH  27  28
ATOM     28  C   UNL     1       0.560  -2.822  -1.516  0.00  0.00    +0.056 A 
ATOM     29  C   UNL     1       1.010  -2.486  -0.246  0.00  0.00    +0.025 A 
ATOM     30  C   UNL     1       0.101  -2.259   0.769  0.00  0.00    +0.002 A 
ATOM     31  C   UNL     1      -1.255  -2.367   0.522  0.00  0.00    +0.002 A 
ATOM     32  C   UNL     1      -1.707  -2.702  -0.741  0.00  0.00    +0.022 A 
ATOM     33  C   UNL     1      -0.803  -2.925  -1.763  0.00  0.00    +0.062 A 
ATOM     34 CL   UNL     1      -1.371  -3.338  -3.350  0.00  0.00    -0.082 Cl
ENDBRANCH  27  28
BRANCH  25  35
ATOM     35  C   UNL     1       3.076  -4.504  -3.755  0.00  0.00    +0.096 C 
BRANCH  35  37
ATOM     36  C   UNL     1       4.674  -6.169  -4.713  0.00  0.00    +0.004 C 
ATOM     37  C   UNL     1       3.585  -5.944  -3.662  0.00  0.00    +0.006 C 
ENDBRANCH  35  37
ENDBRANCH  25  35
ENDBRANCH   1  27
TORSDOF 10
