REMARK  Name = ZINC13021038
REMARK  6 active torsions:
REMARK  status: ('A' for Active; 'I' for Inactive)
REMARK    1  A    between atoms: C_4  and  C_7
REMARK    2  A    between atoms: C_7  and  N_8
REMARK    3  A    between atoms: C_9  and  C_27
REMARK    4  A    between atoms: C_12  and  S_13
REMARK    5  A    between atoms: S_13  and  C_14
REMARK    6  A    between atoms: C_14  and  C_15
REMARK                            x       y       z     vdW  Elec       q    Type
REMARK                         _______ _______ _______ _____ _____    ______ ____
ROOT
ATOM      1  N   UNL     1      -5.383  -0.285   0.094  0.00  0.00    -0.298 N 
ATOM      2  C   UNL     1      -6.051  -1.487   0.061  0.00  0.00    +0.168 A 
ATOM      3  N   UNL     1      -5.142  -2.433   0.022  0.00  0.00    -0.128 NA
ATOM      4  N   UNL     1      -3.967  -1.911   0.024  0.00  0.00    -0.122 NA
ATOM      5  C   UNL     1      -4.055  -0.601   0.064  0.00  0.00    +0.193 A 
ENDROOT
BRANCH   2   6
ATOM      6  C   UNL     1      -7.517  -1.678   0.074  0.00  0.00    +0.054 A 
ATOM      7  C   UNL     1      -8.305  -1.001   1.006  0.00  0.00    +0.014 A 
ATOM      8  C   UNL     1      -9.672  -1.184   1.013  0.00  0.00    +0.001 A 
ATOM      9  C   UNL     1     -10.265  -2.036   0.098  0.00  0.00    +0.003 A 
ATOM     10  C   UNL     1      -9.492  -2.711  -0.830  0.00  0.00    +0.039 A 
ATOM     11  C   UNL     1      -8.122  -2.534  -0.852  0.00  0.00    +0.134 A 
ATOM     12  F   UNL     1      -7.368  -3.189  -1.762  0.00  0.00    -0.205 F 
ENDBRANCH   2   6
BRANCH   1  13
ATOM     13  C   UNL     1      -5.974   1.055   0.148  0.00  0.00    +0.161 C 
BRANCH  13  17
ATOM     14  C   UNL     1      -6.875   2.376  -3.813  0.00  0.00    +0.000 A 
ATOM     15  C   UNL     1      -7.855   1.777  -3.044  0.00  0.00    +0.000 A 
ATOM     16  C   UNL     1      -7.564   1.349  -1.762  0.00  0.00    +0.005 A 
ATOM     17  C   UNL     1      -6.291   1.521  -1.249  0.00  0.00    -0.028 A 
ATOM     18  C   UNL     1      -5.312   2.124  -2.016  0.00  0.00    +0.005 A 
ATOM     19  C   UNL     1      -5.603   2.547  -3.300  0.00  0.00    +0.000 A 
ENDBRANCH  13  17
ENDBRANCH   1  13
BRANCH   5  20
ATOM     20  S   UNL     1      -2.709   0.537   0.082  0.00  0.00    -0.078 S 
BRANCH  20  21
ATOM     21  C   UNL     1      -1.318  -0.621   0.031  0.00  0.00    +0.151 C 
BRANCH  21  22
ATOM     22  C   UNL     1      -0.023   0.150   0.039  0.00  0.00    +0.121 A 
ATOM     23  N   UNL     1       1.142  -0.548   0.005  0.00  0.00    -0.310 N 
ATOM     24  H   UNL     1       1.121  -1.517  -0.023  0.00  0.00    +0.170 HD
ATOM     25  C   UNL     1       2.332   0.097   0.010  0.00  0.00    +0.259 A 
ATOM     26  O   UNL     1       3.383  -0.515  -0.021  0.00  0.00    -0.267 OA
ATOM     27  C   UNL     1       2.305   1.567   0.054  0.00  0.00    +0.065 A 
ATOM     28  C   UNL     1       3.474   2.325   0.064  0.00  0.00    +0.015 A 
ATOM     29  C   UNL     1       3.390   3.700   0.106  0.00  0.00    +0.001 A 
ATOM     30  C   UNL     1       2.154   4.332   0.139  0.00  0.00    +0.002 A 
ATOM     31  C   UNL     1       0.988   3.600   0.131  0.00  0.00    +0.028 A 
ATOM     32  C   UNL     1       1.046   2.206   0.089  0.00  0.00    +0.078 A 
ATOM     33  N   UNL     1      -0.078   1.446   0.079  0.00  0.00    -0.233 NA
ENDBRANCH  21  22
ENDBRANCH  20  21
ENDBRANCH   5  20
TORSDOF 6
