REMARK  Name = ZINC62886452
REMARK  5 active torsions:
REMARK  status: ('A' for Active; 'I' for Inactive)
REMARK    1  A    between atoms: C_1  and  C_2
REMARK    2  A    between atoms: C_2  and  C_3
REMARK    3  A    between atoms: C_2  and  N_11
REMARK    4  A    between atoms: C_12  and  C_14
REMARK    5  A    between atoms: C_16  and  C_19
REMARK                            x       y       z     vdW  Elec       q    Type
REMARK                         _______ _______ _______ _____ _____    ______ ____
ROOT
ATOM      1  N   UNL     1       0.666  -0.339  -1.260  0.00  0.00    -0.301 N 
ATOM      2  C   UNL     1      -0.059  -0.467  -2.389  0.00  0.00    +0.257 C 
ATOM      3  O   UNL     1      -1.261  -0.304  -2.360  0.00  0.00    -0.272 OA
ATOM      4  H   UNL     1       1.627  -0.469  -1.283  0.00  0.00    +0.150 HD
ENDROOT
BRANCH   2   5
ATOM      5  C   UNL     1       0.623  -0.812  -3.688  0.00  0.00    +0.295 C 
ATOM      6  C   UNL     1       1.460   0.380  -4.207  0.00  0.00    +0.117 C 
ATOM      7  C   UNL     1       1.248   0.304  -5.707  0.00  0.00    +0.098 C 
ATOM      8  N   UNL     1       0.236  -0.472  -5.934  0.00  0.00    -0.088 NA
ATOM      9  O   UNL     1      -0.340  -0.981  -4.747  0.00  0.00    -0.380 OA
BRANCH   7  10
ATOM     10  C   UNL     1       2.051   0.989  -6.725  0.00  0.00    +0.038 A 
ATOM     11  C   UNL     1       1.914   0.971  -8.102  0.00  0.00    +0.019 A 
ATOM     12  C   UNL     1       2.798   1.704  -8.857  0.00  0.00    +0.028 A 
ATOM     13  C   UNL     1       3.773   2.418  -8.233  0.00  0.00    +0.079 A 
ATOM     14  S   UNL     1       3.455   2.071  -6.511  0.00  0.00    -0.075 S 
ATOM     15 CL   UNL     1       5.008   3.418  -8.932  0.00  0.00    -0.076 Cl
ENDBRANCH   7  10
ENDBRANCH   2   5
BRANCH   1  17
ATOM     16  C   UNL     1      -0.157   1.515   0.107  0.00  0.00    +0.038 C 
ATOM     17  C   UNL     1       0.002  -0.003   0.002  0.00  0.00    +0.156 C 
BRANCH  17  18
ATOM     18  C   UNL     1       0.835  -0.501   1.155  0.00  0.00    +0.236 C 
ATOM     19  O   UNL     1       2.004  -0.774   0.986  0.00  0.00    -0.274 OA
ATOM     20  N   UNL     1       0.280  -0.644   2.375  0.00  0.00    -0.296 N 
ATOM     21  C   UNL     1      -1.162  -0.432   2.581  0.00  0.00    +0.136 C 
ATOM     22  C   UNL     1      -1.726  -1.643   3.332  0.00  0.00    +0.179 C 
ATOM     23  O   UNL     1      -0.945  -1.875   4.507  0.00  0.00    -0.377 OA
ATOM     24  C   UNL     1       0.422  -2.200   4.245  0.00  0.00    +0.179 C 
ATOM     25  C   UNL     1       1.096  -1.023   3.539  0.00  0.00    +0.136 C 
ENDBRANCH  17  18
ENDBRANCH   1  17
TORSDOF 4
