REMARK  Name = ZINC39683988
REMARK  6 active torsions:
REMARK  status: ('A' for Active; 'I' for Inactive)
REMARK    1  A    between atoms: C_1  and  C_2
REMARK    2  A    between atoms: C_2  and  C_4
REMARK    3  A    between atoms: C_2  and  N_8
REMARK    4  A    between atoms: N_6  and  C_7
REMARK    5  A    between atoms: C_9  and  C_11
REMARK    6  A    between atoms: C_22  and  C_24
REMARK                            x       y       z     vdW  Elec       q    Type
REMARK                         _______ _______ _______ _____ _____    ______ ____
ROOT
ATOM      1  C   UNL     1      -2.698  -0.584  -1.261  0.00  0.00    +0.100 C 
ATOM      2  C   UNL     1      -3.921  -0.112  -0.444  0.00  0.00    +0.121 C 
ATOM      3  N   UNL     1      -4.624   0.839  -1.337  0.00  0.00    -0.300 N 
ATOM      4  C   UNL     1      -4.519   0.226  -2.683  0.00  0.00    +0.115 C 
ATOM      5  C   UNL     1      -3.096  -0.363  -2.730  0.00  0.00    -0.004 C 
ATOM      6  C   UNL     1      -2.139   0.622  -3.395  0.00  0.00    -0.010 C 
ATOM      7  C   UNL     1      -2.521   0.781  -4.869  0.00  0.00    -0.082 C 
ATOM      8  N   UNL     1      -2.453  -0.524  -5.538  0.00  0.00    +0.379 N 
ATOM      9  C   UNL     1      -3.441  -1.438  -4.953  0.00  0.00    -0.082 C 
ATOM     10  C   UNL     1      -3.099  -1.691  -3.482  0.00  0.00    -0.010 C 
ATOM     11  C   UNL     1      -5.224   1.998  -1.002  0.00  0.00    +0.219 C 
ATOM     12  O   UNL     1      -5.158   2.408   0.138  0.00  0.00    -0.275 OA
ATOM     13  H   UNL     1      -2.645  -0.407  -6.521  0.00  0.00    -0.086 HD
ATOM     14  H   UNL     1      -1.529  -0.912  -5.422  0.00  0.00    -0.086 HD
ENDROOT
BRANCH  11  15
ATOM     15  C   UNL     1      -5.975   2.787  -2.043  0.00  0.00    +0.079 C 
ATOM     16  C   UNL     1      -6.011   4.267  -1.643  0.00  0.00    +0.017 C 
ATOM     17  C   UNL     1      -6.620   5.066  -2.797  0.00  0.00    +0.027 C 
ATOM     18  C   UNL     1      -7.899   4.427  -3.251  0.00  0.00    -0.031 C 
ATOM     19  C   UNL     1      -8.243   3.212  -2.967  0.00  0.00    -0.030 C 
ATOM     20  C   UNL     1      -7.413   2.272  -2.140  0.00  0.00    +0.039 C 
ENDBRANCH  11  15
BRANCH   1  22
ATOM     21  N   UNL     1      -0.253  -0.293  -1.019  0.00  0.00    -0.304 N 
ATOM     22  C   UNL     1      -1.486   0.243  -0.916  0.00  0.00    +0.219 C 
ATOM     23  O   UNL     1      -1.619   1.390  -0.547  0.00  0.00    -0.275 OA
ATOM     24  H   UNL     1      -0.146  -1.211  -1.314  0.00  0.00    +0.149 HD
BRANCH  21  26
ATOM     25  C   UNL     1       1.179   0.439   0.824  0.00  0.00    +0.038 C 
ATOM     26  C   UNL     1       0.925   0.510  -0.683  0.00  0.00    +0.156 C 
BRANCH  26  27
ATOM     27  C   UNL     1       2.125  -0.026  -1.421  0.00  0.00    +0.233 C 
ATOM     28  O   UNL     1       2.007  -0.985  -2.154  0.00  0.00    -0.274 OA
ATOM     29  N   UNL     1       3.329   0.559  -1.265  0.00  0.00    -0.317 N 
ATOM     30  C   UNL     1       4.495   0.038  -1.982  0.00  0.00    +0.128 C 
ATOM     31  H   UNL     1       3.423   1.326  -0.679  0.00  0.00    +0.148 HD
ENDBRANCH  26  27
ENDBRANCH  21  26
ENDBRANCH   1  22
TORSDOF 4
