REMARK  Name = ZINC36485124
REMARK  15 active torsions:
REMARK  status: ('A' for Active; 'I' for Inactive)
REMARK    1  A    between atoms: C_1  and  C_2
REMARK    2  A    between atoms: C_2  and  C_3
REMARK    3  A    between atoms: C_2  and  C_4
REMARK    4  A    between atoms: C_2  and  C_5
REMARK    5  A    between atoms: C_5  and  C_6
REMARK    6  A    between atoms: C_6  and  C_7
REMARK    7  A    between atoms: C_6  and  C_8
REMARK    8  A    between atoms: C_6  and  N_9
REMARK    9  A    between atoms: C_10  and  C_12
REMARK   10  A    between atoms: C_12  and  C_14
REMARK   11  A    between atoms: C_12  and  N_19
REMARK   12  A    between atoms: N_19  and  C_20
REMARK   13  A    between atoms: C_27  and  C_29
REMARK   14  A    between atoms: C_33  and  O_36
REMARK   15  A    between atoms: C_34  and  O_35
REMARK                            x       y       z     vdW  Elec       q    Type
REMARK                         _______ _______ _______ _____ _____    ______ ____
ROOT
ATOM      1  N   UNL     1       6.795  -0.087  -4.963  0.00  0.00    -0.248 N 
ATOM      2  C   UNL     1       6.819   0.436  -6.205  0.00  0.00    +0.256 C 
ATOM      3  O   UNL     1       5.780   0.753  -6.751  0.00  0.00    -0.269 OA
ENDROOT
BRANCH   1   4
ATOM      4  C   UNL     1       7.994  -0.345  -4.290  0.00  0.00    +0.039 A 
ATOM      5  C   UNL     1       8.479  -1.645  -4.205  0.00  0.00    +0.023 A 
ATOM      6  C   UNL     1       9.662  -1.897  -3.540  0.00  0.00    +0.003 A 
ATOM      7  C   UNL     1      10.365  -0.858  -2.958  0.00  0.00    +0.020 A 
ATOM      8  C   UNL     1       9.886   0.438  -3.040  0.00  0.00    +0.043 A 
ATOM      9  C   UNL     1       8.704   0.697  -3.710  0.00  0.00    +0.043 A 
ATOM     10 CL   UNL     1      10.771   1.739  -2.308  0.00  0.00    -0.083 Cl
ENDBRANCH   1   4
BRANCH   2  11
ATOM     11  C   UNL     1       8.106   0.625  -6.901  0.00  0.00    +0.082 A 
ATOM     12  C   UNL     1       9.280   0.087  -6.366  0.00  0.00    +0.017 A 
ATOM     13  C   UNL     1      10.480   0.265  -7.019  0.00  0.00    +0.005 A 
ATOM     14  C   UNL     1      10.531   0.977  -8.206  0.00  0.00    +0.049 A 
ATOM     15  C   UNL     1       9.377   1.517  -8.748  0.00  0.00    +0.159 A 
ATOM     16  C   UNL     1       8.157   1.339  -8.104  0.00  0.00    +0.171 A 
BRANCH  16  17
ATOM     17  O   UNL     1       7.022   1.861  -8.636  0.00  0.00    -0.503 OA
ATOM     18  H   UNL     1       6.827   2.761  -8.340  0.00  0.00    +0.292 HD
ENDBRANCH  16  17
BRANCH  15  19
ATOM     19  O   UNL     1       9.436   2.215  -9.914  0.00  0.00    -0.503 OA
ATOM     20  H   UNL     1       9.317   1.671 -10.705  0.00  0.00    +0.292 HD
ENDBRANCH  15  19
ENDBRANCH   2  11
BRANCH   1  21
ATOM     21  C   UNL     1       5.514  -0.386  -4.318  0.00  0.00    +0.233 C 
BRANCH  21  22
ATOM     22  C   UNL     1       5.508  -1.820  -3.853  0.00  0.00    +0.135 A 
ATOM     23  C   UNL     1       4.555  -2.730  -4.124  0.00  0.00    +0.047 A 
ATOM     24  C   UNL     1       4.949  -3.934  -3.496  0.00  0.00    +0.041 A 
ATOM     25  C   UNL     1       6.119  -3.687  -2.879  0.00  0.00    +0.195 A 
ATOM     26  O   UNL     1       6.455  -2.406  -3.104  0.00  0.00    -0.465 OA
ENDBRANCH  21  22
BRANCH  21  28
ATOM     27  N   UNL     1       4.207   0.432  -2.385  0.00  0.00    -0.308 N 
ATOM     28  C   UNL     1       5.323   0.527  -3.135  0.00  0.00    +0.242 C 
ATOM     29  O   UNL     1       6.173   1.346  -2.857  0.00  0.00    -0.273 OA
ATOM     30  H   UNL     1       3.527  -0.223  -2.607  0.00  0.00    +0.149 HD
BRANCH  27  31
ATOM     31  C   UNL     1       4.020   1.320  -1.234  0.00  0.00    +0.030 C 
ATOM     32  C   UNL     1       4.338   2.759  -1.643  0.00  0.00    +0.031 C 
ATOM     33  C   UNL     1       4.958   0.892  -0.103  0.00  0.00    +0.031 C 
BRANCH  31  34
ATOM     34  C   UNL     1       2.570   1.235  -0.754  0.00  0.00    +0.031 C 
BRANCH  34  36
ATOM     35  C   UNL     1       1.482  -0.105  -2.560  0.00  0.00    +0.010 C 
ATOM     36  C   UNL     1       1.630   1.294  -1.959  0.00  0.00    -0.036 C 
ATOM     37  C   UNL     1       2.208   2.243  -3.011  0.00  0.00    +0.010 C 
ATOM     38  C   UNL     1       0.259   1.805  -1.511  0.00  0.00    +0.010 C 
ENDBRANCH  34  36
ENDBRANCH  31  34
ENDBRANCH  27  31
ENDBRANCH  21  28
ENDBRANCH   1  21
TORSDOF 10
