REMARK  Name = ZINC13639195
REMARK  5 active torsions:
REMARK  status: ('A' for Active; 'I' for Inactive)
REMARK    1  A    between atoms: C_1  and  C_2
REMARK    2  A    between atoms: C_2  and  C_4
REMARK    3  A    between atoms: C_4  and  O_5
REMARK    4  A    between atoms: O_5  and  C_6
REMARK    5  A    between atoms: C_19  and  C_22
REMARK                            x       y       z     vdW  Elec       q    Type
REMARK                         _______ _______ _______ _____ _____    ______ ____
ROOT
ATOM      1  C   UNL     1      -3.611   5.159   1.468  0.00  0.00    +0.121 A 
ATOM      2  C   UNL     1      -2.970   6.319   1.877  0.00  0.00    +0.047 A 
ATOM      3  C   UNL     1      -1.613   6.466   1.682  0.00  0.00    +0.027 A 
ATOM      4  C   UNL     1      -0.876   5.455   1.076  0.00  0.00    +0.032 A 
ATOM      5  C   UNL     1      -1.529   4.292   0.653  0.00  0.00    -0.016 A 
ATOM      6  C   UNL     1      -2.885   4.148   0.856  0.00  0.00    +0.051 A 
ATOM      7  C   UNL     1      -0.711   3.253  -0.009  0.00  0.00    +0.049 C 
ATOM      8  C   UNL     1      -1.110   1.822   0.017  0.00  0.00    -0.023 C 
ATOM      9  C   UNL     1      -0.013   1.076   0.008  0.00  0.00    -0.030 C 
ATOM     10  C   UNL     1       1.229   1.970   0.001  0.00  0.00    +0.033 C 
ATOM     11  C   UNL     1       0.694   3.246   0.665  0.00  0.00    +0.029 C 
ATOM     12  C   UNL     1       1.359   4.556   0.281  0.00  0.00    +0.105 C 
ATOM     13  N   UNL     1       0.509   5.614   0.923  0.00  0.00    -0.336 N 
ATOM     14  H   UNL     1       0.934   6.423   1.247  0.00  0.00    +0.147 HD
ENDROOT
BRANCH  12  15
ATOM     15  C   UNL     1       2.767   4.602   0.816  0.00  0.00    -0.027 A 
ATOM     16  C   UNL     1       2.992   4.932   2.139  0.00  0.00    +0.006 A 
ATOM     17  C   UNL     1       4.283   4.969   2.632  0.00  0.00    +0.015 A 
ATOM     18  C   UNL     1       5.350   4.686   1.798  0.00  0.00    +0.018 A 
ATOM     19  C   UNL     1       5.124   4.361   0.473  0.00  0.00    +0.015 A 
ATOM     20  C   UNL     1       3.832   4.319  -0.018  0.00  0.00    +0.006 A 
ATOM     21 BR   UNL     1       7.117   4.745   2.470  0.00  0.00    -0.050 Br
ENDBRANCH  12  15
BRANCH   1  22
ATOM     22  O   UNL     1      -4.948   5.012   1.667  0.00  0.00    -0.488 OA
BRANCH  22  23
ATOM     23  C   UNL     1      -5.632   6.093   2.304  0.00  0.00    +0.259 C 
BRANCH  23  25
ATOM     24  C   UNL     1      -8.039   6.736   3.081  0.00  0.00    +0.042 C 
ATOM     25  C   UNL     1      -7.094   5.754   2.438  0.00  0.00    -0.043 C 
ATOM     26  C   UNL     1      -7.543   4.605   1.997  0.00  0.00    +0.011 C 
ENDBRANCH  23  25
ENDBRANCH  22  23
ENDBRANCH   1  22
TORSDOF 4
