REMARK  Name = ZINC14750177
REMARK  9 active torsions:
REMARK  status: ('A' for Active; 'I' for Inactive)
REMARK    1  A    between atoms: C_1  and  N_2
REMARK    2  A    between atoms: C_5  and  C_7
REMARK    3  A    between atoms: N_9  and  C_10
REMARK    4  A    between atoms: N_9  and  C_11
REMARK    5  A    between atoms: C_11  and  C_12
REMARK    6  A    between atoms: C_18  and  N_67
REMARK    7  A    between atoms: C_22  and  C_23
REMARK    8  A    between atoms: C_22  and  N_67
REMARK    9  A    between atoms: C_23  and  C_29
REMARK                            x       y       z     vdW  Elec       q    Type
REMARK                         _______ _______ _______ _____ _____    ______ ____
ROOT
ATOM      1  C   UNL     1      10.145   4.662  -3.454  0.00  0.00    +0.172 C 
ATOM      2  N   UNL     1       8.684   4.699  -3.348  0.00  0.00    -0.270 N 
ATOM      3  C   UNL     1       7.899   3.627  -3.156  0.00  0.00    +0.043 A 
ATOM      4  C   UNL     1       6.618   4.070  -3.111  0.00  0.00    +0.004 A 
ATOM      5  C   UNL     1       6.685   5.462  -3.288  0.00  0.00    +0.151 A 
ATOM      6  N   UNL     1       7.965   5.765  -3.424  0.00  0.00    -0.166 NA
ATOM      7  C   UNL     1       5.416   3.190  -2.906  0.00  0.00    +0.023 C 
ATOM      8  C   UNL     1       5.897   1.837  -2.364  0.00  0.00    -0.067 C 
ATOM      9  C   UNL     1       7.044   1.315  -3.234  0.00  0.00    -0.009 C 
ATOM     10  C   UNL     1       8.292   2.179  -3.014  0.00  0.00    +0.054 C 
ENDROOT
BRANCH   5  11
ATOM     11  C   UNL     1       5.548   6.404  -3.317  0.00  0.00    +0.267 C 
ATOM     12  O   UNL     1       4.408   5.982  -3.270  0.00  0.00    -0.268 OA
ATOM     13  N   UNL     1       5.772   7.730  -3.395  0.00  0.00    -0.292 N 
ATOM     14  C   UNL     1       7.143   8.235  -3.513  0.00  0.00    +0.133 C 
BRANCH  13  15
ATOM     15  C   UNL     1       4.647   8.667  -3.362  0.00  0.00    +0.182 C 
BRANCH  15  16
ATOM     16  C   UNL     1       4.358   9.055  -1.934  0.00  0.00    +0.122 A 
ATOM     17  C   UNL     1       4.902  10.095  -1.276  0.00  0.00    +0.046 A 
ATOM     18  C   UNL     1       4.354  10.087   0.027  0.00  0.00    +0.041 A 
ATOM     19  C   UNL     1       3.508   9.043   0.087  0.00  0.00    +0.195 A 
ATOM     20  O   UNL     1       3.510   8.425  -1.105  0.00  0.00    -0.466 OA
ENDBRANCH  15  16
ENDBRANCH  13  15
ENDBRANCH   5  11
BRANCH   8  21
ATOM     21  N   UNL     1       4.777   0.877  -2.398  0.00  0.00    +0.382 N 
ATOM     22  H   UNL     1       4.724   0.452  -3.331  0.00  0.00    -0.085 HD
ATOM     23  H   UNL     1       3.901   1.372  -2.196  0.00  0.00    -0.085 HD
BRANCH  21  24
ATOM     24  C   UNL     1       4.980  -0.182  -1.391  0.00  0.00    -0.071 C 
BRANCH  24  25
ATOM     25  C   UNL     1       3.806  -1.161  -1.450  0.00  0.00    -0.015 C 
ATOM     26  C   UNL     1       3.732  -1.790  -2.845  0.00  0.00    +0.038 C 
ATOM     27  C   UNL     1       5.006  -2.600  -3.098  0.00  0.00    +0.160 C 
ATOM     28  O   UNL     1       5.151  -3.592  -2.079  0.00  0.00    -0.380 OA
ATOM     29  C   UNL     1       5.274  -3.058  -0.759  0.00  0.00    +0.160 C 
ATOM     30  C   UNL     1       4.010  -2.268  -0.411  0.00  0.00    +0.038 C 
BRANCH  25  31
ATOM     31  C   UNL     1       2.523  -0.427  -1.159  0.00  0.00    -0.043 A 
ATOM     32  C   UNL     1       1.321  -1.110  -1.156  0.00  0.00    +0.004 A 
ATOM     33  C   UNL     1       0.144  -0.436  -0.889  0.00  0.00    +0.000 A 
ATOM     34  C   UNL     1       0.168   0.921  -0.625  0.00  0.00    +0.000 A 
ATOM     35  C   UNL     1       1.370   1.604  -0.628  0.00  0.00    +0.000 A 
ATOM     36  C   UNL     1       2.547   0.930  -0.896  0.00  0.00    +0.004 A 
ENDBRANCH  25  31
ENDBRANCH  24  25
ENDBRANCH  21  24
ENDBRANCH   8  21
TORSDOF 7
