REMARK  Name = ZINC07571699
REMARK  8 active torsions:
REMARK  status: ('A' for Active; 'I' for Inactive)
REMARK    1  A    between atoms: C_1  and  C_2
REMARK    2  A    between atoms: N_4  and  C_5
REMARK    3  A    between atoms: N_13  and  C_14
REMARK    4  A    between atoms: C_14  and  C_16
REMARK    5  A    between atoms: N_25  and  C_26
REMARK    6  A    between atoms: C_26  and  C_27
REMARK    7  A    between atoms: C_27  and  O_28
REMARK    8  A    between atoms: O_28  and  C_29
REMARK                            x       y       z     vdW  Elec       q    Type
REMARK                         _______ _______ _______ _____ _____    ______ ____
ROOT
ATOM      1  C   UNL     1      -1.254   1.574  -0.517  0.00  0.00    +0.035 A 
ATOM      2  C   UNL     1      -1.288   2.964  -0.560  0.00  0.00    +0.025 A 
ATOM      3  C   UNL     1      -2.443   3.655  -0.288  0.00  0.00    +0.029 A 
ATOM      4  C   UNL     1      -3.628   2.979   0.055  0.00  0.00    +0.058 A 
ATOM      5  C   UNL     1      -3.562   1.578   0.097  0.00  0.00    +0.041 A 
ATOM      6  C   UNL     1      -2.410   0.881  -0.180  0.00  0.00    +0.040 A 
ATOM      7  S   UNL     1      -5.212   1.103   0.554  0.00  0.00    -0.052 S 
ATOM      8  C   UNL     1      -5.916   2.739   0.672  0.00  0.00    +0.167 A 
ATOM      9  N   UNL     1      -7.158   3.089   0.987  0.00  0.00    -0.149 NA
ATOM     10  N   UNL     1      -4.858   3.537   0.358  0.00  0.00    -0.319 N 
ENDROOT
BRANCH   1  14
ATOM     11  C   UNL     1       2.161   0.732  -1.861  0.00  0.00    +0.109 C 
ATOM     12  C   UNL     1       0.837   1.418  -1.645  0.00  0.00    +0.214 C 
ATOM     13  O   UNL     1       0.586   2.451  -2.229  0.00  0.00    -0.276 OA
ATOM     14  N   UNL     1      -0.069   0.883  -0.802  0.00  0.00    -0.286 N 
ATOM     15  H   UNL     1       0.098   0.018  -0.396  0.00  0.00    +0.155 HD
ENDBRANCH   1  14
BRANCH   9  16
ATOM     16  C   UNL     1      -7.548   4.363   0.856  0.00  0.00    +0.305 C 
ATOM     17  O   UNL     1      -7.619   4.868  -0.252  0.00  0.00    -0.265 OA
BRANCH  16  18
ATOM     18  C   UNL     1      -7.891   5.155   2.050  0.00  0.00    +0.193 A 
ATOM     19  C   UNL     1      -8.297   6.450   2.037  0.00  0.00    +0.063 A 
ATOM     20  C   UNL     1      -8.524   6.817   3.435  0.00  0.00    +0.021 A 
ATOM     21  C   UNL     1      -8.942   7.983   4.080  0.00  0.00    +0.011 A 
ATOM     22  C   UNL     1      -9.056   8.001   5.442  0.00  0.00    +0.001 A 
ATOM     23  C   UNL     1      -8.758   6.868   6.187  0.00  0.00    +0.004 A 
ATOM     24  C   UNL     1      -8.345   5.707   5.569  0.00  0.00    +0.047 A 
ATOM     25  C   UNL     1      -8.221   5.666   4.185  0.00  0.00    +0.136 A 
ATOM     26  O   UNL     1      -7.855   4.701   3.319  0.00  0.00    -0.450 OA
ENDBRANCH  16  18
ENDBRANCH   9  16
BRANCH  10  27
ATOM     27  C   UNL     1      -5.023   4.993   0.340  0.00  0.00    +0.152 C 
BRANCH  27  28
ATOM     28  C   UNL     1      -5.253   5.462  -1.098  0.00  0.00    +0.181 C 
BRANCH  28  29
ATOM     29  O   UNL     1      -5.445   6.878  -1.111  0.00  0.00    -0.381 OA
ATOM     30  C   UNL     1      -5.670   7.422  -2.414  0.00  0.00    +0.194 C 
ENDBRANCH  28  29
ENDBRANCH  27  28
ENDBRANCH  10  27
TORSDOF 6
