REMARK  Name = ZINC12329701
REMARK  8 active torsions:
REMARK  status: ('A' for Active; 'I' for Inactive)
REMARK    1  A    between atoms: C_1  and  C_2
REMARK    2  A    between atoms: C_11  and  C_12
REMARK    3  A    between atoms: C_12  and  C_14
REMARK    4  A    between atoms: C_12  and  O_33
REMARK    5  A    between atoms: C_14  and  N_61
REMARK    6  A    between atoms: C_21  and  O_32
REMARK    7  A    between atoms: C_26  and  O_30
REMARK    8  A    between atoms: O_30  and  C_31
REMARK                            x       y       z     vdW  Elec       q    Type
REMARK                         _______ _______ _______ _____ _____    ______ ____
ROOT
ATOM      1  C   UNL     1       0.092   8.143   0.824  0.00  0.00    -0.075 C 
ATOM      2  C   UNL     1      -1.010   7.579  -0.076  0.00  0.00    +0.029 C 
ATOM      3  C   UNL     1      -1.132   6.072   0.158  0.00  0.00    +0.110 C 
ATOM      4  C   UNL     1      -1.418   5.808   1.638  0.00  0.00    +0.029 C 
ATOM      5  C   UNL     1      -0.303   6.425   2.486  0.00  0.00    -0.075 C 
ATOM      6  C   UNL     1      -2.279   5.513  -0.692  0.00  0.00    +0.084 C 
ATOM      7  C   UNL     1      -2.448   4.029  -0.355  0.00  0.00    +0.152 C 
ATOM      8  C   UNL     1      -1.105   3.345  -0.385  0.00  0.00    +0.023 A 
ATOM      9  C   UNL     1      -1.064   1.964  -0.491  0.00  0.00    +0.013 A 
ATOM     10  C   UNL     1       0.146   1.301  -0.512  0.00  0.00    +0.046 A 
ATOM     11  C   UNL     1       1.331   2.020  -0.437  0.00  0.00    +0.124 A 
ATOM     12  C   UNL     1       1.294   3.401  -0.337  0.00  0.00    +0.091 A 
ATOM     13  C   UNL     1       0.074   4.067  -0.313  0.00  0.00    +0.130 A 
ATOM     14  O   UNL     1       0.079   5.423  -0.225  0.00  0.00    -0.485 OA
ATOM     15  N   UNL     1      -0.261   7.882   2.236  0.00  0.00    +0.382 N 
ATOM     16  H   UNL     1      -1.187   8.280   2.427  0.00  0.00    -0.082 HD
ENDROOT
BRANCH  11  17
ATOM     17  O   UNL     1       2.524   1.371  -0.461  0.00  0.00    -0.495 OA
ATOM     18  C   UNL     1       2.486  -0.054  -0.565  0.00  0.00    +0.277 C 
ENDBRANCH  11  17
BRANCH   7  19
ATOM     19  O   UNL     1      -3.314   3.420  -1.314  0.00  0.00    -0.387 OA
ATOM     20  H   UNL     1      -3.470   2.478  -1.161  0.00  0.00    +0.210 HD
ENDBRANCH   7  19
BRANCH  15  21
ATOM     21  C   UNL     1       0.729   8.519   3.129  0.00  0.00    -0.042 C 
BRANCH  21  22
ATOM     22  C   UNL     1       2.041   7.731   3.126  0.00  0.00    +0.130 C 
BRANCH  22  33
ATOM     23  C   UNL     1       3.864   7.699   9.761  0.00  0.00    +0.044 C 
ATOM     24  C   UNL     1       3.568   7.804   8.287  0.00  0.00    -0.048 A 
ATOM     25  C   UNL     1       2.553   7.035   7.733  0.00  0.00    +0.004 A 
ATOM     26  C   UNL     1       2.270   7.116   6.399  0.00  0.00    +0.010 A 
ATOM     27  C   UNL     1       3.003   7.983   5.586  0.00  0.00    +0.005 A 
ATOM     28  C   UNL     1       4.037   8.759   6.141  0.00  0.00    +0.047 A 
ATOM     29  C   UNL     1       4.308   8.661   7.502  0.00  0.00    +0.029 A 
ATOM     30  N   UNL     1       4.581   9.502   5.118  0.00  0.00    -0.360 N 
ATOM     31  H   UNL     1       5.312  10.133   5.214  0.00  0.00    +0.165 HD
ATOM     32  C   UNL     1       3.936   9.220   3.944  0.00  0.00    +0.089 A 
ATOM     33  C   UNL     1       2.975   8.308   4.158  0.00  0.00    +0.004 A 
ENDBRANCH  22  33
BRANCH  22  34
ATOM     34  O   UNL     1       2.646   7.818   1.834  0.00  0.00    -0.389 OA
ATOM     35  H   UNL     1       2.854   8.721   1.558  0.00  0.00    +0.210 HD
ENDBRANCH  22  34
ENDBRANCH  21  22
ENDBRANCH  15  21
TORSDOF 6
