REMARK  Name = ZINC41195935
REMARK  6 active torsions:
REMARK  status: ('A' for Active; 'I' for Inactive)
REMARK    1  A    between atoms: C_1  and  O_2
REMARK    2  A    between atoms: O_2  and  C_3
REMARK    3  A    between atoms: C_6  and  N_25
REMARK    4  A    between atoms: C_8  and  N_9
REMARK    5  A    between atoms: C_10  and  C_12
REMARK    6  A    between atoms: N_14  and  C_15
REMARK                            x       y       z     vdW  Elec       q    Type
REMARK                         _______ _______ _______ _____ _____    ______ ____
ROOT
ATOM      1  N   UNL     1      -0.076  -2.780  -0.012  0.00  0.00    -0.275 N 
ATOM      2  C   UNL     1      -0.129  -4.123   0.083  0.00  0.00    +0.303 C 
ATOM      3  O   UNL     1      -1.203  -4.689   0.090  0.00  0.00    -0.265 OA
ATOM      4  H   UNL     1       0.782  -2.332  -0.083  0.00  0.00    +0.155 HD
ENDROOT
BRANCH   1  10
ATOM      5  C   UNL     1      -1.288  -0.777   0.599  0.00  0.00    +0.141 A 
ATOM      6  C   UNL     1      -2.460  -0.038   0.595  0.00  0.00    +0.050 A 
ATOM      7  C   UNL     1      -3.596  -0.546  -0.006  0.00  0.00    +0.036 A 
ATOM      8  C   UNL     1      -3.568  -1.793  -0.604  0.00  0.00    +0.128 A 
ATOM      9  C   UNL     1      -2.404  -2.537  -0.605  0.00  0.00    +0.059 A 
ATOM     10  C   UNL     1      -1.258  -2.031  -0.008  0.00  0.00    +0.078 A 
BRANCH   8  11
ATOM     11  N   UNL     1      -4.789  -2.331  -1.245  0.00  0.00    +0.056 N 
ATOM     12  O   UNL     1      -5.809  -1.682  -1.245  0.00  0.00    -0.126 OA
ATOM     13  O   UNL     1      -4.766  -3.421  -1.768  0.00  0.00    -0.126 OA
ENDBRANCH   8  11
BRANCH   5  15
ATOM     14  C   UNL     1      -0.275   1.013   1.792  0.00  0.00    +0.277 C 
ATOM     15  O   UNL     1      -0.169  -0.278   1.189  0.00  0.00    -0.493 OA
ENDBRANCH   5  15
ENDBRANCH   1  10
BRANCH   2  16
ATOM     16  C   UNL     1       1.133  -4.915   0.179  0.00  0.00    +0.300 C 
ATOM     17  O   UNL     1       2.207  -4.350   0.172  0.00  0.00    -0.265 OA
ATOM     18  N   UNL     1       1.080  -6.259   0.274  0.00  0.00    -0.301 N 
ATOM     19  H   UNL     1       0.222  -6.711   0.280  0.00  0.00    +0.150 HD
BRANCH  18  20
ATOM     20  C   UNL     1       2.318  -7.036   0.368  0.00  0.00    +0.104 C 
ATOM     21  C   UNL     1       2.045  -8.399   1.040  0.00  0.00    +0.032 C 
ATOM     22  C   UNL     1       3.025  -9.335   0.301  0.00  0.00    +0.037 C 
ATOM     23  C   UNL     1       3.240  -8.693  -1.053  0.00  0.00    -0.042 A 
ATOM     24  C   UNL     1       2.835  -7.370  -1.014  0.00  0.00    -0.024 A 
ATOM     25  C   UNL     1       2.942  -6.581  -2.147  0.00  0.00    +0.006 A 
ATOM     26  C   UNL     1       3.453  -7.110  -3.317  0.00  0.00    +0.000 A 
ATOM     27  C   UNL     1       3.859  -8.430  -3.357  0.00  0.00    +0.000 A 
ATOM     28  C   UNL     1       3.750  -9.223  -2.226  0.00  0.00    +0.004 A 
ENDBRANCH  18  20
ENDBRANCH   2  16
TORSDOF 5
