REMARK  Name = ZINC64012490
REMARK  8 active torsions:
REMARK  status: ('A' for Active; 'I' for Inactive)
REMARK    1  A    between atoms: C_1  and  C_2
REMARK    2  A    between atoms: C_5  and  O_27
REMARK    3  A    between atoms: C_6  and  C_8
REMARK    4  A    between atoms: C_8  and  C_10
REMARK    5  A    between atoms: C_8  and  N_11
REMARK    6  A    between atoms: N_11  and  S_12
REMARK    7  A    between atoms: S_12  and  C_15
REMARK    8  A    between atoms: O_27  and  C_28
REMARK                            x       y       z     vdW  Elec       q    Type
REMARK                         _______ _______ _______ _____ _____    ______ ____
ROOT
ATOM      1  S   UNL     1      -1.432  -2.717   4.751  0.00  0.00    +0.059 S 
ATOM      2  O   UNL     1      -1.837  -1.670   5.622  0.00  0.00    -0.153 OA
ATOM      3  O   UNL     1      -2.363  -3.579   4.112  0.00  0.00    -0.153 OA
ENDROOT
BRANCH   1   4
ATOM      4  C   UNL     1      -0.343  -3.748   5.675  0.00  0.00    +0.107 A 
ATOM      5  C   UNL     1      -0.176  -5.092   5.283  0.00  0.00    +0.030 A 
ATOM      6  C   UNL     1       0.645  -5.934   5.950  0.00  0.00    +0.027 A 
ATOM      7  C   UNL     1       1.365  -5.464   7.080  0.00  0.00    +0.055 A 
ATOM      8  N   UNL     1       2.171  -6.262   7.748  0.00  0.00    -0.276 N 
ATOM      9  C   UNL     1       2.845  -5.792   8.818  0.00  0.00    +0.304 C 
ATOM     10  O   UNL     1       3.591  -6.522   9.439  0.00  0.00    -0.265 OA
ATOM     11  C   UNL     1       2.668  -4.366   9.233  0.00  0.00    +0.304 C 
ATOM     12  O   UNL     1       3.269  -3.930  10.194  0.00  0.00    -0.265 OA
ATOM     13  N   UNL     1       1.837  -3.567   8.533  0.00  0.00    -0.276 N 
ATOM     14  C   UNL     1       1.189  -4.048   7.492  0.00  0.00    +0.057 A 
ATOM     15  C   UNL     1       0.313  -3.226   6.736  0.00  0.00    +0.053 A 
ATOM     16  H   UNL     1       1.716  -2.642   8.796  0.00  0.00    +0.155 HD
ATOM     17  H   UNL     1       2.280  -7.185   7.472  0.00  0.00    +0.155 HD
ENDBRANCH   1   4
BRANCH   1  18
ATOM     18  N   UNL     1      -0.537  -2.013   3.548  0.00  0.00    -0.183 NA
ATOM     19  H   UNL     1      -0.404  -1.052   3.542  0.00  0.00    +0.149 HD
BRANCH  18  20
ATOM     20  C   UNL     1       0.052  -2.841   2.493  0.00  0.00    +0.107 C 
ATOM     21  C   UNL     1       1.496  -3.187   2.864  0.00  0.00    +0.031 C 
BRANCH  20  27
ATOM     22  C   UNL     1      -0.018   1.503   0.010  0.00  0.00    +0.044 C 
ATOM     23  C   UNL     1       0.002  -0.004   0.002  0.00  0.00    -0.050 A 
ATOM     24  C   UNL     1       0.006  -0.688  -1.200  0.00  0.00    +0.007 A 
ATOM     25  C   UNL     1       0.024  -2.069  -1.210  0.00  0.00    +0.046 A 
ATOM     26  C   UNL     1       0.039  -2.770  -0.013  0.00  0.00    +0.125 A 
ATOM     27  C   UNL     1       0.036  -2.082   1.191  0.00  0.00    +0.013 A 
ATOM     28  C   UNL     1       0.023  -0.701   1.196  0.00  0.00    +0.012 A 
BRANCH  26  29
ATOM     29  O   UNL     1       0.057  -4.129  -0.021  0.00  0.00    -0.495 OA
ATOM     30  C   UNL     1       0.058  -4.771  -1.298  0.00  0.00    +0.277 C 
ENDBRANCH  26  29
ENDBRANCH  20  27
ENDBRANCH  18  20
ENDBRANCH   1  18
TORSDOF 5
