REMARK  Name = ZINC67458591
REMARK  6 active torsions:
REMARK  status: ('A' for Active; 'I' for Inactive)
REMARK    1  A    between atoms: C_1  and  N_2
REMARK    2  A    between atoms: C_3  and  C_5
REMARK    3  A    between atoms: C_5  and  N_6
REMARK    4  A    between atoms: C_9  and  C_13
REMARK    5  A    between atoms: C_9  and  C_21
REMARK    6  A    between atoms: C_13  and  C_14
REMARK                            x       y       z     vdW  Elec       q    Type
REMARK                         _______ _______ _______ _____ _____    ______ ____
ROOT
ATOM      1  N   UNL     1       1.291  -2.644  -2.232  0.00  0.00    -0.215 N 
ATOM      2  C   UNL     1       0.676  -2.893  -3.404  0.00  0.00    +0.248 C 
ATOM      3  O   UNL     1      -0.505  -2.773  -3.651  0.00  0.00    -0.273 OA
ATOM      4  C   UNL     1       1.767  -3.354  -4.350  0.00  0.00    +0.119 C 
ATOM      5  N   UNL     1       2.985  -3.306  -3.523  0.00  0.00    -0.284 N 
ATOM      6  C   UNL     1       2.607  -2.876  -2.306  0.00  0.00    +0.310 C 
ATOM      7  O   UNL     1       3.374  -2.718  -1.376  0.00  0.00    -0.252 OA
ATOM      8  H   UNL     1       3.885  -3.537  -3.802  0.00  0.00    +0.151 HD
ENDROOT
BRANCH   4   9
ATOM      9  C   UNL     1       1.886  -2.399  -5.540  0.00  0.00    +0.018 C 
ATOM     10  C   UNL     1       3.012  -2.871  -6.464  0.00  0.00    -0.013 C 
ATOM     11  C   UNL     1       3.179  -1.869  -7.609  0.00  0.00    -0.082 C 
ATOM     12  N   UNL     1       3.514  -0.548  -7.063  0.00  0.00    +0.379 N 
ATOM     13  C   UNL     1       2.407  -0.058  -6.233  0.00  0.00    -0.082 C 
ATOM     14  C   UNL     1       2.211  -0.990  -5.035  0.00  0.00    -0.013 C 
ATOM     15  H   UNL     1       4.349  -0.620  -6.501  0.00  0.00    -0.086 HD
ATOM     16  H   UNL     1       3.675   0.097  -7.822  0.00  0.00    -0.086 HD
ENDBRANCH   4   9
BRANCH   1  17
ATOM     17  C   UNL     1       0.606  -2.171  -1.026  0.00  0.00    +0.213 C 
BRANCH  17  20
ATOM     18  C   UNL     1      -0.018   1.461   0.010  0.00  0.00    +0.128 C 
ATOM     19  N   UNL     1       0.002  -0.004   0.002  0.00  0.00    -0.317 N 
ATOM     20  C   UNL     1       0.585  -0.664  -1.018  0.00  0.00    +0.231 C 
ATOM     21  O   UNL     1       1.093  -0.046  -1.929  0.00  0.00    -0.274 OA
ATOM     22  H   UNL     1      -0.404  -0.499   0.731  0.00  0.00    +0.148 HD
ENDBRANCH  17  20
ENDBRANCH   1  17
BRANCH   4  23
ATOM     23  C   UNL     1       1.497  -4.781  -4.829  0.00  0.00    +0.070 C 
BRANCH  23  24
ATOM     24  C   UNL     1       1.438  -5.707  -3.641  0.00  0.00    -0.045 A 
ATOM     25  C   UNL     1       2.591  -6.319  -3.185  0.00  0.00    +0.006 A 
ATOM     26  C   UNL     1       2.538  -7.167  -2.095  0.00  0.00    +0.038 A 
ATOM     27  C   UNL     1       1.331  -7.405  -1.461  0.00  0.00    +0.123 A 
ATOM     28  C   UNL     1       0.177  -6.791  -1.919  0.00  0.00    +0.038 A 
ATOM     29  C   UNL     1       0.233  -5.939  -3.005  0.00  0.00    +0.006 A 
ATOM     30  F   UNL     1       1.278  -8.234  -0.396  0.00  0.00    -0.205 F 
ENDBRANCH  23  24
ENDBRANCH   4  23
TORSDOF 5
