REMARK  Name = ZINC35038017
REMARK  10 active torsions:
REMARK  status: ('A' for Active; 'I' for Inactive)
REMARK    1  A    between atoms: C_1  and  C_2
REMARK    2  A    between atoms: C_2  and  C_4
REMARK    3  A    between atoms: C_2  and  N_22
REMARK    4  A    between atoms: N_14  and  C_15
REMARK    5  A    between atoms: N_22  and  C_23
REMARK    6  A    between atoms: C_23  and  C_24
REMARK    7  A    between atoms: N_31  and  C_32
REMARK    8  A    between atoms: C_32  and  C_33
REMARK    9  A    between atoms: C_32  and  C_34
REMARK   10  A    between atoms: C_32  and  C_35
REMARK                            x       y       z     vdW  Elec       q    Type
REMARK                         _______ _______ _______ _____ _____    ______ ____
ROOT
ATOM      1  C   UNL     1      -1.351  -0.943  -0.059  0.00  0.00    +0.138 A 
ATOM      2  N   UNL     1      -2.217  -0.646  -0.980  0.00  0.00    -0.231 NA
ATOM      3  C   UNL     1      -3.552  -0.688  -0.742  0.00  0.00    +0.078 A 
ATOM      4  C   UNL     1      -4.483  -0.369  -1.732  0.00  0.00    +0.028 A 
ATOM      5  C   UNL     1      -5.829  -0.426  -1.447  0.00  0.00    +0.002 A 
ATOM      6  C   UNL     1      -6.273  -0.796  -0.184  0.00  0.00    +0.001 A 
ATOM      7  C   UNL     1      -5.374  -1.115   0.810  0.00  0.00    +0.015 A 
ATOM      8  C   UNL     1      -4.008  -1.065   0.541  0.00  0.00    +0.065 A 
ATOM      9  C   UNL     1      -3.002  -1.395   1.562  0.00  0.00    +0.266 A 
ATOM     10  O   UNL     1      -3.329  -1.727   2.687  0.00  0.00    -0.267 OA
ATOM     11  N   UNL     1      -1.700  -1.321   1.201  0.00  0.00    -0.263 N 
ENDROOT
BRANCH  11  12
ATOM     12  C   UNL     1      -0.702  -1.629   2.134  0.00  0.00    +0.051 A 
ATOM     13  C   UNL     1      -0.149  -0.626   2.919  0.00  0.00    +0.027 A 
ATOM     14  C   UNL     1       0.835  -0.933   3.838  0.00  0.00    +0.017 A 
ATOM     15  C   UNL     1       1.269  -2.240   3.978  0.00  0.00    +0.018 A 
ATOM     16  C   UNL     1       0.720  -3.241   3.197  0.00  0.00    +0.017 A 
ATOM     17  C   UNL     1      -0.269  -2.941   2.281  0.00  0.00    +0.027 A 
ATOM     18 BR   UNL     1       2.617  -2.656   5.237  0.00  0.00    -0.050 Br
ENDBRANCH  11  12
BRANCH   1  20
ATOM     19  C   UNL     1       0.439   0.514  -0.966  0.00  0.00    +0.036 C 
ATOM     20  C   UNL     1       0.114  -0.872  -0.405  0.00  0.00    +0.141 C 
BRANCH  20  21
ATOM     21  N   UNL     1       0.428  -1.891  -1.408  0.00  0.00    -0.269 N 
ATOM     22  C   UNL     1       1.337  -2.849  -1.135  0.00  0.00    +0.304 C 
ATOM     23  O   UNL     1       1.894  -2.867  -0.054  0.00  0.00    -0.253 OA
ATOM     24  N   UNL     1       1.626  -3.787  -2.058  0.00  0.00    -0.294 N 
ATOM     25  H   UNL     1       1.181  -3.773  -2.920  0.00  0.00    +0.151 HD
BRANCH  24  26
ATOM     26  C   UNL     1       2.613  -4.828  -1.761  0.00  0.00    +0.028 C 
ATOM     27  C   UNL     1       2.152  -5.636  -0.546  0.00  0.00    +0.031 C 
ATOM     28  C   UNL     1       2.754  -5.757  -2.968  0.00  0.00    +0.031 C 
ATOM     29  C   UNL     1       3.965  -4.178  -1.458  0.00  0.00    +0.031 C 
ENDBRANCH  24  26
BRANCH  21  30
ATOM     30  C   UNL     1      -0.244  -1.870  -2.710  0.00  0.00    +0.184 C 
BRANCH  30  31
ATOM     31  C   UNL     1       0.556  -1.034  -3.675  0.00  0.00    +0.122 A 
ATOM     32  C   UNL     1       1.530  -1.484  -4.486  0.00  0.00    +0.046 A 
ATOM     33  C   UNL     1       2.006  -0.368  -5.213  0.00  0.00    +0.041 A 
ATOM     34  C   UNL     1       1.295   0.697  -4.802  0.00  0.00    +0.195 A 
ATOM     35  O   UNL     1       0.414   0.287  -3.875  0.00  0.00    -0.466 OA
ENDBRANCH  30  31
ENDBRANCH  21  30
ENDBRANCH  20  21
ENDBRANCH   1  20
TORSDOF 6
