REMARK  Name = ZINC13131170
REMARK  10 active torsions:
REMARK  status: ('A' for Active; 'I' for Inactive)
REMARK    1  A    between atoms: C_1  and  N_2
REMARK    2  A    between atoms: N_2  and  C_3
REMARK    3  A    between atoms: N_2  and  C_4
REMARK    4  A    between atoms: C_4  and  C_6
REMARK    5  A    between atoms: C_4  and  C_26
REMARK    6  A    between atoms: C_6  and  N_7
REMARK    7  A    between atoms: C_8  and  C_10
REMARK    8  A    between atoms: C_13  and  S_19
REMARK    9  A    between atoms: C_14  and  N_16
REMARK   10  A    between atoms: S_19  and  C_20
REMARK                            x       y       z     vdW  Elec       q    Type
REMARK                         _______ _______ _______ _____ _____    ______ ____
ROOT
ATOM      1  C   UNL     1       1.880  -3.851  -2.546  0.00  0.00    +0.039 A 
ATOM      2  C   UNL     1       2.274  -2.771  -3.342  0.00  0.00    +0.014 A 
ATOM      3  C   UNL     1       2.737  -2.988  -4.608  0.00  0.00    +0.018 A 
ATOM      4  C   UNL     1       2.819  -4.284  -5.112  0.00  0.00    +0.043 A 
ATOM      5  C   UNL     1       2.428  -5.366  -4.326  0.00  0.00    +0.141 A 
ATOM      6  C   UNL     1       1.966  -5.154  -3.047  0.00  0.00    +0.047 A 
ENDROOT
BRANCH   1   8
ATOM      7  N   UNL     1       1.298  -2.361  -0.696  0.00  0.00    -0.313 N 
ATOM      8  C   UNL     1       1.380  -3.617  -1.178  0.00  0.00    +0.244 C 
ATOM      9  O   UNL     1       1.042  -4.557  -0.485  0.00  0.00    -0.270 OA
ATOM     10  H   UNL     1       1.567  -1.611  -1.249  0.00  0.00    +0.149 HD
BRANCH   7  11
ATOM     11  C   UNL     1       0.801  -2.128   0.662  0.00  0.00    +0.094 C 
BRANCH  11  12
ATOM     12  C   UNL     1       0.930  -0.643   1.005  0.00  0.00    -0.014 C 
BRANCH  12  13
ATOM     13  C   UNL     1       2.387  -0.261   1.047  0.00  0.00    -0.022 A 
ATOM     14  C   UNL     1       3.132   0.368   0.105  0.00  0.00    +0.009 A 
ATOM     15  C   UNL     1       4.466   0.619   0.364  0.00  0.00    +0.008 A 
ATOM     16  C   UNL     1       4.990   0.229   1.552  0.00  0.00    +0.045 A 
ATOM     17  S   UNL     1       3.578  -0.512   2.353  0.00  0.00    -0.103 S 
ENDBRANCH  12  13
BRANCH  12  19
ATOM     18  C   UNL     1       0.505   1.023   2.678  0.00  0.00    -0.096 C 
ATOM     19  N   UNL     1       0.319  -0.388   2.316  0.00  0.00    +0.382 N 
ATOM     20  C   UNL     1      -1.117  -0.693   2.255  0.00  0.00    -0.096 C 
ATOM     21  H   UNL     1       0.757  -0.974   3.011  0.00  0.00    -0.082 HD
ENDBRANCH  12  19
ENDBRANCH  11  12
ENDBRANCH   7  11
ENDBRANCH   1   8
BRANCH   5  22
ATOM     22  N   UNL     1       2.515  -6.742  -4.863  0.00  0.00    +0.058 N 
ATOM     23  O   UNL     1       2.176  -7.680  -4.181  0.00  0.00    -0.126 OA
ATOM     24  O   UNL     1       2.926  -6.928  -5.985  0.00  0.00    -0.126 OA
ENDBRANCH   5  22
BRANCH   4  25
ATOM     25  S   UNL     1       3.418  -4.556  -6.746  0.00  0.00    -0.087 S 
BRANCH  25  26
ATOM     26  C   UNL     1       3.924  -2.957  -7.286  0.00  0.00    +0.013 A 
ATOM     27  C   UNL     1       5.242  -2.550  -7.116  0.00  0.00    +0.015 A 
ATOM     28  C   UNL     1       5.635  -1.296  -7.540  0.00  0.00    +0.001 A 
ATOM     29  C   UNL     1       4.720  -0.446  -8.134  0.00  0.00    +0.000 A 
ATOM     30  C   UNL     1       3.408  -0.849  -8.305  0.00  0.00    +0.001 A 
ATOM     31  C   UNL     1       3.009  -2.103  -7.889  0.00  0.00    +0.015 A 
ENDBRANCH  25  26
ENDBRANCH   4  25
TORSDOF 8
