REMARK  Name = ZINC29910457
REMARK  13 active torsions:
REMARK  status: ('A' for Active; 'I' for Inactive)
REMARK    1  A    between atoms: C_1  and  C_2
REMARK    2  A    between atoms: C_2  and  O_3
REMARK    3  A    between atoms: O_3  and  C_4
REMARK    4  A    between atoms: C_4  and  C_6
REMARK    5  A    between atoms: C_7  and  C_34
REMARK    6  A    between atoms: C_10  and  N_11
REMARK    7  A    between atoms: C_12  and  C_14
REMARK    8  A    between atoms: C_14  and  C_16
REMARK    9  A    between atoms: C_14  and  N_17
REMARK   10  A    between atoms: C_20  and  C_23
REMARK   11  A    between atoms: N_25  and  C_26
REMARK   12  A    between atoms: C_31  and  O_32
REMARK   13  A    between atoms: O_32  and  C_33
REMARK                            x       y       z     vdW  Elec       q    Type
REMARK                         _______ _______ _______ _____ _____    ______ ____
ROOT
ATOM      1  C   UNL     1      -5.895  -0.862  -1.800  0.00  0.00    +0.016 C 
ATOM      2  C   UNL     1      -6.457   0.445  -2.364  0.00  0.00    -0.004 C 
ENDROOT
BRANCH   1   3
ATOM      3  N   UNL     1      -4.539  -0.630  -1.285  0.00  0.00    +0.387 N 
ATOM      4  C   UNL     1      -3.894  -1.895  -0.912  0.00  0.00    -0.077 C 
ATOM      5  C   UNL     1      -2.546  -1.606  -0.248  0.00  0.00    -0.006 C 
ATOM      6  C   UNL     1      -1.659  -0.828  -1.223  0.00  0.00    +0.072 C 
ATOM      7  C   UNL     1      -2.374   0.462  -1.633  0.00  0.00    -0.006 C 
ATOM      8  C   UNL     1      -3.727   0.113  -2.257  0.00  0.00    -0.077 C 
ATOM      9  H   UNL     1      -4.621  -0.015  -0.377  0.00  0.00    -0.081 HD
BRANCH   6  10
ATOM     10  C   UNL     1      -0.352  -0.488  -0.553  0.00  0.00    +0.220 C 
ATOM     11  O   UNL     1      -0.149  -0.834   0.591  0.00  0.00    -0.275 OA
ATOM     12  N   UNL     1       0.591   0.200  -1.227  0.00  0.00    -0.282 N 
ATOM     13  H   UNL     1       0.374   0.591  -2.232  0.00  0.00    +0.155 HD
BRANCH  12  14
ATOM     14  C   UNL     1       1.848   0.417  -0.646  0.00  0.00    +0.076 A 
ATOM     15  C   UNL     1       2.277  -0.382   0.404  0.00  0.00    +0.027 A 
ATOM     16  C   UNL     1       3.517  -0.166   0.974  0.00  0.00    +0.002 A 
ATOM     17  C   UNL     1       4.333   0.845   0.501  0.00  0.00    +0.004 A 
ATOM     18  C   UNL     1       3.913   1.645  -0.545  0.00  0.00    +0.047 A 
ATOM     19  C   UNL     1       2.673   1.431  -1.126  0.00  0.00    +0.141 A 
BRANCH  19  20
ATOM     20  O   UNL     1       2.261   2.214  -2.159  0.00  0.00    -0.493 OA
ATOM     21  C   UNL     1       3.159   3.235  -2.599  0.00  0.00    +0.277 C 
ENDBRANCH  19  20
ENDBRANCH  12  14
ENDBRANCH   6  10
ENDBRANCH   1   3
BRANCH   1  23
ATOM     22  N   UNL     1      -6.912  -2.700  -3.106  0.00  0.00    -0.281 N 
ATOM     23  C   UNL     1      -5.848  -1.901  -2.890  0.00  0.00    +0.204 C 
ATOM     24  O   UNL     1      -4.853  -2.018  -3.573  0.00  0.00    -0.277 OA
ATOM     25  H   UNL     1      -7.814  -2.593  -2.486  0.00  0.00    +0.155 HD
BRANCH  22  30
ATOM     26  C   UNL     1      -7.852  -4.567  -4.477  0.00  0.00    +0.091 A 
ATOM     27  C   UNL     1      -7.538  -5.454  -5.572  0.00  0.00    -0.021 A 
ATOM     28  C   UNL     1      -6.322  -5.330  -6.133  0.00  0.00    +0.051 A 
ATOM     29  S   UNL     1      -5.573  -4.009  -5.203  0.00  0.00    -0.081 S 
ATOM     30  C   UNL     1      -6.868  -3.655  -4.109  0.00  0.00    +0.086 A 
BRANCH  27  31
ATOM     31  C   UNL     1      -8.528  -6.479  -6.062  0.00  0.00    +0.020 C 
ATOM     32  C   UNL     1      -8.034  -7.507  -7.082  0.00  0.00    +0.009 C 
ATOM     33  C   UNL     1      -8.977  -6.386  -7.522  0.00  0.00    +0.009 C 
ENDBRANCH  27  31
BRANCH  26  34
ATOM     34  C   UNL     1      -9.145  -4.622  -3.791  0.00  0.00    +0.342 C 
ATOM     35  O   UNL     1     -10.074  -3.946  -4.189  0.00  0.00    -0.245 OA
BRANCH  34  36
ATOM     36  O   UNL     1      -9.305  -5.422  -2.717  0.00  0.00    -0.461 OA
BRANCH  36  38
ATOM     37  C   UNL     1     -10.602  -6.385  -0.895  0.00  0.00    +0.048 C 
ATOM     38  C   UNL     1     -10.613  -5.426  -2.086  0.00  0.00    +0.229 C 
ENDBRANCH  36  38
ENDBRANCH  34  36
ENDBRANCH  26  34
ENDBRANCH  22  30
ENDBRANCH   1  23
TORSDOF 10
