REMARK  Name = ZINC02409685
REMARK  11 active torsions:
REMARK  status: ('A' for Active; 'I' for Inactive)
REMARK    1  A    between atoms: C_1  and  C_2
REMARK    2  A    between atoms: C_2  and  C_3
REMARK    3  A    between atoms: C_2  and  C_4
REMARK    4  A    between atoms: C_10  and  N_14
REMARK    5  A    between atoms: N_14  and  C_15
REMARK    6  A    between atoms: C_15  and  C_16
REMARK    7  A    between atoms: C_16  and  C_17
REMARK    8  A    between atoms: C_17  and  C_18
REMARK    9  A    between atoms: C_18  and  N_57
REMARK   10  A    between atoms: C_23  and  C_26
REMARK   11  A    between atoms: C_23  and  C_27
REMARK                            x       y       z     vdW  Elec       q    Type
REMARK                         _______ _______ _______ _____ _____    ______ ____
ROOT
ATOM      1  C   UNL     1      -6.883  -1.081   0.030  0.00  0.00    +0.051 A 
ATOM      2  C   UNL     1      -7.205   0.271   0.034  0.00  0.00    +0.004 A 
ATOM      3  C   UNL     1      -6.204   1.211   0.036  0.00  0.00    -0.026 A 
ATOM      4  C   UNL     1      -4.856   0.788   0.029  0.00  0.00    +0.037 A 
ATOM      5  C   UNL     1      -3.647   1.632   0.028  0.00  0.00    +0.093 A 
ATOM      6  C   UNL     1      -2.424   0.950   0.019  0.00  0.00    +0.080 A 
ATOM      7  C   UNL     1      -1.221   1.643   0.017  0.00  0.00    +0.136 A 
ATOM      8  N   UNL     1      -1.259   2.974   0.030  0.00  0.00    -0.220 NA
ATOM      9  C   UNL     1      -2.420   3.603   0.033  0.00  0.00    +0.224 A 
ATOM     10  N   UNL     1      -3.573   2.982   0.035  0.00  0.00    -0.234 NA
ATOM     11  S   UNL     1      -2.868  -0.765   0.013  0.00  0.00    -0.064 S 
ATOM     12  C   UNL     1      -4.636  -0.601   0.022  0.00  0.00    +0.111 A 
ATOM     13  N   UNL     1      -5.624  -1.470   0.023  0.00  0.00    -0.244 NA
ATOM     14  C   UNL     1      -6.499   2.686   0.050  0.00  0.00    +0.070 C 
ATOM     15  C   UNL     1      -7.956   2.923  -0.355  0.00  0.00    +0.068 C 
ATOM     16  O   UNL     1      -8.788   2.044   0.410  0.00  0.00    -0.369 OA
ATOM     17  C   UNL     1      -8.658   0.673   0.035  0.00  0.00    +0.197 C 
ATOM     18  C   UNL     1      -8.340   4.376  -0.067  0.00  0.00    +0.041 C 
ATOM     19  C   UNL     1      -8.130   2.627  -1.846  0.00  0.00    +0.041 C 
ENDROOT
BRANCH   1  21
ATOM     20  C   UNL     1      -7.868  -2.983  -1.220  0.00  0.00    +0.014 C 
ATOM     21  C   UNL     1      -7.983  -2.111   0.032  0.00  0.00    +0.032 C 
ATOM     22  C   UNL     1      -7.857  -2.989   1.278  0.00  0.00    +0.014 C 
ENDBRANCH   1  21
BRANCH   7  23
ATOM     23  N   UNL     1      -0.011   0.966   0.007  0.00  0.00    -0.328 N 
ATOM     24  H   UNL     1       0.002  -0.004   0.002  0.00  0.00    +0.147 HD
BRANCH  23  25
ATOM     25  C   UNL     1       1.248   1.716  -0.001  0.00  0.00    +0.103 C 
BRANCH  25  26
ATOM     26  C   UNL     1       2.424   0.737  -0.017  0.00  0.00    +0.017 C 
BRANCH  26  27
ATOM     27  C   UNL     1       3.738   1.520  -0.025  0.00  0.00    -0.018 C 
BRANCH  27  28
ATOM     28  C   UNL     1       4.915   0.542  -0.042  0.00  0.00    -0.086 C 
BRANCH  28  31
ATOM     29  H   UNL     1       6.226   1.927   0.734  0.00  0.00    -0.090 HD
ATOM     30  H   UNL     1       6.969   0.669  -0.061  0.00  0.00    -0.090 HD
ATOM     31  N   UNL     1       6.174   1.306  -0.072  0.00  0.00    +0.378 N 
ATOM     32  H   UNL     1       6.207   1.869  -0.930  0.00  0.00    -0.090 HD
ENDBRANCH  28  31
ENDBRANCH  27  28
ENDBRANCH  26  27
ENDBRANCH  25  26
ENDBRANCH  23  25
ENDBRANCH   7  23
TORSDOF 7
