REMARK  Name = ZINC57944591
REMARK  13 active torsions:
REMARK  status: ('A' for Active; 'I' for Inactive)
REMARK    1  A    between atoms: C_1  and  C_2
REMARK    2  A    between atoms: C_2  and  C_3
REMARK    3  A    between atoms: C_3  and  C_4
REMARK    4  A    between atoms: C_7  and  C_10
REMARK    5  A    between atoms: C_10  and  C_33
REMARK    6  A    between atoms: N_13  and  C_17
REMARK    7  A    between atoms: C_17  and  C_18
REMARK    8  A    between atoms: N_20  and  C_21
REMARK    9  A    between atoms: C_21  and  C_22
REMARK   10  A    between atoms: N_25  and  C_29
REMARK   11  A    between atoms: C_29  and  C_30
REMARK   12  A    between atoms: C_30  and  C_31
REMARK   13  A    between atoms: C_30  and  C_32
REMARK                            x       y       z     vdW  Elec       q    Type
REMARK                         _______ _______ _______ _____ _____    ______ ____
ROOT
ATOM      1  C   UNL     1       0.797  -6.276  -1.289  0.00  0.00    +0.135 C 
ATOM      2  C   UNL     1       0.183  -6.810  -2.568  0.00  0.00    +0.251 C 
ATOM      3  O   UNL     1      -0.953  -6.648  -2.958  0.00  0.00    -0.272 OA
ATOM      4  N   UNL     1       1.165  -7.501  -3.182  0.00  0.00    -0.215 N 
ATOM      5  C   UNL     1       2.301  -7.478  -2.475  0.00  0.00    +0.310 C 
ATOM      6  O   UNL     1       3.325  -8.030  -2.825  0.00  0.00    -0.252 OA
ATOM      7  N   UNL     1       2.182  -6.774  -1.335  0.00  0.00    -0.281 N 
ATOM      8  C   UNL     1       0.065  -6.830  -0.065  0.00  0.00    +0.047 C 
ATOM      9  H   UNL     1       2.874  -6.625  -0.672  0.00  0.00    +0.152 HD
ENDROOT
BRANCH   1  13
ATOM     10  C   UNL     1       0.739  -2.004  -1.265  0.00  0.00    -0.047 A 
ATOM     11  C   UNL     1       1.788  -2.685  -0.675  0.00  0.00    +0.004 A 
ATOM     12  C   UNL     1       1.806  -4.067  -0.683  0.00  0.00    +0.006 A 
ATOM     13  C   UNL     1       0.776  -4.769  -1.280  0.00  0.00    -0.015 A 
ATOM     14  C   UNL     1      -0.273  -4.088  -1.869  0.00  0.00    +0.006 A 
ATOM     15  C   UNL     1      -0.294  -2.706  -1.858  0.00  0.00    +0.004 A 
BRANCH  10  16
ATOM     16  C   UNL     1       0.718  -0.497  -1.257  0.00  0.00    +0.035 C 
BRANCH  16  18
ATOM     17  C   UNL     1      -0.019   1.526   0.010  0.00  0.00    +0.004 C 
ATOM     18  C   UNL     1       0.002  -0.004   0.002  0.00  0.00    +0.001 C 
ENDBRANCH  16  18
ENDBRANCH  10  16
ENDBRANCH   1  13
BRANCH   4  19
ATOM     19  C   UNL     1       1.006  -8.192  -4.463  0.00  0.00    +0.213 C 
BRANCH  19  20
ATOM     20  C   UNL     1       1.353  -7.251  -5.588  0.00  0.00    +0.231 C 
ATOM     21  O   UNL     1       1.699  -6.115  -5.343  0.00  0.00    -0.274 OA
ATOM     22  N   UNL     1       1.280  -7.673  -6.866  0.00  0.00    -0.311 N 
ATOM     23  H   UNL     1       1.003  -8.582  -7.062  0.00  0.00    +0.149 HD
BRANCH  22  24
ATOM     24  C   UNL     1       1.617  -6.758  -7.960  0.00  0.00    +0.137 C 
BRANCH  24  25
ATOM     25  C   UNL     1       1.452  -7.480  -9.298  0.00  0.00    +0.149 C 
ATOM     26  C   UNL     1       1.806  -6.526 -10.442  0.00  0.00    +0.117 C 
ATOM     27  N   UNL     1       1.720  -7.247 -11.720  0.00  0.00    -0.297 NA
ATOM     28  C   UNL     1       2.629  -8.402 -11.728  0.00  0.00    +0.112 C 
ATOM     29  C   UNL     1       2.266  -9.338 -10.572  0.00  0.00    +0.175 C 
ATOM     30  O   UNL     1       2.324  -8.613  -9.341  0.00  0.00    -0.372 OA
BRANCH  27  31
ATOM     31  C   UNL     1       1.998  -6.350 -12.850  0.00  0.00    +0.087 C 
BRANCH  31  32
ATOM     32  C   UNL     1       1.659  -7.062 -14.161  0.00  0.00    -0.003 C 
ATOM     33  C   UNL     1       0.154  -7.333 -14.220  0.00  0.00    +0.008 C 
ATOM     34  C   UNL     1       2.064  -6.177 -15.341  0.00  0.00    +0.008 C 
ENDBRANCH  31  32
ENDBRANCH  27  31
ENDBRANCH  24  25
ENDBRANCH  22  24
ENDBRANCH  19  20
ENDBRANCH   4  19
TORSDOF 9
