REMARK  Name = ZINC05129902
REMARK  7 active torsions:
REMARK  status: ('A' for Active; 'I' for Inactive)
REMARK    1  A    between atoms: C_1  and  O_2
REMARK    2  A    between atoms: O_2  and  C_3
REMARK    3  A    between atoms: C_3  and  C_5
REMARK    4  A    between atoms: C_5  and  C_6
REMARK    5  A    between atoms: C_13  and  N_29
REMARK    6  A    between atoms: C_14  and  C_27
REMARK    7  A    between atoms: C_15  and  C_17
REMARK                            x       y       z     vdW  Elec       q    Type
REMARK                         _______ _______ _______ _____ _____    ______ ____
ROOT
ATOM      1  C   UNL     1       1.374  -2.514  -2.380  0.00  0.00    +0.055 A 
ATOM      2  C   UNL     1       2.701  -2.635  -2.534  0.00  0.00    +0.050 A 
ATOM      3  C   UNL     1       2.954  -3.041  -3.862  0.00  0.00    +0.245 A 
ATOM      4  N   UNL     1       1.811  -3.155  -4.473  0.00  0.00    -0.135 NA
ATOM      5  N   UNL     1       0.794  -2.834  -3.560  0.00  0.00    -0.277 N 
ATOM      6  H   UNL     1      -0.158  -2.838  -3.744  0.00  0.00    +0.189 HD
ATOM      7  O   UNL     1       4.216  -3.253  -4.323  0.00  0.00    -0.421 OA
ATOM      8  C   UNL     1       5.206  -3.328  -3.411  0.00  0.00    +0.201 C 
ATOM      9  C   UNL     1       5.086  -2.957  -2.119  0.00  0.00    +0.098 C 
ATOM     10  C   UNL     1       3.809  -2.403  -1.538  0.00  0.00    +0.103 C 
ENDROOT
BRANCH  10  11
ATOM     11  C   UNL     1       3.965  -0.926  -1.285  0.00  0.00    -0.010 A 
ATOM     12  C   UNL     1       4.257   0.015  -2.197  0.00  0.00    +0.088 A 
ATOM     13  N   UNL     1       4.317   1.243  -1.599  0.00  0.00    -0.360 N 
ATOM     14  H   UNL     1       4.513   2.077  -2.055  0.00  0.00    +0.165 HD
ATOM     15  C   UNL     1       4.058   1.121  -0.252  0.00  0.00    +0.047 A 
ATOM     16  C   UNL     1       3.820  -0.242   0.003  0.00  0.00    +0.004 A 
ATOM     17  C   UNL     1       3.521  -0.667   1.298  0.00  0.00    +0.010 A 
ATOM     18  C   UNL     1       3.458   0.245   2.314  0.00  0.00    +0.001 A 
ATOM     19  C   UNL     1       3.688   1.591   2.067  0.00  0.00    +0.002 A 
ATOM     20  C   UNL     1       3.994   2.031   0.798  0.00  0.00    +0.026 A 
ENDBRANCH  10  11
BRANCH   8  21
ATOM     21  N   UNL     1       6.421  -3.815  -3.825  0.00  0.00    -0.328 N 
ATOM     22  H   UNL     1       6.544  -4.091  -4.747  0.00  0.00    +0.145 HD
ATOM     23  H   UNL     1       7.156  -3.883  -3.196  0.00  0.00    +0.145 HD
ENDBRANCH   8  21
BRANCH   9  24
ATOM     24  C   UNL     1       6.223  -3.097  -1.260  0.00  0.00    +0.101 C 
ATOM     25  N   UNL     1       7.125  -3.208  -0.579  0.00  0.00    -0.191 NA
ENDBRANCH   9  24
BRANCH   1  26
ATOM     26  C   UNL     1       0.657  -2.104  -1.120  0.00  0.00    +0.175 C 
BRANCH  26  27
ATOM     27  C   UNL     1       0.598  -0.600  -1.043  0.00  0.00    +0.313 C 
ATOM     28  O   UNL     1       1.088   0.070  -1.921  0.00  0.00    -0.250 OA
BRANCH  27  30
ATOM     29  C   UNL     1      -0.017   1.425   0.010  0.00  0.00    +0.280 C 
ATOM     30  O   UNL     1       0.002  -0.004   0.002  0.00  0.00    -0.468 OA
ENDBRANCH  27  30
ENDBRANCH  26  27
ENDBRANCH   1  26
TORSDOF 6
