REMARK  Name = ZINC11815787
REMARK  10 active torsions:
REMARK  status: ('A' for Active; 'I' for Inactive)
REMARK    1  A    between atoms: C_1  and  N_68
REMARK    2  A    between atoms: C_2  and  N_68
REMARK    3  A    between atoms: C_3  and  C_4
REMARK    4  A    between atoms: C_3  and  N_68
REMARK    5  A    between atoms: C_4  and  N_5
REMARK    6  A    between atoms: C_8  and  C_12
REMARK    7  A    between atoms: C_8  and  C_20
REMARK    8  A    between atoms: C_12  and  C_13
REMARK    9  A    between atoms: C_13  and  C_14
REMARK   10  A    between atoms: C_26  and  C_28
REMARK                            x       y       z     vdW  Elec       q    Type
REMARK                         _______ _______ _______ _____ _____    ______ ____
ROOT
ATOM      1  N   UNL     1       4.222   7.224  -4.307  0.00  0.00    -0.226 N 
ATOM      2  C   UNL     1       4.388   5.967  -3.849  0.00  0.00    +0.247 C 
ATOM      3  O   UNL     1       3.951   4.946  -4.336  0.00  0.00    -0.273 OA
ATOM      4  C   UNL     1       5.235   6.095  -2.599  0.00  0.00    +0.116 C 
ATOM      5  N   UNL     1       5.470   7.545  -2.487  0.00  0.00    -0.285 N 
ATOM      6  C   UNL     1       4.840   8.118  -3.528  0.00  0.00    +0.309 C 
ATOM      7  O   UNL     1       4.833   9.316  -3.737  0.00  0.00    -0.252 OA
ATOM      8  H   UNL     1       5.979   7.998  -1.797  0.00  0.00    +0.151 HD
ENDROOT
BRANCH   4   9
ATOM      9  C   UNL     1       4.474   5.577  -1.377  0.00  0.00    +0.024 C 
ATOM     10  C   UNL     1       3.082   6.213  -1.337  0.00  0.00    +0.025 C 
ATOM     11  C   UNL     1       2.335   5.718  -0.094  0.00  0.00    +0.108 C 
ATOM     12  N   UNL     1       2.328   4.249  -0.100  0.00  0.00    -0.298 N 
ATOM     13  C   UNL     1       3.607   3.537  -0.220  0.00  0.00    +0.108 C 
ATOM     14  C   UNL     1       4.339   4.056  -1.467  0.00  0.00    +0.025 C 
ATOM     15  C   UNL     1       1.170   3.568   0.010  0.00  0.00    +0.247 C 
ATOM     16  O   UNL     1       1.183   2.354   0.072  0.00  0.00    -0.270 OA
BRANCH  15  17
ATOM     17  C   UNL     1      -0.116   4.297   0.054  0.00  0.00    +0.042 A 
ATOM     18  C   UNL     1      -1.159   3.929  -0.797  0.00  0.00    +0.051 A 
ATOM     19  C   UNL     1      -2.358   4.614  -0.752  0.00  0.00    +0.127 A 
ATOM     20  C   UNL     1      -2.526   5.663   0.137  0.00  0.00    +0.076 A 
ATOM     21  C   UNL     1      -1.494   6.033   0.984  0.00  0.00    +0.127 A 
ATOM     22  C   UNL     1      -0.290   5.355   0.947  0.00  0.00    +0.051 A 
ATOM     23  F   UNL     1      -1.665   7.057   1.848  0.00  0.00    -0.205 F 
ATOM     24  F   UNL     1      -3.369   4.259  -1.575  0.00  0.00    -0.205 F 
ENDBRANCH  15  17
ENDBRANCH   4   9
BRANCH   1  25
ATOM     25  C   UNL     1       3.459   7.567  -5.510  0.00  0.00    +0.099 C 
BRANCH  25  26
ATOM     26  C   UNL     1       4.390   7.554  -6.724  0.00  0.00    -0.060 C 
BRANCH  26  29
ATOM     27  C   UNL     1       4.519   8.129  -9.073  0.00  0.00    -0.097 C 
ATOM     28  C   UNL     1       2.633   6.860  -8.239  0.00  0.00    -0.097 C 
ATOM     29  N   UNL     1       3.611   7.923  -7.925  0.00  0.00    +0.377 N 
ATOM     30  H   UNL     1       3.105   8.797  -7.739  0.00  0.00    -0.083 HD
ENDBRANCH  26  29
ENDBRANCH  25  26
ENDBRANCH   1  25
BRANCH   4  31
ATOM     31  C   UNL     1       6.559   5.346  -2.763  0.00  0.00    +0.040 C 
BRANCH  31  32
ATOM     32  C   UNL     1       7.356   5.965  -3.913  0.00  0.00    +0.038 C 
BRANCH  32  33
ATOM     33  C   UNL     1       8.660   5.228  -4.074  0.00  0.00    -0.047 A 
ATOM     34  C   UNL     1       9.782   5.648  -3.385  0.00  0.00    +0.003 A 
ATOM     35  C   UNL     1      10.977   4.969  -3.529  0.00  0.00    +0.000 A 
ATOM     36  C   UNL     1      11.053   3.875  -4.371  0.00  0.00    +0.000 A 
ATOM     37  C   UNL     1       9.933   3.458  -5.065  0.00  0.00    +0.000 A 
ATOM     38  C   UNL     1       8.736   4.134  -4.916  0.00  0.00    +0.003 A 
ENDBRANCH  32  33
ENDBRANCH  31  32
ENDBRANCH   4  31
TORSDOF 8
