REMARK  Name = ZINC42535848
REMARK  5 active torsions:
REMARK  status: ('A' for Active; 'I' for Inactive)
REMARK    1  A    between atoms: C_1  and  C_2
REMARK    2  A    between atoms: C_2  and  C_4
REMARK    3  A    between atoms: C_2  and  N_12
REMARK    4  A    between atoms: N_15  and  S_18
REMARK    5  A    between atoms: S_18  and  C_21
REMARK                            x       y       z     vdW  Elec       q    Type
REMARK                         _______ _______ _______ _____ _____    ______ ____
ROOT
ATOM      1  C   UNL     1      -0.019   1.526   0.010  0.00  0.00    +0.034 C 
ATOM      2  C   UNL     1       0.002  -0.004   0.002  0.00  0.00    +0.140 C 
ENDROOT
BRANCH   2   3
ATOM      3  C   UNL     1       0.707  -0.490  -1.238  0.00  0.00    +0.236 C 
ATOM      4  O   UNL     1       1.704  -1.174  -1.140  0.00  0.00    -0.274 OA
ATOM      5  N   UNL     1       0.231  -0.164  -2.456  0.00  0.00    -0.263 N 
ATOM      6  C   UNL     1       0.882  -0.613  -3.599  0.00  0.00    +0.164 A 
ATOM      7  N   UNL     1       1.960  -1.361  -3.686  0.00  0.00    -0.233 NA
ATOM      8  C   UNL     1       2.460  -1.704  -4.859  0.00  0.00    +0.120 A 
ATOM      9  C   UNL     1       1.812  -1.252  -5.961  0.00  0.00    +0.068 A 
ATOM     10  S   UNL     1       0.476  -0.336  -5.209  0.00  0.00    -0.061 S 
ATOM     11  H   UNL     1      -0.566   0.383  -2.534  0.00  0.00    +0.157 HD
ENDBRANCH   2   3
BRANCH   2  12
ATOM     12  N   UNL     1       0.713  -0.491   1.192  0.00  0.00    -0.289 NA
ATOM     13  C   UNL     1       2.052   0.106   1.286  0.00  0.00    +0.102 C 
ATOM     14  C   UNL     1       2.824  -0.559   2.431  0.00  0.00    +0.124 C 
ATOM     15  N   UNL     1       2.015  -0.468   3.656  0.00  0.00    -0.179 NA
ATOM     16  C   UNL     1       0.616  -0.920   3.601  0.00  0.00    +0.124 C 
ATOM     17  C   UNL     1      -0.069  -0.241   2.411  0.00  0.00    +0.102 C 
BRANCH  15  18
ATOM     18  S   UNL     1       2.661   0.129   5.059  0.00  0.00    +0.029 S 
ATOM     19  O   UNL     1       1.896  -0.473   6.095  0.00  0.00    -0.158 OA
ATOM     20  O   UNL     1       4.056  -0.120   4.950  0.00  0.00    -0.158 OA
ATOM     21  C   UNL     1       2.338   1.913   5.000  0.00  0.00    +0.215 C 
ENDBRANCH  15  18
ENDBRANCH   2  12
TORSDOF 3
