REMARK  Name = ZINC64496705
REMARK  7 active torsions:
REMARK  status: ('A' for Active; 'I' for Inactive)
REMARK    1  A    between atoms: C_3  and  C_8
REMARK    2  A    between atoms: C_10  and  C_11
REMARK    3  A    between atoms: N_13  and  N_14
REMARK    4  A    between atoms: N_17  and  C_18
REMARK    5  A    between atoms: C_18  and  C_19
REMARK    6  A    between atoms: C_19  and  C_20
REMARK    7  A    between atoms: C_20  and  N_21
REMARK                            x       y       z     vdW  Elec       q    Type
REMARK                         _______ _______ _______ _____ _____    ______ ____
ROOT
ATOM      1  N   UNL     1       4.647  -0.170   4.253  0.00  0.00    -0.218 N 
ATOM      2  C   UNL     1       5.459  -0.408   5.302  0.00  0.00    +0.316 C 
ATOM      3  O   UNL     1       5.123  -1.198   6.164  0.00  0.00    -0.251 OA
ATOM      4  N   UNL     1       6.643   0.229   5.396  0.00  0.00    -0.298 N 
ATOM      5  H   UNL     1       3.795  -0.628   4.186  0.00  0.00    +0.174 HD
ATOM      6  H   UNL     1       6.911   0.859   4.709  0.00  0.00    +0.150 HD
ENDROOT
BRANCH   1   9
ATOM      7  C   UNL     1       4.221   0.978   2.212  0.00  0.00    +0.233 C 
ATOM      8  O   UNL     1       3.156   0.405   2.127  0.00  0.00    -0.274 OA
ATOM      9  N   UNL     1       5.034   0.740   3.260  0.00  0.00    -0.233 N 
ATOM     10  H   UNL     1       5.886   1.198   3.328  0.00  0.00    +0.173 HD
BRANCH   7  13
ATOM     11  C   UNL     1       3.672   2.184  -0.021  0.00  0.00    +0.032 C 
ATOM     12  C   UNL     1       4.964   1.395  -0.241  0.00  0.00    +0.022 C 
ATOM     13  C   UNL     1       4.637   1.957   1.144  0.00  0.00    +0.084 C 
BRANCH  11  16
ATOM     14  C   UNL     1      -0.017   1.378   0.010  0.00  0.00    +0.002 A 
ATOM     15  C   UNL     1       1.171   2.086   0.002  0.00  0.00    +0.004 A 
ATOM     16  C   UNL     1       2.378   1.412  -0.013  0.00  0.00    -0.042 A 
ATOM     17  C   UNL     1       2.398   0.029  -0.021  0.00  0.00    +0.024 A 
ATOM     18  C   UNL     1       1.210  -0.679  -0.013  0.00  0.00    +0.041 A 
ATOM     19  C   UNL     1       0.002  -0.004   0.002  0.00  0.00    +0.020 A 
ATOM     20 CL   UNL     1       1.234  -2.415  -0.024  0.00  0.00    -0.084 Cl
ENDBRANCH  11  16
ENDBRANCH   7  13
ENDBRANCH   1   9
BRANCH   4  21
ATOM     21  C   UNL     1       7.526  -0.030   6.536  0.00  0.00    +0.107 C 
BRANCH  21  22
ATOM     22  C   UNL     1       8.794   0.814   6.401  0.00  0.00    +0.040 C 
BRANCH  22  23
ATOM     23  C   UNL     1       9.716   0.544   7.592  0.00  0.00    +0.124 C 
BRANCH  23  24
ATOM     24  N   UNL     1      10.931   1.352   7.462  0.00  0.00    -0.338 N 
ATOM     25  C   UNL     1      12.086   0.986   6.825  0.00  0.00    +0.104 A 
ATOM     26  C   UNL     1      12.941   2.020   6.944  0.00  0.00    +0.101 A 
ATOM     27  N   UNL     1      12.325   2.991   7.635  0.00  0.00    -0.352 N 
ATOM     28  C   UNL     1      11.119   2.600   7.944  0.00  0.00    +0.173 A 
ATOM     29  H   UNL     1      12.713   3.850   7.864  0.00  0.00    +0.166 HD
ENDBRANCH  23  24
ENDBRANCH  22  23
ENDBRANCH  21  22
ENDBRANCH   4  21
TORSDOF 7
