REMARK  Name = ZINC01203462
REMARK  6 active torsions:
REMARK  status: ('A' for Active; 'I' for Inactive)
REMARK    1  A    between atoms: C_1  and  C_2
REMARK    2  A    between atoms: C_5  and  C_8
REMARK    3  A    between atoms: C_9  and  C_14
REMARK    4  A    between atoms: N_15  and  N_16
REMARK    5  A    between atoms: C_17  and  C_19
REMARK    6  A    between atoms: C_24  and  O_25
REMARK                            x       y       z     vdW  Elec       q    Type
REMARK                         _______ _______ _______ _____ _____    ______ ____
ROOT
ATOM      1  C   UNL     1       1.340   4.371   0.002  0.00  0.00    +0.142 C 
ATOM      2  N   UNL     1       0.714   5.505  -0.082  0.00  0.00    -0.187 NA
ENDROOT
BRANCH   1   4
ATOM      3  C   UNL     1      -0.865   2.956  -0.183  0.00  0.00    +0.101 A 
ATOM      4  C   UNL     1       0.579   3.109   0.008  0.00  0.00    +0.040 A 
ATOM      5  C   UNL     1       1.084   1.851   0.194  0.00  0.00    +0.115 A 
ATOM      6  N   UNL     1       0.062   0.977   0.129  0.00  0.00    -0.284 N 
ATOM      7  H   UNL     1       0.142  -0.014   0.234  0.00  0.00    +0.188 HD
ATOM      8  N   UNL     1      -1.129   1.670  -0.110  0.00  0.00    -0.173 NA
BRANCH   3  13
ATOM      9  C   UNL     1      -4.663   7.185  -1.108  0.00  0.00    +0.044 C 
ATOM     10  C   UNL     1      -3.669   6.078  -0.866  0.00  0.00    -0.050 A 
ATOM     11  C   UNL     1      -2.464   6.074  -1.545  0.00  0.00    +0.004 A 
ATOM     12  C   UNL     1      -1.550   5.063  -1.328  0.00  0.00    +0.010 A 
ATOM     13  C   UNL     1      -1.843   4.045  -0.421  0.00  0.00    +0.003 A 
ATOM     14  C   UNL     1      -3.061   4.052   0.256  0.00  0.00    +0.010 A 
ATOM     15  C   UNL     1      -3.965   5.071   0.035  0.00  0.00    +0.004 A 
ENDBRANCH   3  13
ENDBRANCH   1   4
BRANCH   2  16
ATOM     16  N   UNL     1       1.437   6.705  -0.088  0.00  0.00    -0.203 N 
ATOM     17  C   UNL     1       0.788   7.883  -0.175  0.00  0.00    +0.267 C 
ATOM     18  O   UNL     1      -0.426   7.904  -0.248  0.00  0.00    -0.268 OA
ATOM     19  H   UNL     1       2.405   6.689  -0.029  0.00  0.00    +0.178 HD
BRANCH  17  20
ATOM     20  C   UNL     1       1.549   9.146  -0.181  0.00  0.00    +0.081 A 
ATOM     21  C   UNL     1       2.944   9.127  -0.097  0.00  0.00    +0.032 A 
ATOM     22  C   UNL     1       3.649  10.311  -0.104  0.00  0.00    +0.019 A 
ATOM     23  C   UNL     1       2.981  11.522  -0.194  0.00  0.00    +0.019 A 
ATOM     24  C   UNL     1       1.603  11.555  -0.277  0.00  0.00    +0.047 A 
ATOM     25  C   UNL     1       0.878  10.373  -0.277  0.00  0.00    +0.129 A 
ATOM     26 BR   UNL     1       5.537  10.283   0.010  0.00  0.00    -0.050 Br
BRANCH  25  27
ATOM     27  O   UNL     1      -0.475  10.404  -0.365  0.00  0.00    -0.506 OA
ATOM     28  H   UNL     1      -0.924  10.451   0.491  0.00  0.00    +0.292 HD
ENDBRANCH  25  27
ENDBRANCH  17  20
ENDBRANCH   2  16
TORSDOF 5
