REMARK  Name = ZINC36090500
REMARK  9 active torsions:
REMARK  status: ('A' for Active; 'I' for Inactive)
REMARK    1  A    between atoms: C_1  and  C_2
REMARK    2  A    between atoms: C_3  and  S_8
REMARK    3  A    between atoms: C_4  and  C_7
REMARK    4  A    between atoms: S_8  and  N_11
REMARK    5  A    between atoms: N_11  and  C_12
REMARK    6  A    between atoms: C_12  and  C_13
REMARK    7  A    between atoms: C_13  and  C_15
REMARK    8  A    between atoms: C_13  and  N_20
REMARK    9  A    between atoms: C_23  and  C_26
REMARK                            x       y       z     vdW  Elec       q    Type
REMARK                         _______ _______ _______ _____ _____    ______ ____
ROOT
ATOM      1  C   UNL     1       3.639  -0.943  -4.272  0.00  0.00    +0.015 C 
ENDROOT
BRANCH   1   2
ATOM      2  N   UNL     1       3.461  -0.216  -5.536  0.00  0.00    +0.387 N 
ATOM      3  C   UNL     1       2.820  -1.098  -6.519  0.00  0.00    -0.078 C 
ATOM      4  C   UNL     1       2.559  -0.322  -7.812  0.00  0.00    -0.015 C 
ATOM      5  C   UNL     1       3.889   0.189  -8.373  0.00  0.00    -0.018 C 
ATOM      6  C   UNL     1       4.584   1.046  -7.311  0.00  0.00    -0.015 C 
ATOM      7  C   UNL     1       4.770   0.219  -6.037  0.00  0.00    -0.078 C 
ATOM      8  C   UNL     1       3.628   1.032  -9.622  0.00  0.00    +0.007 C 
ATOM      9  H   UNL     1       2.876   0.591  -5.380  0.00  0.00    -0.081 HD
ENDBRANCH   1   2
BRANCH   1  10
ATOM     10  C   UNL     1       4.591  -2.092  -4.483  0.00  0.00    +0.093 A 
ATOM     11  C   UNL     1       5.648  -2.390  -3.706  0.00  0.00    +0.043 A 
ATOM     12  C   UNL     1       6.257  -3.537  -4.266  0.00  0.00    +0.041 A 
ATOM     13  C   UNL     1       5.536  -3.870  -5.351  0.00  0.00    +0.195 A 
ATOM     14  O   UNL     1       4.524  -2.995  -5.474  0.00  0.00    -0.469 OA
ENDBRANCH   1  10
BRANCH   1  15
ATOM     15  C   UNL     1       2.287  -1.481  -3.798  0.00  0.00    +0.098 C 
BRANCH  15  16
ATOM     16  N   UNL     1       1.337  -0.373  -3.674  0.00  0.00    -0.191 NA
ATOM     17  H   UNL     1       1.657   0.543  -3.676  0.00  0.00    +0.148 HD
BRANCH  16  18
ATOM     18  S   UNL     1      -0.283  -0.683  -3.531  0.00  0.00    +0.063 S 
ATOM     19  O   UNL     1      -0.612  -1.607  -4.560  0.00  0.00    -0.153 OA
ATOM     20  O   UNL     1      -0.929   0.576  -3.404  0.00  0.00    -0.153 OA
BRANCH  18  23
ATOM     21  C   UNL     1      -0.894   0.556  -0.499  0.00  0.00    +0.071 C 
ATOM     22  C   UNL     1      -0.774  -0.923  -0.758  0.00  0.00    +0.107 A 
ATOM     23  C   UNL     1      -0.519  -1.527  -2.002  0.00  0.00    +0.169 A 
ATOM     24  C   UNL     1      -0.487  -2.861  -1.822  0.00  0.00    +0.161 A 
ATOM     25  O   UNL     1      -0.710  -3.110  -0.523  0.00  0.00    -0.358 OA
ATOM     26  N   UNL     1      -0.884  -1.867   0.134  0.00  0.00    -0.081 NA
ATOM     27  C   UNL     1      -0.243  -3.893  -2.893  0.00  0.00    +0.091 C 
ENDBRANCH  18  23
ENDBRANCH  16  18
ENDBRANCH  15  16
ENDBRANCH   1  15
TORSDOF 6
