REMARK  Name = ZINC11704009
REMARK  7 active torsions:
REMARK  status: ('A' for Active; 'I' for Inactive)
REMARK    1  A    between atoms: C_1  and  C_2
REMARK    2  A    between atoms: C_5  and  S_8
REMARK    3  A    between atoms: S_8  and  C_9
REMARK    4  A    between atoms: C_9  and  C_10
REMARK    5  A    between atoms: N_12  and  C_13
REMARK    6  A    between atoms: C_15  and  C_24
REMARK    7  A    between atoms: N_17  and  C_18
REMARK                            x       y       z     vdW  Elec       q    Type
REMARK                         _______ _______ _______ _____ _____    ______ ____
ROOT
ATOM      1  C   UNL     1       2.061   4.294   0.637  0.00  0.00    +0.129 A 
ATOM      2  C   UNL     1       1.695   5.581   0.401  0.00  0.00    +0.074 A 
ATOM      3  C   UNL     1       0.535   5.560  -0.396  0.00  0.00    +0.095 A 
ATOM      4  N   UNL     1       0.222   4.303  -0.633  0.00  0.00    -0.165 NA
ATOM      5  N   UNL     1       1.162   3.487   0.009  0.00  0.00    -0.218 N 
ENDROOT
BRANCH   3   6
ATOM      6  C   UNL     1      -0.204   6.748  -0.889  0.00  0.00    +0.002 A 
ATOM      7  C   UNL     1       0.293   8.030  -0.659  0.00  0.00    +0.010 A 
ATOM      8  C   UNL     1      -0.404   9.124  -1.120  0.00  0.00    +0.004 A 
ATOM      9  C   UNL     1      -1.599   8.965  -1.812  0.00  0.00    -0.044 A 
ATOM     10  C   UNL     1      -2.093   7.700  -2.047  0.00  0.00    -0.044 A 
ATOM     11  C   UNL     1      -1.395   6.592  -1.589  0.00  0.00    +0.014 A 
ATOM     12  C   UNL     1      -3.375   7.457  -2.799  0.00  0.00    +0.035 C 
ATOM     13  C   UNL     1      -4.219   8.729  -2.848  0.00  0.00    +0.005 C 
ATOM     14  C   UNL     1      -3.335   9.875  -3.355  0.00  0.00    +0.005 C 
ATOM     15  C   UNL     1      -2.312  10.210  -2.272  0.00  0.00    +0.035 C 
ENDBRANCH   3   6
BRANCH   5  16
ATOM     16  C   UNL     1       1.177   2.086   0.002  0.00  0.00    +0.067 A 
ATOM     17  C   UNL     1      -0.017   1.377   0.010  0.00  0.00    +0.028 A 
ATOM     18  C   UNL     1       0.002  -0.004   0.002  0.00  0.00    +0.002 A 
ATOM     19  C   UNL     1       1.208  -0.681  -0.013  0.00  0.00    +0.000 A 
ATOM     20  C   UNL     1       2.399   0.023  -0.021  0.00  0.00    +0.002 A 
ATOM     21  C   UNL     1       2.387   1.404  -0.013  0.00  0.00    +0.028 A 
ENDBRANCH   5  16
BRANCH   1  24
ATOM     22  C   UNL     1       3.973   4.786   1.956  0.00  0.00    +0.229 C 
ATOM     23  O   UNL     1       3.750   5.970   1.817  0.00  0.00    -0.275 OA
ATOM     24  N   UNL     1       3.160   3.876   1.387  0.00  0.00    -0.270 N 
ATOM     25  H   UNL     1       3.339   2.929   1.498  0.00  0.00    +0.156 HD
BRANCH  22  26
ATOM     26  C   UNL     1       5.161   4.334   2.767  0.00  0.00    +0.173 C 
BRANCH  26  27
ATOM     27  S   UNL     1       6.049   5.780   3.395  0.00  0.00    -0.077 S 
BRANCH  27  32
ATOM     28  C   UNL     1      10.350   4.737   6.337  0.00  0.00    +0.088 C 
ATOM     29  C   UNL     1       9.115   4.581   5.487  0.00  0.00    +0.128 A 
ATOM     30  N   UNL     1       8.352   5.593   4.974  0.00  0.00    -0.320 N 
ATOM     31  H   UNL     1       8.493   6.546   5.082  0.00  0.00    +0.169 HD
ATOM     32  C   UNL     1       7.349   4.982   4.277  0.00  0.00    +0.189 A 
ATOM     33  N   UNL     1       7.532   3.687   4.394  0.00  0.00    -0.123 NA
ATOM     34  N   UNL     1       8.578   3.457   5.105  0.00  0.00    -0.134 NA
ENDBRANCH  27  32
ENDBRANCH  26  27
ENDBRANCH  22  26
ENDBRANCH   1  24
TORSDOF 6
