REMARK  Name = ZINC42027472
REMARK  4 active torsions:
REMARK  status: ('A' for Active; 'I' for Inactive)
REMARK    1  A    between atoms: C_5  and  N_7
REMARK    2  A    between atoms: C_8  and  C_12
REMARK    3  A    between atoms: C_14  and  N_19
REMARK    4  A    between atoms: C_16  and  N_18
REMARK                            x       y       z     vdW  Elec       q    Type
REMARK                         _______ _______ _______ _____ _____    ______ ____
ROOT
ATOM      1  N   UNL     1       1.216  -2.095  -0.202  0.00  0.00    -0.192 N 
ATOM      2  C   UNL     1       0.172  -2.929   0.072  0.00  0.00    +0.187 A 
ATOM      3  N   UNL     1       0.672  -4.141   0.194  0.00  0.00    -0.108 NA
ATOM      4  N   UNL     1       1.943  -4.124   0.018  0.00  0.00    -0.022 NA
ATOM      5  N   UNL     1       2.350  -2.927  -0.232  0.00  0.00    -0.039 NA
ENDROOT
BRANCH   1  10
ATOM      6  C   UNL     1       0.321   1.177  -1.624  0.00  0.00    +0.002 A 
ATOM      7  C   UNL     1       1.076   2.023  -0.832  0.00  0.00    +0.001 A 
ATOM      8  C   UNL     1       1.877   1.506   0.169  0.00  0.00    +0.017 A 
ATOM      9  C   UNL     1       1.926   0.141   0.381  0.00  0.00    +0.043 A 
ATOM     10  C   UNL     1       1.169  -0.711  -0.413  0.00  0.00    +0.083 A 
ATOM     11  C   UNL     1       0.365  -0.187  -1.417  0.00  0.00    +0.029 A 
ATOM     12 BR   UNL     1       3.024  -0.566   1.749  0.00  0.00    -0.048 Br
ENDBRANCH   1  10
BRANCH   2  13
ATOM     13  C   UNL     1      -1.251  -2.545   0.207  0.00  0.00    +0.025 A 
ATOM     14  C   UNL     1      -1.596  -1.216   0.450  0.00  0.00    +0.034 A 
ATOM     15  C   UNL     1      -2.930  -0.859   0.575  0.00  0.00    +0.027 A 
ATOM     16  C   UNL     1      -3.922  -1.823   0.458  0.00  0.00    +0.045 A 
ATOM     17  C   UNL     1      -3.582  -3.147   0.216  0.00  0.00    +0.027 A 
ATOM     18  C   UNL     1      -2.250  -3.510   0.084  0.00  0.00    +0.034 A 
BRANCH  17  19
ATOM     19  N   UNL     1      -4.583  -4.115   0.100  0.00  0.00    -0.358 N 
ATOM     20  H   UNL     1      -5.516  -3.861   0.188  0.00  0.00    +0.142 HD
ATOM     21  H   UNL     1      -4.346  -5.040  -0.069  0.00  0.00    +0.142 HD
ENDBRANCH  17  19
BRANCH  15  22
ATOM     22  N   UNL     1      -3.276   0.473   0.819  0.00  0.00    -0.358 N 
ATOM     23  H   UNL     1      -2.584   1.147   0.901  0.00  0.00    +0.142 HD
ATOM     24  H   UNL     1      -4.209   0.723   0.906  0.00  0.00    +0.142 HD
ENDBRANCH  15  22
ENDBRANCH   2  13
TORSDOF 4
