REMARK  Name = ZINC62357130
REMARK  4 active torsions:
REMARK  status: ('A' for Active; 'I' for Inactive)
REMARK    1  A    between atoms: C_1  and  N_2
REMARK    2  A    between atoms: N_2  and  C_3
REMARK    3  A    between atoms: C_3  and  C_5
REMARK    4  A    between atoms: C_3  and  C_18
REMARK                            x       y       z     vdW  Elec       q    Type
REMARK                         _______ _______ _______ _____ _____    ______ ____
ROOT
ATOM      1  C   UNL     1       2.137  -0.060  -1.158  0.00  0.00    -0.040 A 
ATOM      2  C   UNL     1       2.745   0.171   0.061  0.00  0.00    +0.031 A 
ATOM      3  C   UNL     1       4.076   0.556   0.105  0.00  0.00    +0.067 A 
ATOM      4  C   UNL     1       4.797   0.708  -1.081  0.00  0.00    +0.068 A 
ATOM      5  C   UNL     1       4.178   0.475  -2.299  0.00  0.00    +0.043 A 
ATOM      6  C   UNL     1       2.852   0.086  -2.334  0.00  0.00    +0.022 A 
ATOM      7 BR   UNL     1       2.010  -0.241  -3.996  0.00  0.00    -0.050 Br
ATOM      8  N   UNL     1       6.086   1.095  -0.722  0.00  0.00    -0.306 N 
ATOM      9  H   UNL     1       6.815   1.277  -1.335  0.00  0.00    +0.170 HD
ATOM     10  C   UNL     1       6.147   1.174   0.620  0.00  0.00    +0.325 A 
ATOM     11  O   UNL     1       7.134   1.488   1.260  0.00  0.00    -0.247 OA
ATOM     12  N   UNL     1       4.950   0.855   1.148  0.00  0.00    -0.306 N 
ATOM     13  H   UNL     1       4.734   0.836   2.094  0.00  0.00    +0.170 HD
ENDROOT
BRANCH   1  14
ATOM     14  C   UNL     1       0.690  -0.478  -1.207  0.00  0.00    +0.010 C 
BRANCH  14  15
ATOM     15  C   UNL     1       0.603  -1.981  -1.277  0.00  0.00    +0.039 A 
ATOM     16  C   UNL     1      -0.124  -2.693  -0.379  0.00  0.00    +0.068 A 
ATOM     17  S   UNL     1       0.158  -4.354  -0.971  0.00  0.00    -0.084 S 
ATOM     18  C   UNL     1       1.151  -3.970  -2.273  0.00  0.00    +0.156 A 
ATOM     19  N   UNL     1       1.225  -2.663  -2.218  0.00  0.00    -0.254 NA
ENDBRANCH  14  15
BRANCH  14  21
ATOM     20  C   UNL     1      -0.018   1.465   0.010  0.00  0.00    -0.099 C 
ATOM     21  N   UNL     1       0.002  -0.004   0.002  0.00  0.00    +0.385 N 
ATOM     22  H   UNL     1       0.490  -0.338   0.820  0.00  0.00    -0.085 HD
ATOM     23  H   UNL     1      -0.945  -0.353   0.009  0.00  0.00    -0.085 HD
ENDBRANCH  14  21
ENDBRANCH   1  14
TORSDOF 3
