REMARK  Name = ZINC49504608
REMARK  6 active torsions:
REMARK  status: ('A' for Active; 'I' for Inactive)
REMARK    1  A    between atoms: C_1  and  C_2
REMARK    2  A    between atoms: C_2  and  C_4
REMARK    3  A    between atoms: C_2  and  N_11
REMARK    4  A    between atoms: N_11  and  S_12
REMARK    5  A    between atoms: S_12  and  C_15
REMARK    6  A    between atoms: C_20  and  N_21
REMARK                            x       y       z     vdW  Elec       q    Type
REMARK                         _______ _______ _______ _____ _____    ______ ____
ROOT
ATOM      1  S   UNL     1      -0.126  -0.789   2.619  0.00  0.00    +0.061 S 
ATOM      2  O   UNL     1       0.751  -1.124   3.686  0.00  0.00    -0.153 OA
ATOM      3  O   UNL     1      -1.010   0.322   2.681  0.00  0.00    -0.153 OA
ENDROOT
BRANCH   1   4
ATOM      4  C   UNL     1      -1.124  -2.211   2.322  0.00  0.00    +0.127 A 
ATOM      5  C   UNL     1      -2.497  -2.085   2.235  0.00  0.00    +0.045 A 
ATOM      6  C   UNL     1      -3.281  -3.201   2.002  0.00  0.00    +0.020 A 
ATOM      7  C   UNL     1      -2.693  -4.445   1.856  0.00  0.00    +0.017 A 
ATOM      8  C   UNL     1      -1.321  -4.577   1.943  0.00  0.00    +0.026 A 
ATOM      9  C   UNL     1      -0.531  -3.457   2.171  0.00  0.00    +0.051 A 
ATOM     10 BR   UNL     1      -5.160  -3.025   1.883  0.00  0.00    -0.050 Br
BRANCH   9  11
ATOM     11  N   UNL     1       0.858  -3.586   2.253  0.00  0.00    -0.356 N 
ATOM     12  H   UNL     1       1.414  -2.796   2.334  0.00  0.00    +0.142 HD
ATOM     13  H   UNL     1       1.266  -4.466   2.230  0.00  0.00    +0.142 HD
ENDBRANCH   9  11
ENDBRANCH   1   4
BRANCH   1  14
ATOM     14  N   UNL     1       0.821  -0.567   1.280  0.00  0.00    -0.183 NA
ATOM     15  H   UNL     1       1.785  -0.655   1.347  0.00  0.00    +0.149 HD
BRANCH  14  17
ATOM     16  C   UNL     1       0.226   1.278  -0.212  0.00  0.00    +0.031 C 
ATOM     17  C   UNL     1       0.204  -0.238  -0.008  0.00  0.00    +0.103 C 
BRANCH  17  18
ATOM     18  C   UNL     1       0.972  -0.906  -1.119  0.00  0.00    -0.029 A 
ATOM     19  C   UNL     1       2.353  -0.960  -1.068  0.00  0.00    +0.008 A 
ATOM     20  C   UNL     1       3.059  -1.572  -2.086  0.00  0.00    +0.038 A 
ATOM     21  C   UNL     1       2.383  -2.132  -3.157  0.00  0.00    +0.123 A 
ATOM     22  C   UNL     1       1.000  -2.078  -3.207  0.00  0.00    +0.038 A 
ATOM     23  C   UNL     1       0.296  -1.470  -2.185  0.00  0.00    +0.008 A 
ATOM     24  F   UNL     1       3.072  -2.731  -4.153  0.00  0.00    -0.205 F 
ENDBRANCH  17  18
ENDBRANCH  14  17
ENDBRANCH   1  14
TORSDOF 5
