REMARK  Name = ZINC04333701
REMARK  6 active torsions:
REMARK  status: ('A' for Active; 'I' for Inactive)
REMARK    1  A    between atoms: C_4  and  N_7
REMARK    2  A    between atoms: N_7  and  C_8
REMARK    3  A    between atoms: C_8  and  N_10
REMARK    4  A    between atoms: N_10  and  C_11
REMARK    5  A    between atoms: C_11  and  C_17
REMARK    6  A    between atoms: C_23  and  O_25
REMARK                            x       y       z     vdW  Elec       q    Type
REMARK                         _______ _______ _______ _____ _____    ______ ____
ROOT
ATOM      1  C   UNL     1       5.009  -4.105  -0.180  0.00  0.00    +0.039 C 
ATOM      2  C   UNL     1       4.324  -4.479  -1.496  0.00  0.00    +0.026 C 
ATOM      3  C   UNL     1       2.876  -3.986  -1.476  0.00  0.00    +0.002 C 
ATOM      4  C   UNL     1       2.131  -4.639  -0.310  0.00  0.00    +0.000 C 
ATOM      5  C   UNL     1       2.816  -4.264   1.006  0.00  0.00    +0.002 C 
ATOM      6  C   UNL     1       4.264  -4.757   0.986  0.00  0.00    +0.026 C 
ENDROOT
BRANCH   1   7
ATOM      7  C   UNL     1       6.457  -4.598  -0.201  0.00  0.00    +0.041 C 
ATOM      8  C   UNL     1       6.475  -6.127  -0.218  0.00  0.00    +0.008 C 
ATOM      9  C   UNL     1       7.923  -6.620  -0.238  0.00  0.00    +0.001 C 
ATOM     10  C   UNL     1       8.626  -6.088  -1.489  0.00  0.00    +0.003 C 
ATOM     11  C   UNL     1       8.608  -4.558  -1.472  0.00  0.00    +0.032 C 
ATOM     12  C   UNL     1       7.160  -4.065  -1.452  0.00  0.00    +0.120 C 
BRANCH  12  13
ATOM     13  O   UNL     1       7.143  -2.636  -1.435  0.00  0.00    -0.391 OA
ATOM     14  H   UNL     1       7.572  -2.230  -2.200  0.00  0.00    +0.210 HD
ENDBRANCH  12  13
ENDBRANCH   1   7
BRANCH   1  15
ATOM     15  N   UNL     1       4.991  -2.649  -0.018  0.00  0.00    -0.320 N 
ATOM     16  H   UNL     1       4.592  -2.089  -0.703  0.00  0.00    +0.148 HD
BRANCH  15  17
ATOM     17  C   UNL     1       5.529  -2.087   1.083  0.00  0.00    +0.135 C 
ATOM     18  S   UNL     1       6.343  -3.062   2.231  0.00  0.00    -0.019 S 
BRANCH  17  19
ATOM     19  N   UNL     1       5.426  -0.757   1.279  0.00  0.00    -0.297 N 
ATOM     20  H   UNL     1       4.915  -0.213   0.660  0.00  0.00    +0.154 HD
BRANCH  19  24
ATOM     21  C   UNL     1       7.302   1.016   4.549  0.00  0.00    +0.000 A 
ATOM     22  C   UNL     1       7.399   1.599   3.298  0.00  0.00    +0.002 A 
ATOM     23  C   UNL     1       6.778   1.013   2.212  0.00  0.00    +0.023 A 
ATOM     24  C   UNL     1       6.056  -0.162   2.377  0.00  0.00    +0.033 A 
ATOM     25  C   UNL     1       5.961  -0.745   3.634  0.00  0.00    +0.023 A 
ATOM     26  C   UNL     1       6.584  -0.154   4.716  0.00  0.00    +0.002 A 
ENDBRANCH  19  24
ENDBRANCH  17  19
ENDBRANCH  15  17
ENDBRANCH   1  15
TORSDOF 6
