REMARK  Name = ZINC05835069
REMARK  4 active torsions:
REMARK  status: ('A' for Active; 'I' for Inactive)
REMARK    1  A    between atoms: C_8  and  C_12
REMARK    2  A    between atoms: C_12  and  C_13
REMARK    3  A    between atoms: C_12  and  C_20
REMARK    4  A    between atoms: C_16  and  O_19
REMARK                            x       y       z     vdW  Elec       q    Type
REMARK                         _______ _______ _______ _____ _____    ______ ____
ROOT
ATOM      1  C   UNL     1       2.628  -4.245  -0.046  0.00  0.00    +0.100 C 
ENDROOT
BRANCH   1   9
ATOM      2  C   UNL     1      -2.596  -0.919  -0.497  0.00  0.00    +0.001 A 
ATOM      3  C   UNL     1      -2.108  -0.013  -1.426  0.00  0.00    +0.004 A 
ATOM      4  C   UNL     1      -0.814  -0.112  -1.893  0.00  0.00    +0.047 A 
ATOM      5  C   UNL     1       0.013  -1.128  -1.431  0.00  0.00    +0.143 A 
ATOM      6  C   UNL     1      -0.480  -2.046  -0.490  0.00  0.00    +0.065 A 
ATOM      7  C   UNL     1      -1.792  -1.934  -0.026  0.00  0.00    +0.015 A 
ATOM      8  C   UNL     1       0.406  -3.117  -0.009  0.00  0.00    +0.200 A 
ATOM      9  C   UNL     1       1.680  -3.168  -0.506  0.00  0.00    +0.096 A 
ATOM     10  C   UNL     1       2.099  -2.214  -1.445  0.00  0.00    +0.345 A 
ATOM     11  O   UNL     1       3.236  -2.271  -1.880  0.00  0.00    -0.245 OA
ATOM     12  O   UNL     1       1.283  -1.240  -1.878  0.00  0.00    -0.422 OA
ATOM     13  O   UNL     1      -0.025  -4.023   0.897  0.00  0.00    -0.287 OA
ENDBRANCH   1   9
BRANCH   1  14
ATOM     14  C   UNL     1       3.545  -3.688   1.013  0.00  0.00    +0.096 A 
ATOM     15  C   UNL     1       3.449  -2.375   1.384  0.00  0.00    +0.200 A 
ATOM     16  C   UNL     1       4.367  -1.881   2.421  0.00  0.00    +0.065 A 
ATOM     17  C   UNL     1       4.323  -0.552   2.849  0.00  0.00    +0.015 A 
ATOM     18  C   UNL     1       5.197  -0.122   3.822  0.00  0.00    +0.001 A 
ATOM     19  C   UNL     1       6.116  -1.000   4.377  0.00  0.00    +0.004 A 
ATOM     20  C   UNL     1       6.169  -2.315   3.964  0.00  0.00    +0.047 A 
ATOM     21  C   UNL     1       5.297  -2.770   2.983  0.00  0.00    +0.143 A 
ATOM     22  O   UNL     1       5.336  -4.054   2.568  0.00  0.00    -0.422 OA
ATOM     23  C   UNL     1       4.498  -4.516   1.626  0.00  0.00    +0.345 A 
ATOM     24  O   UNL     1       4.571  -5.685   1.290  0.00  0.00    -0.245 OA
ATOM     25  O   UNL     1       2.536  -1.556   0.813  0.00  0.00    -0.287 OA
ENDBRANCH   1  14
BRANCH   1  26
ATOM     26  C   UNL     1       3.446  -4.727  -1.216  0.00  0.00    -0.035 A 
ATOM     27  C   UNL     1       4.785  -4.391  -1.308  0.00  0.00    +0.008 A 
ATOM     28  C   UNL     1       5.537  -4.832  -2.380  0.00  0.00    +0.046 A 
ATOM     29  C   UNL     1       4.948  -5.612  -3.364  0.00  0.00    +0.117 A 
ATOM     30  C   UNL     1       3.605  -5.948  -3.270  0.00  0.00    +0.046 A 
ATOM     31  C   UNL     1       2.859  -5.509  -2.193  0.00  0.00    +0.008 A 
BRANCH  29  32
ATOM     32  O   UNL     1       5.685  -6.046  -4.420  0.00  0.00    -0.507 OA
ATOM     33  H   UNL     1       6.113  -6.901  -4.276  0.00  0.00    +0.292 HD
ENDBRANCH  29  32
ENDBRANCH   1  26
TORSDOF 4
