REMARK  Name = ZINC58177639
REMARK  3 active torsions:
REMARK  status: ('A' for Active; 'I' for Inactive)
REMARK    1  A    between atoms: C_5  and  N_8
REMARK    2  A    between atoms: N_11  and  C_12
REMARK    3  A    between atoms: C_18  and  O_20
REMARK                            x       y       z     vdW  Elec       q    Type
REMARK                         _______ _______ _______ _____ _____    ______ ____
ROOT
ATOM      1  N   UNL     1       1.229  -2.086  -0.021  0.00  0.00    -0.268 N 
ATOM      2  C   UNL     1       2.398  -2.747  -0.137  0.00  0.00    +0.304 C 
ATOM      3  O   UNL     1       3.446  -2.131  -0.144  0.00  0.00    -0.252 OA
ATOM      4  N   UNL     1       2.405  -4.090  -0.246  0.00  0.00    -0.294 N 
ATOM      5  H   UNL     1       0.399  -2.581   0.067  0.00  0.00    +0.156 HD
ATOM      6  H   UNL     1       1.568  -4.581  -0.240  0.00  0.00    +0.151 HD
ENDROOT
BRANCH   1  11
ATOM      7  C   UNL     1       0.149   1.382   0.582  0.00  0.00    +0.048 A 
ATOM      8  C   UNL     1       1.172   2.085  -0.033  0.00  0.00    +0.077 A 
ATOM      9  C   UNL     1       2.220   1.402  -0.647  0.00  0.00    +0.144 A 
ATOM     10  C   UNL     1       2.239   0.018  -0.643  0.00  0.00    +0.072 A 
ATOM     11  C   UNL     1       1.212  -0.685  -0.026  0.00  0.00    +0.057 A 
ATOM     12  C   UNL     1       0.168  -0.001   0.585  0.00  0.00    +0.064 A 
ATOM     13 CL   UNL     1      -1.113  -0.884   1.354  0.00  0.00    -0.082 Cl
ATOM     14  O   UNL     1       3.216   2.106  -1.249  0.00  0.00    -0.481 OA
ATOM     15  C   UNL     1       2.851   3.349  -1.853  0.00  0.00    +0.325 C 
ATOM     16  C   UNL     1       1.985   4.138  -0.904  0.00  0.00    +0.255 C 
ATOM     17  O   UNL     1       2.021   5.351  -0.912  0.00  0.00    -0.272 OA
ATOM     18  N   UNL     1       1.169   3.489  -0.045  0.00  0.00    -0.280 N 
ATOM     19  H   UNL     1       0.589   3.986   0.553  0.00  0.00    +0.155 HD
ENDBRANCH   1  11
BRANCH   4  20
ATOM     20  C   UNL     1       3.675  -4.808  -0.373  0.00  0.00    +0.103 C 
ATOM     21  C   UNL     1       4.257  -5.064   1.019  0.00  0.00    +0.025 C 
ATOM     22  C   UNL     1       5.584  -5.814   0.886  0.00  0.00    +0.002 C 
ATOM     23  C   UNL     1       5.347  -7.150   0.179  0.00  0.00    +0.003 C 
ATOM     24  C   UNL     1       4.765  -6.894  -1.213  0.00  0.00    +0.033 C 
ATOM     25  C   UNL     1       3.438  -6.144  -1.081  0.00  0.00    +0.135 C 
BRANCH  25  26
ATOM     26  O   UNL     1       2.520  -6.930  -0.318  0.00  0.00    -0.390 OA
ATOM     27  H   UNL     1       2.323  -7.793  -0.708  0.00  0.00    +0.210 HD
ENDBRANCH  25  26
ENDBRANCH   4  20
TORSDOF 3
