REMARK  Name = ZINC07884748
REMARK  3 active torsions:
REMARK  status: ('A' for Active; 'I' for Inactive)
REMARK    1  A    between atoms: N_9  and  C_21
REMARK    2  A    between atoms: C_10  and  C_13
REMARK    3  A    between atoms: C_16  and  C_19
REMARK                            x       y       z     vdW  Elec       q    Type
REMARK                         _______ _______ _______ _____ _____    ______ ____
ROOT
ATOM      1  C   UNL     1       2.351  -4.220  -0.093  0.00  0.00    +0.001 A 
ATOM      2  C   UNL     1       1.213  -4.865   0.365  0.00  0.00    +0.002 A 
ATOM      3  C   UNL     1       0.076  -4.146   0.677  0.00  0.00    +0.024 A 
ATOM      4  C   UNL     1       0.074  -2.769   0.530  0.00  0.00    +0.041 A 
ATOM      5  C   UNL     1       1.223  -2.112   0.058  0.00  0.00    +0.058 A 
ATOM      6  C   UNL     1       2.365  -2.850  -0.248  0.00  0.00    +0.015 A 
ATOM      7  C   UNL     1       1.179  -0.650  -0.121  0.00  0.00    +0.254 C 
ATOM      8  O   UNL     1       2.195  -0.030  -0.372  0.00  0.00    -0.270 OA
ATOM      9  N   UNL     1       0.002  -0.004   0.002  0.00  0.00    -0.244 N 
ATOM     10  C   UNL     1      -1.256  -0.741   0.121  0.00  0.00    +0.198 C 
ATOM     11  N   UNL     1      -1.043  -2.001   0.842  0.00  0.00    -0.321 N 
ATOM     12  H   UNL     1      -1.669  -2.293   1.522  0.00  0.00    +0.148 HD
ENDROOT
BRANCH   9  13
ATOM     13  C   UNL     1      -0.017   1.395   0.010  0.00  0.00    +0.039 A 
ATOM     14  C   UNL     1       0.509   2.104  -1.062  0.00  0.00    +0.026 A 
ATOM     15  C   UNL     1       0.485   3.485  -1.055  0.00  0.00    +0.040 A 
ATOM     16  C   UNL     1      -0.053   4.163   0.026  0.00  0.00    +0.124 A 
ATOM     17  C   UNL     1      -0.574   3.458   1.098  0.00  0.00    +0.040 A 
ATOM     18  C   UNL     1      -0.557   2.078   1.092  0.00  0.00    +0.026 A 
ATOM     19  F   UNL     1      -0.071   5.514   0.033  0.00  0.00    -0.205 F 
ENDBRANCH   9  13
BRANCH  10  20
ATOM     20  C   UNL     1      -1.791  -1.041  -1.256  0.00  0.00    -0.009 A 
ATOM     21  C   UNL     1      -1.524  -0.176  -2.302  0.00  0.00    +0.008 A 
ATOM     22  C   UNL     1      -2.006  -0.448  -3.566  0.00  0.00    +0.015 A 
ATOM     23  C   UNL     1      -2.773  -1.593  -3.785  0.00  0.00    +0.063 A 
ATOM     24  C   UNL     1      -3.043  -2.459  -2.724  0.00  0.00    +0.015 A 
ATOM     25  C   UNL     1      -2.551  -2.178  -1.466  0.00  0.00    +0.008 A 
BRANCH  23  26
ATOM     26  C   UNL     1      -3.298  -1.888  -5.135  0.00  0.00    +0.387 C 
ATOM     27  O   UNL     1      -3.966  -2.885  -5.322  0.00  0.00    -0.241 OA
ATOM     28  O   UNL     1      -3.035  -1.050  -6.157  0.00  0.00    -0.241 OA
ENDBRANCH  23  26
ENDBRANCH  10  20
TORSDOF 3
