REMARK  Name = ZINC20491952
REMARK  6 active torsions:
REMARK  status: ('A' for Active; 'I' for Inactive)
REMARK    1  A    between atoms: C_1  and  C_2
REMARK    2  A    between atoms: C_2  and  C_4
REMARK    3  A    between atoms: C_8  and  N_10
REMARK    4  A    between atoms: N_10  and  S_11
REMARK    5  A    between atoms: S_11  and  C_14
REMARK    6  A    between atoms: C_21  and  N_24
REMARK                            x       y       z     vdW  Elec       q    Type
REMARK                         _______ _______ _______ _____ _____    ______ ____
ROOT
ATOM      1  S   UNL     1       2.149  -3.489  -0.004  0.00  0.00    +0.074 S 
ATOM      2  O   UNL     1       3.243  -3.409   0.899  0.00  0.00    -0.150 OA
ATOM      3  O   UNL     1       1.223  -4.567   0.014  0.00  0.00    -0.150 OA
ENDROOT
BRANCH   1   4
ATOM      4  C   UNL     1       1.209  -2.014   0.210  0.00  0.00    +0.133 A 
ATOM      5  C   UNL     1       1.463  -1.026   1.083  0.00  0.00    +0.112 A 
ATOM      6  N   UNL     1       0.517  -0.044   0.962  0.00  0.00    -0.359 N 
ATOM      7  H   UNL     1       0.568   0.849   1.603  0.00  0.00    +0.165 HD
ATOM      8  C   UNL     1      -0.390  -0.385  -0.016  0.00  0.00    +0.049 A 
ATOM      9  C   UNL     1       0.004  -1.634  -0.530  0.00  0.00    +0.028 A 
ATOM     10  C   UNL     1      -0.741  -2.235  -1.546  0.00  0.00    +0.044 A 
ATOM     11  C   UNL     1      -1.850  -1.605  -2.038  0.00  0.00    +0.127 A 
ATOM     12  C   UNL     1      -2.242  -0.373  -1.534  0.00  0.00    +0.035 A 
ATOM     13  C   UNL     1      -1.522   0.238  -0.531  0.00  0.00    +0.028 A 
BRANCH  11  14
ATOM     14  N   UNL     1      -2.639  -2.242  -3.116  0.00  0.00    +0.056 N 
ATOM     15  O   UNL     1      -2.298  -3.324  -3.562  0.00  0.00    -0.126 OA
ATOM     16  O   UNL     1      -3.628  -1.685  -3.558  0.00  0.00    -0.126 OA
ENDBRANCH  11  14
ENDBRANCH   1   4
BRANCH   1  17
ATOM     17  N   UNL     1       2.791  -3.443  -1.530  0.00  0.00    -0.216 N 
ATOM     18  H   UNL     1       2.522  -4.218  -2.264  0.00  0.00    +0.174 HD
BRANCH  17  23
ATOM     19  C   UNL     1       4.402  -0.734  -3.442  0.00  0.00    +0.019 A 
ATOM     20  C   UNL     1       5.444  -0.392  -2.574  0.00  0.00    +0.011 A 
ATOM     21  C   UNL     1       5.593  -1.062  -1.378  0.00  0.00    +0.003 A 
ATOM     22  C   UNL     1       4.714  -2.072  -1.031  0.00  0.00    +0.024 A 
ATOM     23  C   UNL     1       3.675  -2.421  -1.886  0.00  0.00    +0.049 A 
ATOM     24  C   UNL     1       3.518  -1.759  -3.094  0.00  0.00    +0.035 A 
BRANCH  19  26
ATOM     25  C   UNL     1       5.199   1.079  -5.096  0.00  0.00    +0.091 C 
ATOM     26  C   UNL     1       4.240  -0.022  -4.720  0.00  0.00    +0.160 C 
ATOM     27  O   UNL     1       3.335  -0.320  -5.470  0.00  0.00    -0.292 OA
ENDBRANCH  19  26
ENDBRANCH  17  23
ENDBRANCH   1  17
TORSDOF 5
