REMARK  Name = ZINC48527675
REMARK  4 active torsions:
REMARK  status: ('A' for Active; 'I' for Inactive)
REMARK    1  A    between atoms: C_3  and  O_10
REMARK    2  A    between atoms: C_4  and  C_8
REMARK    3  A    between atoms: O_10  and  C_11
REMARK    4  A    between atoms: C_11  and  C_13
REMARK                            x       y       z     vdW  Elec       q    Type
REMARK                         _______ _______ _______ _____ _____    ______ ____
ROOT
ATOM      1  O   UNL     1       3.542   2.135  -0.022  0.00  0.00    -0.420 OA
ENDROOT
BRANCH   1   4
ATOM      2  C   UNL     1       0.643   0.288   1.169  0.00  0.00    +0.006 A 
ATOM      3  C   UNL     1       1.825   1.004   1.171  0.00  0.00    +0.048 A 
ATOM      4  C   UNL     1       2.382   1.431  -0.024  0.00  0.00    +0.152 A 
ATOM      5  C   UNL     1       1.742   1.132  -1.235  0.00  0.00    +0.129 A 
ATOM      6  C   UNL     1       0.546   0.406  -1.224  0.00  0.00    +0.144 A 
ATOM      7  C   UNL     1       0.006  -0.011  -0.022  0.00  0.00    +0.040 A 
ATOM      8  F   UNL     1      -0.079   0.113  -2.385  0.00  0.00    -0.204 F 
BRANCH   5   9
ATOM      9  C   UNL     1       2.309   1.568  -2.476  0.00  0.00    +0.106 C 
ATOM     10  N   UNL     1       2.758   1.914  -3.460  0.00  0.00    -0.191 NA
ENDBRANCH   5   9
ENDBRANCH   1   4
BRANCH   1  11
ATOM     11  C   UNL     1       3.467   3.479  -0.118  0.00  0.00    +0.361 C 
ATOM     12  O   UNL     1       2.383   4.031  -0.103  0.00  0.00    -0.243 OA
BRANCH  11  13
ATOM     13  C   UNL     1       4.691   4.274  -0.241  0.00  0.00    +0.126 A 
ATOM     14  C   UNL     1       4.765   5.648  -0.342  0.00  0.00    +0.054 A 
ATOM     15  C   UNL     1       6.120   5.981  -0.439  0.00  0.00    +0.059 A 
ATOM     16  C   UNL     1       6.835   4.830  -0.397  0.00  0.00    +0.103 A 
ATOM     17  N   UNL     1       5.979   3.786  -0.272  0.00  0.00    -0.354 N 
ATOM     18  H   UNL     1       6.231   2.851  -0.216  0.00  0.00    +0.166 HD
ATOM     19 CL   UNL     1       6.771   7.583  -0.587  0.00  0.00    -0.082 Cl
ENDBRANCH  11  13
ENDBRANCH   1  11
TORSDOF 4
