REMARK  Name = ZINC03310073
REMARK  6 active torsions:
REMARK  status: ('A' for Active; 'I' for Inactive)
REMARK    1  A    between atoms: C_3  and  C_6
REMARK    2  A    between atoms: C_6  and  N_52
REMARK    3  A    between atoms: C_7  and  C_8
REMARK    4  A    between atoms: C_7  and  N_52
REMARK    5  A    between atoms: N_10  and  C_11
REMARK    6  A    between atoms: N_10  and  C_17
REMARK                            x       y       z     vdW  Elec       q    Type
REMARK                         _______ _______ _______ _____ _____    ______ ____
ROOT
ATOM      1  C   UNL     1      -2.151   0.974  -1.101  0.00  0.00    +0.199 C 
ATOM      2  O   UNL     1      -1.029   1.425  -1.192  0.00  0.00    -0.278 OA
ATOM      3  N   UNL     1      -3.053   1.209  -2.075  0.00  0.00    -0.297 N 
ENDROOT
BRANCH   3   4
ATOM      4  C   UNL     1      -2.634   1.857  -3.320  0.00  0.00    +0.076 C 
ATOM      5  C   UNL     1      -1.475   1.073  -3.939  0.00  0.00    +0.022 C 
ATOM      6  C   UNL     1      -1.038   1.750  -5.239  0.00  0.00    +0.002 C 
ATOM      7  C   UNL     1      -0.584   3.180  -4.942  0.00  0.00    +0.000 C 
ATOM      8  C   UNL     1      -1.743   3.965  -4.323  0.00  0.00    +0.002 C 
ATOM      9  C   UNL     1      -2.180   3.288  -3.023  0.00  0.00    +0.022 C 
ENDBRANCH   3   4
BRANCH   3  10
ATOM     10  C   UNL     1      -4.451   0.816  -1.887  0.00  0.00    +0.076 C 
ATOM     11  C   UNL     1      -4.913   1.226  -0.487  0.00  0.00    +0.022 C 
ATOM     12  C   UNL     1      -6.374   0.816  -0.292  0.00  0.00    +0.002 C 
ATOM     13  C   UNL     1      -6.504  -0.701  -0.449  0.00  0.00    +0.000 C 
ATOM     14  C   UNL     1      -6.042  -1.110  -1.849  0.00  0.00    +0.002 C 
ATOM     15  C   UNL     1      -4.581  -0.700  -2.044  0.00  0.00    +0.022 C 
ENDBRANCH   3  10
BRANCH   1  16
ATOM     16  C   UNL     1      -2.536   0.149   0.100  0.00  0.00    +0.016 C 
BRANCH  16  17
ATOM     17  N   UNL     1      -1.317  -0.410   0.714  0.00  0.00    +0.389 N 
ATOM     18  H   UNL     1      -0.832  -1.000   0.027  0.00  0.00    -0.085 HD
ATOM     19  H   UNL     1      -0.700   0.358   1.002  0.00  0.00    -0.085 HD
BRANCH  17  20
ATOM     20  C   UNL     1      -1.665  -1.224   1.894  0.00  0.00    -0.006 C 
BRANCH  20  23
ATOM     21  C   UNL     1       1.427  -2.055   3.719  0.00  0.00    +0.041 A 
ATOM     22  C   UNL     1       0.343  -1.189   3.449  0.00  0.00    +0.042 A 
ATOM     23  C   UNL     1      -0.402  -1.781   2.499  0.00  0.00    +0.088 A 
ATOM     24  O   UNL     1       0.167  -2.957   2.185  0.00  0.00    -0.470 OA
ATOM     25  C   UNL     1       1.280  -3.125   2.918  0.00  0.00    +0.195 A 
ENDBRANCH  20  23
ENDBRANCH  17  20
ENDBRANCH  16  17
ENDBRANCH   1  16
TORSDOF 6
