REMARK  Name = ZINC64890797
REMARK  12 active torsions:
REMARK  status: ('A' for Active; 'I' for Inactive)
REMARK    1  A    between atoms: C_1  and  C_2
REMARK    2  A    between atoms: C_2  and  C_3
REMARK    3  A    between atoms: C_3  and  N_4
REMARK    4  A    between atoms: C_8  and  C_17
REMARK    5  A    between atoms: C_19  and  C_23
REMARK    6  A    between atoms: C_23  and  C_25
REMARK    7  A    between atoms: C_23  and  N_28
REMARK    8  A    between atoms: C_25  and  C_26
REMARK    9  A    between atoms: C_25  and  C_27
REMARK   10  A    between atoms: N_28  and  S_29
REMARK   11  A    between atoms: S_29  and  C_32
REMARK   12  A    between atoms: C_35  and  C_38
REMARK                            x       y       z     vdW  Elec       q    Type
REMARK                         _______ _______ _______ _____ _____    ______ ____
ROOT
ATOM      1  C   UNL     1      -3.248  -4.151  -4.560  0.00  0.00    +0.134 C 
ATOM      2  N   UNL     1      -3.426  -3.898  -5.820  0.00  0.00    -0.341 N 
ATOM      3  C   UNL     1      -2.813  -4.974  -6.608  0.00  0.00    +0.262 C 
ATOM      4  O   UNL     1      -2.257  -5.883  -5.645  0.00  0.00    -0.246 OA
ATOM      5  N   UNL     1      -2.550  -5.319  -4.377  0.00  0.00    -0.247 N 
ATOM      6  H   UNL     1      -2.302  -5.699  -3.520  0.00  0.00    +0.196 HD
ATOM      7  H   UNL     1      -3.889  -3.126  -6.182  0.00  0.00    +0.164 HD
ENDROOT
BRANCH   1  12
ATOM      8  N   UNL     1      -5.082  -0.827  -0.379  0.00  0.00    -0.302 N 
ATOM      9  C   UNL     1      -4.632  -1.655  -1.400  0.00  0.00    +0.068 A 
ATOM     10  C   UNL     1      -4.294  -1.101  -2.633  0.00  0.00    +0.028 A 
ATOM     11  C   UNL     1      -3.846  -1.907  -3.655  0.00  0.00    +0.013 A 
ATOM     12  C   UNL     1      -3.728  -3.286  -3.460  0.00  0.00    +0.019 A 
ATOM     13  C   UNL     1      -4.064  -3.846  -2.229  0.00  0.00    +0.039 A 
ATOM     14  C   UNL     1      -4.515  -3.033  -1.199  0.00  0.00    +0.067 A 
ATOM     15  N   UNL     1      -4.849  -3.600   0.029  0.00  0.00    -0.316 N 
ATOM     16  H   UNL     1      -4.764  -4.558   0.159  0.00  0.00    +0.169 HD
ATOM     17  C   UNL     1      -5.289  -2.820   1.036  0.00  0.00    +0.314 A 
ATOM     18  O   UNL     1      -5.581  -3.309   2.109  0.00  0.00    -0.262 OA
ATOM     19  C   UNL     1      -5.408  -1.349   0.822  0.00  0.00    +0.316 A 
ATOM     20  O   UNL     1      -5.797  -0.627   1.718  0.00  0.00    -0.262 OA
BRANCH   8  21
ATOM     21  C   UNL     1      -5.199   0.615  -0.604  0.00  0.00    +0.125 C 
BRANCH  21  23
ATOM     22  C   UNL     1      -4.001   2.804  -0.472  0.00  0.00    +0.005 C 
ATOM     23  C   UNL     1      -3.879   1.297  -0.236  0.00  0.00    +0.018 C 
ENDBRANCH  21  23
ENDBRANCH   8  21
ENDBRANCH   1  12
BRANCH   3  24
ATOM     24  C   UNL     1      -3.874  -5.681  -7.454  0.00  0.00    +0.131 C 
BRANCH  24  25
ATOM     25  C   UNL     1      -3.208  -6.763  -8.307  0.00  0.00    +0.006 C 
ATOM     26  C   UNL     1      -2.065  -6.144  -9.114  0.00  0.00    +0.009 C 
ATOM     27  C   UNL     1      -2.653  -7.861  -7.397  0.00  0.00    +0.009 C 
ENDBRANCH  24  25
BRANCH  24  28
ATOM     28  N   UNL     1      -4.531  -4.706  -8.328  0.00  0.00    -0.182 NA
ATOM     29  H   UNL     1      -4.016  -3.984  -8.722  0.00  0.00    +0.148 HD
BRANCH  28  30
ATOM     30  S   UNL     1      -6.151  -4.837  -8.644  0.00  0.00    +0.059 S 
ATOM     31  O   UNL     1      -6.504  -3.707  -9.431  0.00  0.00    -0.153 OA
ATOM     32  O   UNL     1      -6.373  -6.170  -9.084  0.00  0.00    -0.153 OA
BRANCH  30  33
ATOM     33  C   UNL     1      -6.997  -4.665  -7.108  0.00  0.00    +0.105 A 
ATOM     34  C   UNL     1      -7.261  -5.781  -6.336  0.00  0.00    +0.029 A 
ATOM     35  C   UNL     1      -7.925  -5.646  -5.131  0.00  0.00    +0.005 A 
ATOM     36  C   UNL     1      -8.324  -4.396  -4.698  0.00  0.00    -0.050 A 
ATOM     37  C   UNL     1      -8.059  -3.280  -5.470  0.00  0.00    +0.005 A 
ATOM     38  C   UNL     1      -7.392  -3.414  -6.673  0.00  0.00    +0.029 A 
ATOM     39  C   UNL     1      -9.049  -4.249  -3.385  0.00  0.00    +0.044 C 
ENDBRANCH  30  33
ENDBRANCH  28  30
ENDBRANCH  24  28
ENDBRANCH   3  24
TORSDOF 8
