REMARK  Name = ZINC54647847
REMARK  7 active torsions:
REMARK  status: ('A' for Active; 'I' for Inactive)
REMARK    1  A    between atoms: C_1  and  C_2
REMARK    2  A    between atoms: C_7  and  C_8
REMARK    3  A    between atoms: C_7  and  C_9
REMARK    4  A    between atoms: N_12  and  C_15
REMARK    5  A    between atoms: C_15  and  C_16
REMARK    6  A    between atoms: C_16  and  C_17
REMARK    7  A    between atoms: C_22  and  C_25
REMARK                            x       y       z     vdW  Elec       q    Type
REMARK                         _______ _______ _______ _____ _____    ______ ____
ROOT
ATOM      1  C   UNL     1      -4.874  -2.930   1.814  0.00  0.00    +0.220 C 
ATOM      2  O   UNL     1      -5.310  -3.494   0.833  0.00  0.00    -0.275 OA
ATOM      3  N   UNL     1      -5.620  -2.852   2.934  0.00  0.00    -0.265 N 
ATOM      4  C   UNL     1      -6.889  -3.416   2.964  0.00  0.00    +0.165 A 
ATOM      5  N   UNL     1      -7.768  -3.443   3.948  0.00  0.00    -0.225 NA
ATOM      6  C   UNL     1      -8.945  -4.032   3.803  0.00  0.00    +0.082 A 
ATOM      7  C   UNL     1      -9.256  -4.625   2.611  0.00  0.00    +0.077 A 
ATOM      8  S   UNL     1      -7.768  -4.293   1.678  0.00  0.00    -0.060 S 
ATOM      9  H   UNL     1      -5.271  -2.401   3.718  0.00  0.00    +0.157 HD
ENDROOT
BRANCH   6  10
ATOM     10  C   UNL     1      -9.917  -4.049   4.924  0.00  0.00    +0.019 A 
ATOM     11  C   UNL     1     -11.152  -4.676   4.769  0.00  0.00    +0.013 A 
ATOM     12  C   UNL     1     -12.052  -4.690   5.814  0.00  0.00    +0.021 A 
ATOM     13  C   UNL     1     -11.731  -4.082   7.017  0.00  0.00    +0.042 A 
ATOM     14  C   UNL     1     -10.506  -3.458   7.176  0.00  0.00    +0.040 A 
ATOM     15  C   UNL     1      -9.595  -3.443   6.138  0.00  0.00    +0.052 A 
ATOM     16 CL   UNL     1      -8.057  -2.666   6.342  0.00  0.00    -0.083 Cl
ATOM     17 CL   UNL     1     -12.869  -4.103   8.328  0.00  0.00    -0.083 Cl
ENDBRANCH   6  10
BRANCH   1  18
ATOM     18  C   UNL     1      -3.497  -2.317   1.781  0.00  0.00    +0.115 C 
BRANCH  18  19
ATOM     19  C   UNL     1      -2.870  -2.546   0.404  0.00  0.00    +0.125 C 
BRANCH  19  30
ATOM     20  C   UNL     1      -0.019   1.526   0.010  0.00  0.00    +0.021 C 
ATOM     21  C   UNL     1       0.002  -0.004   0.002  0.00  0.00    +0.051 C 
ATOM     22  C   UNL     1       0.777  -0.595  -1.201  0.00  0.00    +0.017 C 
ATOM     23  C   UNL     1       1.361  -1.934  -0.713  0.00  0.00    +0.014 C 
ATOM     24  C   UNL     1       0.910  -2.085   0.760  0.00  0.00    +0.082 C 
ATOM     25  C   UNL     1       0.737  -0.613   1.230  0.00  0.00    -0.010 C 
ATOM     26  C   UNL     1       2.093   0.060   1.451  0.00  0.00    +0.012 C 
ATOM     27  C   UNL     1      -0.130  -0.532   2.488  0.00  0.00    +0.012 C 
ATOM     28  C   UNL     1      -0.477  -2.702   0.736  0.00  0.00    +0.225 C 
ATOM     29  O   UNL     1      -0.633  -3.864   1.044  0.00  0.00    -0.275 OA
ATOM     30  N   UNL     1      -1.532  -1.950   0.372  0.00  0.00    -0.241 N 
ATOM     31  C   UNL     1      -1.387  -0.616   0.002  0.00  0.00    +0.228 C 
ATOM     32  O   UNL     1      -2.342   0.039  -0.355  0.00  0.00    -0.275 OA
ENDBRANCH  19  30
ENDBRANCH  18  19
ENDBRANCH   1  18
TORSDOF 4
