REMARK  Name = ZINC12281444
REMARK  10 active torsions:
REMARK  status: ('A' for Active; 'I' for Inactive)
REMARK    1  A    between atoms: C_1  and  C_2
REMARK    2  A    between atoms: C_2  and  N_61
REMARK    3  A    between atoms: C_3  and  C_4
REMARK    4  A    between atoms: C_3  and  N_61
REMARK    5  A    between atoms: C_4  and  C_6
REMARK    6  A    between atoms: C_7  and  N_61
REMARK    7  A    between atoms: N_18  and  C_21
REMARK    8  A    between atoms: C_21  and  C_22
REMARK    9  A    between atoms: C_22  and  C_23
REMARK   10  A    between atoms: C_23  and  C_24
REMARK                            x       y       z     vdW  Elec       q    Type
REMARK                         _______ _______ _______ _____ _____    ______ ____
ROOT
ATOM      1  C   UNL     1      -0.762  -3.006   1.145  0.00  0.00    -0.063 C 
ATOM      2  C   UNL     1      -2.091  -2.702   0.447  0.00  0.00    -0.010 C 
ATOM      3  C   UNL     1      -2.861  -1.643   1.236  0.00  0.00    +0.035 C 
ATOM      4  C   UNL     1      -1.950  -0.441   1.466  0.00  0.00    -0.023 A 
ATOM      5  C   UNL     1      -0.610  -0.558   1.344  0.00  0.00    -0.006 A 
ATOM      6  S   UNL     1       0.026   1.059   1.694  0.00  0.00    -0.073 S 
ATOM      7  C   UNL     1      -1.513   1.889   2.003  0.00  0.00    +0.116 A 
ATOM      8  C   UNL     1      -2.470   0.878   1.824  0.00  0.00    +0.076 A 
ATOM      9  C   UNL     1      -3.835   1.275   2.011  0.00  0.00    +0.262 A 
ATOM     10  O   UNL     1      -4.739   0.470   1.872  0.00  0.00    -0.267 OA
ATOM     11  N   UNL     1      -4.100   2.552   2.346  0.00  0.00    -0.299 N 
ATOM     12  C   UNL     1      -3.105   3.464   2.497  0.00  0.00    +0.203 A 
ATOM     13  N   UNL     1      -1.853   3.132   2.329  0.00  0.00    -0.230 NA
ATOM     14  C   UNL     1       0.164  -1.791   0.991  0.00  0.00    +0.027 C 
ENDROOT
BRANCH   1  15
ATOM     15  N   UNL     1      -0.157  -4.204   0.525  0.00  0.00    +0.384 N 
ATOM     16  H   UNL     1      -0.853  -4.959   0.509  0.00  0.00    -0.081 HD
BRANCH  15  18
ATOM     17  C   UNL     1       0.279  -5.207  -1.660  0.00  0.00    -0.017 C 
ATOM     18  C   UNL     1       0.254  -3.902  -0.862  0.00  0.00    -0.081 C 
ENDBRANCH  15  18
BRANCH  15  19
ATOM     19  C   UNL     1       1.013  -4.645   1.314  0.00  0.00    -0.048 C 
BRANCH  19  20
ATOM     20  C   UNL     1       1.342  -6.066   0.936  0.00  0.00    -0.096 C 
ATOM     21  C   UNL     1       2.442  -6.330   0.275  0.00  0.00    +0.005 C 
ATOM     22  C   UNL     1       0.406  -7.184   1.319  0.00  0.00    +0.036 C 
ENDBRANCH  19  20
ENDBRANCH  15  19
ENDBRANCH   1  15
BRANCH  11  23
ATOM     23  C   UNL     1      -5.490   2.967   2.545  0.00  0.00    +0.126 C 
BRANCH  23  24
ATOM     24  C   UNL     1      -6.073   3.452   1.215  0.00  0.00    +0.026 C 
BRANCH  24  25
ATOM     25  C   UNL     1      -7.525   3.886   1.423  0.00  0.00    +0.037 C 
BRANCH  25  26
ATOM     26  C   UNL     1      -8.099   4.364   0.114  0.00  0.00    -0.047 A 
ATOM     27  C   UNL     1      -8.000   5.696  -0.239  0.00  0.00    +0.003 A 
ATOM     28  C   UNL     1      -8.521   6.133  -1.442  0.00  0.00    +0.000 A 
ATOM     29  C   UNL     1      -9.152   5.239  -2.288  0.00  0.00    +0.000 A 
ATOM     30  C   UNL     1      -9.257   3.908  -1.932  0.00  0.00    +0.000 A 
ATOM     31  C   UNL     1      -8.730   3.470  -0.731  0.00  0.00    +0.003 A 
ENDBRANCH  25  26
ENDBRANCH  24  25
ENDBRANCH  23  24
ENDBRANCH  11  23
TORSDOF 8
