REMARK  Name = ZINC13065128
REMARK  11 active torsions:
REMARK  status: ('A' for Active; 'I' for Inactive)
REMARK    1  A    between atoms: C_1  and  C_2
REMARK    2  A    between atoms: C_2  and  C_3
REMARK    3  A    between atoms: C_3  and  C_5
REMARK    4  A    between atoms: C_3  and  N_66
REMARK    5  A    between atoms: N_9  and  C_10
REMARK    6  A    between atoms: C_10  and  C_11
REMARK    7  A    between atoms: C_16  and  C_17
REMARK    8  A    between atoms: C_16  and  N_66
REMARK    9  A    between atoms: C_22  and  C_30
REMARK   10  A    between atoms: C_23  and  C_29
REMARK   11  A    between atoms: C_31  and  N_66
REMARK                            x       y       z     vdW  Elec       q    Type
REMARK                         _______ _______ _______ _____ _____    ______ ____
ROOT
ATOM      1  N   UNL     1      -0.393   2.758  -0.705  0.00  0.00    +0.391 N 
ATOM      2  H   UNL     1       0.531   3.082  -0.396  0.00  0.00    -0.080 HD
ENDROOT
BRANCH   1   3
ATOM      3  C   UNL     1      -0.216   1.716  -1.738  0.00  0.00    -0.067 C 
ATOM      4  C   UNL     1       0.286   0.413  -1.083  0.00  0.00    -0.015 C 
ATOM      5  C   UNL     1       1.301  -0.159  -2.104  0.00  0.00    -0.002 C 
ATOM      6  C   UNL     1       2.005   1.114  -2.637  0.00  0.00    -0.002 C 
ATOM      7  C   UNL     1       0.876   2.162  -2.726  0.00  0.00    -0.015 C 
ENDBRANCH   1   3
BRANCH   1   8
ATOM      8  C   UNL     1      -1.120   2.201   0.455  0.00  0.00    +0.003 C 
BRANCH   8   9
ATOM      9  C   UNL     1      -0.800   3.034   1.669  0.00  0.00    +0.139 A 
ATOM     10  N   UNL     1      -0.688   4.339   1.715  0.00  0.00    -0.115 NA
ATOM     11  N   UNL     1      -0.402   4.671   2.927  0.00  0.00    -0.023 NA
ATOM     12  N   UNL     1      -0.329   3.612   3.655  0.00  0.00    -0.044 NA
ATOM     13  N   UNL     1      -0.569   2.582   2.916  0.00  0.00    -0.223 N 
BRANCH  13  14
ATOM     14  C   UNL     1      -0.585   1.183   3.351  0.00  0.00    +0.221 C 
BRANCH  14  15
ATOM     15  C   UNL     1       0.795   0.596   3.204  0.00  0.00    +0.126 A 
ATOM     16  C   UNL     1       1.759   0.607   4.142  0.00  0.00    +0.046 A 
ATOM     17  C   UNL     1       2.880  -0.051   3.585  0.00  0.00    +0.041 A 
ATOM     18  C   UNL     1       2.536  -0.418   2.337  0.00  0.00    +0.195 A 
ATOM     19  O   UNL     1       1.272  -0.024   2.112  0.00  0.00    -0.466 OA
ENDBRANCH  14  15
ENDBRANCH  13  14
ENDBRANCH   8   9
BRANCH   8  21
ATOM     20  C   UNL     1      -2.955   1.369  -1.023  0.00  0.00    +0.002 C 
ATOM     21  C   UNL     1      -2.629   2.226   0.203  0.00  0.00    -0.011 C 
ENDBRANCH   8  21
ENDBRANCH   1   8
BRANCH   1  22
ATOM     22  C   UNL     1      -1.140   3.904  -1.266  0.00  0.00    -0.036 C 
BRANCH  22  23
ATOM     23  C   UNL     1      -0.220   4.686  -2.168  0.00  0.00    +0.001 A 
ATOM     24  C   UNL     1      -0.256   4.485  -3.508  0.00  0.00    +0.017 A 
ATOM     25  C   UNL     1       0.651   5.260  -4.356  0.00  0.00    -0.001 A 
ATOM     26  C   UNL     1       0.659   5.097  -5.746  0.00  0.00    +0.010 A 
ATOM     27  C   UNL     1       1.517   5.836  -6.510  0.00  0.00    +0.004 A 
ATOM     28  C   UNL     1       2.381   6.749  -5.919  0.00  0.00    -0.046 A 
ATOM     29  C   UNL     1       2.390   6.926  -4.553  0.00  0.00    -0.024 A 
ATOM     30  C   UNL     1       1.525   6.184  -3.754  0.00  0.00    +0.052 A 
ATOM     31  N   UNL     1       1.512   6.343  -2.385  0.00  0.00    -0.322 N 
ATOM     32  H   UNL     1       2.115   6.980  -1.972  0.00  0.00    +0.169 HD
ATOM     33  C   UNL     1       0.672   5.630  -1.614  0.00  0.00    +0.251 A 
ATOM     34  O   UNL     1       0.685   5.798  -0.407  0.00  0.00    -0.268 OA
ATOM     35  C   UNL     1       3.334   7.919  -3.925  0.00  0.00    +0.046 C 
ATOM     36  C   UNL     1       3.318   7.553  -6.782  0.00  0.00    +0.044 C 
ENDBRANCH  22  23
ENDBRANCH   1  22
TORSDOF 8
