REMARK  Name = ZINC11788822
REMARK  8 active torsions:
REMARK  status: ('A' for Active; 'I' for Inactive)
REMARK    1  A    between atoms: C_1  and  C_2
REMARK    2  A    between atoms: C_2  and  C_3
REMARK    3  A    between atoms: C_2  and  C_4
REMARK    4  A    between atoms: C_4  and  N_5
REMARK    5  A    between atoms: C_16  and  N_53
REMARK    6  A    between atoms: C_20  and  C_21
REMARK    7  A    between atoms: C_20  and  N_53
REMARK    8  A    between atoms: C_21  and  C_22
REMARK                            x       y       z     vdW  Elec       q    Type
REMARK                         _______ _______ _______ _____ _____    ______ ____
ROOT
ATOM      1  N   UNL     1      -0.092   0.997   2.451  0.00  0.00    -0.298 N 
ATOM      2  C   UNL     1       0.935   1.657   3.046  0.00  0.00    +0.203 A 
ATOM      3  N   UNL     1       1.529   1.171   4.103  0.00  0.00    -0.230 NA
ATOM      4  C   UNL     1       1.144   0.012   4.631  0.00  0.00    +0.116 A 
ATOM      5  C   UNL     1       0.093  -0.742   4.086  0.00  0.00    +0.076 A 
ATOM      6  C   UNL     1      -0.540  -0.178   2.930  0.00  0.00    +0.262 A 
ATOM      7  O   UNL     1      -1.466  -0.756   2.387  0.00  0.00    -0.267 OA
ATOM      8  C   UNL     1      -0.220  -1.994   4.773  0.00  0.00    -0.023 A 
ATOM      9  C   UNL     1       0.527  -2.302   5.854  0.00  0.00    -0.006 A 
ATOM     10  S   UNL     1       1.673  -0.960   6.018  0.00  0.00    -0.073 S 
ATOM     11  C   UNL     1       0.407  -3.516   6.724  0.00  0.00    +0.027 C 
ATOM     12  C   UNL     1      -0.940  -4.191   6.430  0.00  0.00    -0.067 C 
ATOM     13  C   UNL     1      -1.109  -4.310   4.913  0.00  0.00    -0.011 C 
ATOM     14  C   UNL     1      -1.334  -2.926   4.304  0.00  0.00    +0.035 C 
ENDROOT
BRANCH  12  15
ATOM     15  N   UNL     1      -0.960  -5.539   7.030  0.00  0.00    +0.381 N 
ATOM     16  H   UNL     1      -0.020  -5.948   6.975  0.00  0.00    -0.086 HD
ATOM     17  H   UNL     1      -1.622  -6.130   6.513  0.00  0.00    -0.086 HD
BRANCH  15  18
ATOM     18  C   UNL     1      -1.376  -5.464   8.444  0.00  0.00    -0.078 C 
BRANCH  18  19
ATOM     19  C   UNL     1      -1.387  -6.874   9.038  0.00  0.00    +0.016 C 
BRANCH  19  20
ATOM     20  C   UNL     1      -1.811  -6.807  10.482  0.00  0.00    -0.048 A 
ATOM     21  C   UNL     1      -3.150  -6.905  10.815  0.00  0.00    +0.003 A 
ATOM     22  C   UNL     1      -3.539  -6.844  12.140  0.00  0.00    +0.002 A 
ATOM     23  C   UNL     1      -2.591  -6.683  13.133  0.00  0.00    +0.020 A 
ATOM     24  C   UNL     1      -1.252  -6.584  12.800  0.00  0.00    +0.041 A 
ATOM     25  C   UNL     1      -0.862  -6.652  11.475  0.00  0.00    +0.023 A 
ATOM     26 CL   UNL     1      -0.060  -6.382  14.047  0.00  0.00    -0.084 Cl
ENDBRANCH  19  20
ENDBRANCH  18  19
ENDBRANCH  15  18
ENDBRANCH  12  15
BRANCH   1  27
ATOM     27  C   UNL     1      -0.729   1.579   1.267  0.00  0.00    +0.129 C 
BRANCH  27  29
ATOM     28  C   UNL     1       1.423   1.615  -0.003  0.00  0.00    +0.009 C 
ATOM     29  C   UNL     1      -0.013   1.086   0.008  0.00  0.00    +0.003 C 
ATOM     30  C   UNL     1      -0.753   1.593  -1.232  0.00  0.00    +0.009 C 
ENDBRANCH  27  29
ENDBRANCH   1  27
TORSDOF 6
