REMARK  Name = ZINC12902440
REMARK  13 active torsions:
REMARK  status: ('A' for Active; 'I' for Inactive)
REMARK    1  A    between atoms: C_1  and  N_58
REMARK    2  A    between atoms: C_2  and  N_58
REMARK    3  A    between atoms: C_3  and  C_5
REMARK    4  A    between atoms: C_3  and  C_24
REMARK    5  A    between atoms: C_3  and  N_58
REMARK    6  A    between atoms: C_5  and  N_6
REMARK    7  A    between atoms: C_7  and  C_9
REMARK    8  A    between atoms: C_10  and  C_11
REMARK    9  A    between atoms: C_14  and  C_16
REMARK   10  A    between atoms: C_19  and  O_22
REMARK   11  A    between atoms: O_22  and  C_23
REMARK   12  A    between atoms: C_27  and  O_30
REMARK   13  A    between atoms: O_30  and  C_31
REMARK                            x       y       z     vdW  Elec       q    Type
REMARK                         _______ _______ _______ _____ _____    ______ ____
ROOT
ATOM      1  N   UNL     1      -8.442   3.910   0.025  0.00  0.00    -0.313 N 
ATOM      2  C   UNL     1      -8.508   2.566   0.096  0.00  0.00    +0.237 C 
ATOM      3  O   UNL     1      -9.565   2.022   0.361  0.00  0.00    -0.271 OA
ATOM      4  H   UNL     1      -7.600   4.344  -0.186  0.00  0.00    +0.149 HD
ENDROOT
BRANCH   2   5
ATOM      5  C   UNL     1      -7.348   1.786  -0.138  0.00  0.00    +0.069 C 
ATOM      6  C   UNL     1      -7.415   0.437  -0.067  0.00  0.00    +0.033 C 
BRANCH   6   7
ATOM      7  C   UNL     1      -6.214  -0.370  -0.310  0.00  0.00    +0.072 A 
ATOM      8  C   UNL     1      -6.268  -1.753  -0.240  0.00  0.00    +0.075 A 
ATOM      9  S   UNL     1      -4.624  -2.182  -0.599  0.00  0.00    -0.075 S 
ATOM     10  C   UNL     1      -3.984  -0.529  -0.814  0.00  0.00    +0.109 A 
ATOM     11  N   UNL     1      -5.056   0.209  -0.593  0.00  0.00    -0.240 NA
BRANCH  10  12
ATOM     12  C   UNL     1      -2.610  -0.099  -1.147  0.00  0.00    +0.007 A 
ATOM     13  C   UNL     1      -1.606  -1.049  -1.339  0.00  0.00    +0.014 A 
ATOM     14  C   UNL     1      -0.327  -0.644  -1.654  0.00  0.00    +0.046 A 
ATOM     15  C   UNL     1      -0.035   0.708  -1.777  0.00  0.00    +0.120 A 
ATOM     16  C   UNL     1      -1.030   1.657  -1.582  0.00  0.00    +0.046 A 
ATOM     17  C   UNL     1      -2.312   1.260  -1.266  0.00  0.00    +0.014 A 
BRANCH  15  18
ATOM     18  O   UNL     1       1.227   1.103  -2.089  0.00  0.00    -0.495 OA
ATOM     19  C   UNL     1       1.457   2.509  -2.199  0.00  0.00    +0.277 C 
ENDBRANCH  15  18
ENDBRANCH  10  12
ENDBRANCH   6   7
ENDBRANCH   2   5
BRANCH   1  20
ATOM     20  C   UNL     1      -9.641   4.717   0.267  0.00  0.00    +0.094 C 
BRANCH  20  21
ATOM     21  C   UNL     1      -9.294   6.200   0.126  0.00  0.00    -0.021 C 
BRANCH  21  22
ATOM     22  C   UNL     1     -10.550   7.024   0.253  0.00  0.00    -0.059 A 
ATOM     23  C   UNL     1     -11.660   6.713  -0.511  0.00  0.00    +0.005 A 
ATOM     24  C   UNL     1     -12.814   7.462  -0.392  0.00  0.00    +0.046 A 
ATOM     25  C   UNL     1     -12.856   8.535   0.487  0.00  0.00    +0.120 A 
ATOM     26  C   UNL     1     -11.739   8.848   1.248  0.00  0.00    +0.046 A 
ATOM     27  C   UNL     1     -10.589   8.092   1.130  0.00  0.00    +0.005 A 
BRANCH  25  28
ATOM     28  O   UNL     1     -13.988   9.278   0.601  0.00  0.00    -0.495 OA
ATOM     29  C   UNL     1     -15.098   8.897  -0.214  0.00  0.00    +0.277 C 
ENDBRANCH  25  28
ENDBRANCH  21  22
BRANCH  21  32
ATOM     30  C   UNL     1      -9.599   6.053  -2.271  0.00  0.00    -0.096 C 
ATOM     31  C   UNL     1      -8.264   7.839  -1.329  0.00  0.00    -0.096 C 
ATOM     32  N   UNL     1      -8.661   6.422  -1.191  0.00  0.00    +0.382 N 
ATOM     33  H   UNL     1      -7.823   5.832  -1.261  0.00  0.00    -0.082 HD
ENDBRANCH  21  32
ENDBRANCH  20  21
ENDBRANCH   1  20
TORSDOF 9
