REMARK  Name = ZINC09499311
REMARK  6 active torsions:
REMARK  status: ('A' for Active; 'I' for Inactive)
REMARK    1  A    between atoms: C_1  and  C_2
REMARK    2  A    between atoms: C_5  and  N_8
REMARK    3  A    between atoms: C_21  and  S_22
REMARK    4  A    between atoms: S_22  and  C_23
REMARK    5  A    between atoms: C_23  and  C_25
REMARK    6  A    between atoms: C_23  and  C_26
REMARK                            x       y       z     vdW  Elec       q    Type
REMARK                         _______ _______ _______ _____ _____    ______ ____
ROOT
ATOM      1  N   UNL     1       3.593   3.505  -0.014  0.00  0.00    -0.245 N 
ATOM      2  C   UNL     1       3.590   2.252  -0.514  0.00  0.00    +0.268 A 
ATOM      3  O   UNL     1       4.607   1.766  -0.970  0.00  0.00    -0.267 OA
ATOM      4  C   UNL     1       2.333   1.481  -0.500  0.00  0.00    +0.064 A 
ATOM      5  C   UNL     1       2.275   0.183  -1.005  0.00  0.00    +0.015 A 
ATOM      6  C   UNL     1       1.082  -0.507  -0.975  0.00  0.00    +0.001 A 
ATOM      7  C   UNL     1      -0.055   0.083  -0.446  0.00  0.00    +0.002 A 
ATOM      8  C   UNL     1      -0.011   1.368   0.057  0.00  0.00    +0.027 A 
ATOM      9  C   UNL     1       1.180   2.078   0.035  0.00  0.00    +0.064 A 
ATOM     10  N   UNL     1       1.257   3.372   0.533  0.00  0.00    -0.255 N 
ATOM     11  C   UNL     1       2.438   4.067   0.508  0.00  0.00    +0.245 A 
ATOM     12  N   UNL     1       2.200   5.242   1.039  0.00  0.00    -0.109 NA
ATOM     13  N   UNL     1       0.967   5.327   1.390  0.00  0.00    -0.120 NA
ATOM     14  C   UNL     1       0.339   4.211   1.105  0.00  0.00    +0.198 A 
ENDROOT
BRANCH   1  19
ATOM     15  C   UNL     1       8.402   6.516  -0.046  0.00  0.00    +0.044 C 
ATOM     16  C   UNL     1       7.125   5.716  -0.038  0.00  0.00    -0.050 A 
ATOM     17  C   UNL     1       6.260   5.785  -1.115  0.00  0.00    +0.005 A 
ATOM     18  C   UNL     1       5.089   5.053  -1.110  0.00  0.00    +0.026 A 
ATOM     19  C   UNL     1       4.780   4.247  -0.022  0.00  0.00    +0.053 A 
ATOM     20  C   UNL     1       5.647   4.185   1.061  0.00  0.00    +0.026 A 
ATOM     21  C   UNL     1       6.820   4.914   1.047  0.00  0.00    +0.005 A 
ENDBRANCH   1  19
BRANCH  14  22
ATOM     22  S   UNL     1      -1.362   3.859   1.401  0.00  0.00    -0.073 S 
BRANCH  22  23
ATOM     23  C   UNL     1      -1.996   5.375   2.170  0.00  0.00    +0.137 C 
ATOM     24  C   UNL     1      -1.925   6.525   1.164  0.00  0.00    +0.029 C 
BRANCH  23  25
ATOM     25  C   UNL     1      -3.428   5.163   2.591  0.00  0.00    +0.224 C 
ATOM     26  O   UNL     1      -4.080   4.271   2.093  0.00  0.00    -0.275 OA
ATOM     27  N   UNL     1      -3.982   5.966   3.521  0.00  0.00    -0.328 N 
ATOM     28  H   UNL     1      -3.460   6.680   3.919  0.00  0.00    +0.145 HD
ATOM     29  H   UNL     1      -4.904   5.830   3.792  0.00  0.00    +0.145 HD
ENDBRANCH  23  25
ENDBRANCH  22  23
ENDBRANCH  14  22
TORSDOF 4
