REMARK  Name = ZINC09292262
REMARK  6 active torsions:
REMARK  status: ('A' for Active; 'I' for Inactive)
REMARK    1  A    between atoms: C_1  and  C_2
REMARK    2  A    between atoms: C_7  and  C_8
REMARK    3  A    between atoms: C_14  and  C_15
REMARK    4  A    between atoms: C_17  and  C_31
REMARK    5  A    between atoms: N_18  and  C_21
REMARK    6  A    between atoms: C_19  and  C_20
REMARK                            x       y       z     vdW  Elec       q    Type
REMARK                         _______ _______ _______ _____ _____    ______ ____
ROOT
ATOM      1  C   UNL     1      -3.385   1.805   3.398  0.00  0.00    +0.130 C 
ATOM      2  N   UNL     1      -2.752   2.919   3.679  0.00  0.00    -0.164 NA
ATOM      3  N   UNL     1      -1.926   3.008   4.779  0.00  0.00    -0.152 N 
ATOM      4  C   UNL     1      -1.274   4.177   5.227  0.00  0.00    +0.153 C 
ATOM      5  N   UNL     1      -1.679   5.384   4.931  0.00  0.00    -0.283 NA
ATOM      6  C   UNL     1      -0.078   3.899   6.071  0.00  0.00    +0.081 C 
ATOM      7  C   UNL     1       1.028   4.725   6.058  0.00  0.00    +0.026 C 
ATOM      8  C   UNL     1      -0.139   2.689   6.924  0.00  0.00    +0.273 C 
ATOM      9  O   UNL     1       0.528   2.605   7.943  0.00  0.00    -0.268 OA
ATOM     10  N   UNL     1      -0.953   1.684   6.544  0.00  0.00    -0.152 NA
ATOM     11  C   UNL     1      -1.749   1.857   5.519  0.00  0.00    +0.181 C 
ATOM     12  S   UNL     1      -2.848   0.722   4.714  0.00  0.00    -0.033 S 
ATOM     13  H   UNL     1      -2.438   5.509   4.340  0.00  0.00    +0.188 HD
ENDROOT
BRANCH   1  20
ATOM     14  C   UNL     1      -3.982   3.878   1.470  0.00  0.00    +0.044 C 
ATOM     15  C   UNL     1      -4.607   2.512   1.345  0.00  0.00    -0.041 A 
ATOM     16  C   UNL     1      -5.468   2.238   0.302  0.00  0.00    +0.004 A 
ATOM     17  C   UNL     1      -6.041   0.985   0.185  0.00  0.00    +0.000 A 
ATOM     18  C   UNL     1      -5.756  -0.002   1.113  0.00  0.00    +0.001 A 
ATOM     19  C   UNL     1      -4.898   0.260   2.160  0.00  0.00    +0.011 A 
ATOM     20  C   UNL     1      -4.311   1.520   2.280  0.00  0.00    +0.012 A 
ENDBRANCH   1  20
BRANCH   7  21
ATOM     21  C   UNL     1       1.115   5.779   5.114  0.00  0.00    -0.003 A 
ATOM     22  C   UNL     1       0.528   5.812   3.766  0.00  0.00    +0.031 A 
ATOM     23  C   UNL     1       0.863   6.999   3.235  0.00  0.00    +0.022 A 
ATOM     24  N   UNL     1       1.608   7.704   4.140  0.00  0.00    -0.317 N 
ATOM     25  C   UNL     1       1.764   6.992   5.274  0.00  0.00    +0.028 A 
ATOM     26  C   UNL     1       2.518   7.437   6.502  0.00  0.00    +0.064 C 
ATOM     27  C   UNL     1       0.480   7.478   1.858  0.00  0.00    +0.064 C 
BRANCH  24  28
ATOM     28  C   UNL     1       2.128   8.983   3.922  0.00  0.00    +0.054 A 
ATOM     29  C   UNL     1       1.395  10.099   4.264  0.00  0.00    +0.027 A 
ATOM     30  C   UNL     1       1.903  11.377   4.051  0.00  0.00    +0.003 A 
ATOM     31  C   UNL     1       3.136  11.561   3.502  0.00  0.00    +0.008 A 
ATOM     32  C   UNL     1       3.916  10.449   3.141  0.00  0.00    -0.016 A 
ATOM     33  C   UNL     1       3.410   9.143   3.357  0.00  0.00    +0.006 A 
ATOM     34  C   UNL     1       4.192   8.034   2.999  0.00  0.00    +0.010 A 
ATOM     35  C   UNL     1       5.426   8.226   2.455  0.00  0.00    +0.001 A 
ATOM     36  C   UNL     1       5.926   9.509   2.248  0.00  0.00    +0.001 A 
ATOM     37  C   UNL     1       5.191  10.608   2.572  0.00  0.00    +0.008 A 
ENDBRANCH  24  28
ENDBRANCH   7  21
TORSDOF 3
