REMARK  Name = ZINC01452258
REMARK  9 active torsions:
REMARK  status: ('A' for Active; 'I' for Inactive)
REMARK    1  A    between atoms: C_1  and  O_2
REMARK    2  A    between atoms: O_2  and  C_3
REMARK    3  A    between atoms: C_5  and  C_10
REMARK    4  A    between atoms: C_8  and  O_9
REMARK    5  A    between atoms: N_14  and  N_18
REMARK    6  A    between atoms: C_19  and  C_21
REMARK    7  A    between atoms: C_24  and  O_27
REMARK    8  A    between atoms: O_27  and  C_28
REMARK    9  A    between atoms: C_28  and  C_29
REMARK                            x       y       z     vdW  Elec       q    Type
REMARK                         _______ _______ _______ _____ _____    ______ ____
ROOT
ATOM      1  C   UNL     1      -0.013   1.076   0.008  0.00  0.00    +0.028 C 
ATOM      2  C   UNL     1      -1.122   1.742  -0.403  0.00  0.00    +0.079 C 
ATOM      3  C   UNL     1      -2.528   1.294  -0.442  0.00  0.00    +0.275 C 
ATOM      4  O   UNL     1      -2.855   0.181  -0.074  0.00  0.00    -0.267 OA
ATOM      5  N   UNL     1      -3.415   2.166  -0.892  0.00  0.00    -0.169 N 
ATOM      6  C   UNL     1      -3.048   3.396  -1.304  0.00  0.00    +0.138 C 
ATOM      7  S   UNL     1      -4.037   4.651  -1.919  0.00  0.00    -0.026 S 
ATOM      8  S   UNL     1      -1.280   3.400  -1.052  0.00  0.00    -0.059 S 
ENDROOT
BRANCH   1  11
ATOM      9  C   UNL     1       3.672   1.719   0.281  0.00  0.00    +0.162 A 
ATOM     10  C   UNL     1       2.423   1.169   0.495  0.00  0.00    +0.057 A 
ATOM     11  C   UNL     1       1.317   1.659  -0.210  0.00  0.00    -0.020 A 
ATOM     12  C   UNL     1       1.482   2.711  -1.119  0.00  0.00    +0.012 A 
ATOM     13  C   UNL     1       2.731   3.256  -1.322  0.00  0.00    +0.050 A 
ATOM     14  C   UNL     1       3.828   2.766  -0.626  0.00  0.00    +0.158 A 
BRANCH   9  16
ATOM     15  C   UNL     1       4.517   0.169   1.875  0.00  0.00    +0.277 C 
ATOM     16  O   UNL     1       4.750   1.242   0.961  0.00  0.00    -0.491 OA
ENDBRANCH   9  16
BRANCH  14  17
ATOM     17  O   UNL     1       5.057   3.308  -0.830  0.00  0.00    -0.503 OA
ATOM     18  H   UNL     1       5.263   4.048  -0.243  0.00  0.00    +0.292 HD
ENDBRANCH  14  17
ENDBRANCH   1  11
BRANCH   5  19
ATOM     19  N   UNL     1      -4.767   1.800  -0.948  0.00  0.00    -0.222 N 
ATOM     20  C   UNL     1      -5.335   1.501  -2.133  0.00  0.00    +0.261 C 
ATOM     21  O   UNL     1      -4.676   1.549  -3.153  0.00  0.00    -0.269 OA
ATOM     22  H   UNL     1      -5.293   1.762  -0.134  0.00  0.00    +0.174 HD
BRANCH  20  23
ATOM     23  C   UNL     1      -6.759   1.116  -2.192  0.00  0.00    +0.038 A 
ATOM     24  C   UNL     1      -7.517   1.055  -1.020  0.00  0.00    +0.016 A 
ATOM     25  C   UNL     1      -8.847   0.701  -1.080  0.00  0.00    +0.046 A 
ATOM     26  C   UNL     1      -9.431   0.393  -2.303  0.00  0.00    +0.121 A 
ATOM     27  C   UNL     1      -8.679   0.447  -3.470  0.00  0.00    +0.046 A 
ATOM     28  C   UNL     1      -7.350   0.806  -3.419  0.00  0.00    +0.016 A 
BRANCH  26  29
ATOM     29  O   UNL     1     -10.740   0.039  -2.357  0.00  0.00    -0.487 OA
BRANCH  29  30
ATOM     30  C   UNL     1     -11.455   0.004  -1.120  0.00  0.00    +0.264 C 
BRANCH  30  31
ATOM     31  C   UNL     1     -12.882  -0.406  -1.376  0.00  0.00    -0.010 A 
ATOM     32  C   UNL     1     -13.842   0.555  -1.631  0.00  0.00    +0.007 A 
ATOM     33  C   UNL     1     -15.151   0.178  -1.871  0.00  0.00    +0.000 A 
ATOM     34  C   UNL     1     -15.501  -1.159  -1.844  0.00  0.00    +0.000 A 
ATOM     35  C   UNL     1     -14.541  -2.120  -1.583  0.00  0.00    +0.000 A 
ATOM     36  C   UNL     1     -13.232  -1.743  -1.349  0.00  0.00    +0.007 A 
ENDBRANCH  30  31
ENDBRANCH  29  30
ENDBRANCH  26  29
ENDBRANCH  20  23
ENDBRANCH   5  19
TORSDOF 8
