REMARK  Name = ZINC02220907
REMARK  5 active torsions:
REMARK  status: ('A' for Active; 'I' for Inactive)
REMARK    1  A    between atoms: C_5  and  C_7
REMARK    2  A    between atoms: C_15  and  C_16
REMARK    3  A    between atoms: C_19  and  O_22
REMARK    4  A    between atoms: O_22  and  C_23
REMARK    5  A    between atoms: C_23  and  C_24
REMARK                            x       y       z     vdW  Elec       q    Type
REMARK                         _______ _______ _______ _____ _____    ______ ____
ROOT
ATOM      1  C   UNL     1       5.784   7.138   0.457  0.00  0.00    +0.184 A 
ATOM      2  N   UNL     1       5.992   5.817   0.355  0.00  0.00    -0.200 NA
ATOM      3  C   UNL     1       4.844   5.207   0.267  0.00  0.00    +0.200 A 
ATOM      4  N   UNL     1       3.831   6.122   0.309  0.00  0.00    -0.169 N 
ATOM      5  N   UNL     1       4.495   7.373   0.433  0.00  0.00    -0.141 NA
ATOM      6  C   UNL     1       2.565   5.691   0.231  0.00  0.00    +0.288 A 
ATOM      7  O   UNL     1       1.631   6.471   0.264  0.00  0.00    -0.265 OA
ATOM      8  C   UNL     1       2.342   4.244   0.105  0.00  0.00    +0.082 A 
ATOM      9  C   UNL     1       1.175   3.554   0.010  0.00  0.00    +0.028 C 
ATOM     10  S   UNL     1       4.023   3.637   0.119  0.00  0.00    -0.044 S 
ENDROOT
BRANCH   1  15
ATOM     11  C   UNL     1       9.168   8.758   0.699  0.00  0.00    +0.001 A 
ATOM     12  C   UNL     1       8.823  10.094   0.796  0.00  0.00    +0.001 A 
ATOM     13  C   UNL     1       7.493  10.473   0.782  0.00  0.00    +0.016 A 
ATOM     14  C   UNL     1       6.502   9.518   0.668  0.00  0.00    +0.029 A 
ATOM     15  C   UNL     1       6.844   8.169   0.575  0.00  0.00    +0.035 A 
ATOM     16  C   UNL     1       8.186   7.795   0.589  0.00  0.00    +0.013 A 
ATOM     17 BR   UNL     1       4.684  10.038   0.643  0.00  0.00    -0.050 Br
ENDBRANCH   1  15
BRANCH   9  18
ATOM     18  C   UNL     1       1.183   2.087   0.059  0.00  0.00    -0.024 A 
ATOM     19  C   UNL     1       2.305   1.406   0.549  0.00  0.00    +0.011 A 
ATOM     20  C   UNL     1       2.308   0.031   0.592  0.00  0.00    +0.046 A 
ATOM     21  C   UNL     1       1.200  -0.683   0.150  0.00  0.00    +0.121 A 
ATOM     22  C   UNL     1       0.083  -0.013  -0.336  0.00  0.00    +0.046 A 
ATOM     23  C   UNL     1       0.069   1.363  -0.384  0.00  0.00    +0.011 A 
BRANCH  21  24
ATOM     24  O   UNL     1       1.208  -2.040   0.195  0.00  0.00    -0.483 OA
BRANCH  24  25
ATOM     25  C   UNL     1       0.036  -2.712  -0.274  0.00  0.00    +0.324 C 
BRANCH  25  26
ATOM     26  C   UNL     1       0.227  -4.201  -0.148  0.00  0.00    +0.248 C 
ATOM     27  O   UNL     1       1.264  -4.644   0.299  0.00  0.00    -0.272 OA
ATOM     28  N   UNL     1      -0.754  -5.041  -0.533  0.00  0.00    -0.327 N 
ATOM     29  H   UNL     1      -1.583  -4.687  -0.890  0.00  0.00    +0.145 HD
ATOM     30  H   UNL     1      -0.631  -6.000  -0.452  0.00  0.00    +0.145 HD
ENDBRANCH  25  26
ENDBRANCH  24  25
ENDBRANCH  21  24
ENDBRANCH   9  18
TORSDOF 5
