REMARK  Name = ZINC63138046
REMARK  9 active torsions:
REMARK  status: ('A' for Active; 'I' for Inactive)
REMARK    1  A    between atoms: C_1  and  O_2
REMARK    2  A    between atoms: O_2  and  C_3
REMARK    3  A    between atoms: C_7  and  C_9
REMARK    4  A    between atoms: C_9  and  N_10
REMARK    5  A    between atoms: C_30  and  C_32
REMARK    6  A    between atoms: C_36  and  O_40
REMARK    7  A    between atoms: C_37  and  O_38
REMARK    8  A    between atoms: O_38  and  C_39
REMARK    9  A    between atoms: O_40  and  C_41
REMARK                            x       y       z     vdW  Elec       q    Type
REMARK                         _______ _______ _______ _____ _____    ______ ____
ROOT
ATOM      1  N   UNL     1       2.402  -4.423  -1.234  0.00  0.00    -0.287 N 
ATOM      2  C   UNL     1       3.507  -4.591  -2.163  0.00  0.00    +0.204 C 
ATOM      3  C   UNL     1       4.719  -5.160  -1.502  0.00  0.00    +0.234 C 
ATOM      4  O   UNL     1       5.701  -5.343  -2.188  0.00  0.00    -0.274 OA
ATOM      5  N   UNL     1       4.798  -5.481  -0.205  0.00  0.00    -0.279 N 
ATOM      6  C   UNL     1       3.689  -5.289   0.724  0.00  0.00    +0.167 C 
ATOM      7  C   UNL     1       2.475  -4.726   0.061  0.00  0.00    +0.237 C 
ATOM      8  O   UNL     1       1.491  -4.537   0.744  0.00  0.00    -0.274 OA
ATOM      9  C   UNL     1       4.122  -4.362   1.874  0.00  0.00    +0.065 C 
ATOM     10  C   UNL     1       5.471  -4.853   2.337  0.00  0.00    -0.034 C 
ATOM     11  C   UNL     1       5.930  -5.160   3.544  0.00  0.00    -0.001 A 
ATOM     12  C   UNL     1       5.331  -5.030   4.882  0.00  0.00    +0.010 A 
ATOM     13  C   UNL     1       6.086  -5.473   5.922  0.00  0.00    +0.001 A 
ATOM     14  C   UNL     1       7.362  -6.024   5.767  0.00  0.00    +0.002 A 
ATOM     15  C   UNL     1       7.993  -6.173   4.575  0.00  0.00    +0.026 A 
ATOM     16  C   UNL     1       7.302  -5.737   3.408  0.00  0.00    +0.043 A 
ATOM     17  N   UNL     1       7.673  -5.738   2.161  0.00  0.00    -0.375 N 
ATOM     18  C   UNL     1       6.617  -5.112   1.365  0.00  0.00    +0.131 C 
ATOM     19  C   UNL     1       6.071  -6.054   0.288  0.00  0.00    +0.137 C 
ATOM     20  H   UNL     1       8.508  -6.093   1.818  0.00  0.00    +0.160 HD
ENDROOT
BRANCH  19  21
ATOM     21  C   UNL     1       5.822  -7.417   0.880  0.00  0.00    +0.021 A 
ATOM     22  C   UNL     1       4.931  -7.564   1.928  0.00  0.00    +0.009 A 
ATOM     23  C   UNL     1       4.701  -8.813   2.473  0.00  0.00    +0.004 A 
ATOM     24  C   UNL     1       5.360  -9.921   1.974  0.00  0.00    +0.049 A 
ATOM     25  C   UNL     1       6.253  -9.781   0.924  0.00  0.00    +0.162 A 
ATOM     26  C   UNL     1       6.481  -8.524   0.371  0.00  0.00    +0.166 A 
BRANCH  26  27
ATOM     27  O   UNL     1       7.353  -8.382  -0.663  0.00  0.00    -0.491 OA
ATOM     28  C   UNL     1       8.736  -8.250  -0.331  0.00  0.00    +0.277 C 
ENDBRANCH  26  27
BRANCH  25  29
ATOM     29  O   UNL     1       6.903 -10.870   0.432  0.00  0.00    -0.491 OA
ATOM     30  C   UNL     1       6.616 -12.129   1.045  0.00  0.00    +0.277 C 
ENDBRANCH  25  29
ENDBRANCH  19  21
BRANCH   1  31
ATOM     31  C   UNL     1       1.141  -3.884  -1.749  0.00  0.00    +0.143 C 
BRANCH  31  36
ATOM     32  C   UNL     1       0.697  -0.382  -0.399  0.00  0.00    +0.120 A 
ATOM     33  C   UNL     1       1.185   0.381  -1.451  0.00  0.00    +0.045 A 
ATOM     34  C   UNL     1       1.655  -0.239  -2.592  0.00  0.00    +0.004 A 
ATOM     35  C   UNL     1       1.641  -1.618  -2.687  0.00  0.00    +0.005 A 
ATOM     36  C   UNL     1       1.155  -2.381  -1.641  0.00  0.00    -0.027 A 
ATOM     37  C   UNL     1       0.689  -1.766  -0.495  0.00  0.00    +0.050 A 
BRANCH  32  39
ATOM     38  C   UNL     1       0.273   1.653   0.754  0.00  0.00    +0.277 C 
ATOM     39  O   UNL     1       0.234   0.225   0.725  0.00  0.00    -0.495 OA
ENDBRANCH  32  39
ENDBRANCH  31  36
ENDBRANCH   1  31
TORSDOF 6
