REMARK  Name = ZINC24845284
REMARK  10 active torsions:
REMARK  status: ('A' for Active; 'I' for Inactive)
REMARK    1  A    between atoms: C_1  and  C_2
REMARK    2  A    between atoms: C_2  and  O_3
REMARK    3  A    between atoms: O_3  and  C_4
REMARK    4  A    between atoms: C_11  and  C_18
REMARK    5  A    between atoms: C_13  and  O_14
REMARK    6  A    between atoms: C_18  and  S_19
REMARK    7  A    between atoms: S_19  and  C_20
REMARK    8  A    between atoms: N_24  and  C_25
REMARK    9  A    between atoms: C_28  and  C_32
REMARK   10  A    between atoms: C_30  and  C_31
REMARK                            x       y       z     vdW  Elec       q    Type
REMARK                         _______ _______ _______ _____ _____    ______ ____
ROOT
ATOM      1  C   UNL     1       8.071  -2.296  -6.477  0.00  0.00    +0.405 C 
ATOM      2  O   UNL     1       8.118  -1.470  -7.367  0.00  0.00    -0.226 OA
ATOM      3  N   UNL     1       7.496  -1.985  -5.298  0.00  0.00    -0.251 N 
ATOM      4  C   UNL     1       6.856  -0.755  -5.137  0.00  0.00    +0.040 A 
ATOM      5  C   UNL     1       6.886  -0.117  -3.897  0.00  0.00    +0.024 A 
ATOM      6  C   UNL     1       6.265   1.086  -3.725  0.00  0.00    +0.013 A 
ATOM      7  C   UNL     1       5.599   1.686  -4.800  0.00  0.00    +0.022 A 
ATOM      8  C   UNL     1       4.918   2.972  -4.641  0.00  0.00    -0.020 A 
ATOM      9  C   UNL     1       4.284   3.501  -5.720  0.00  0.00    +0.092 A 
ATOM     10  C   UNL     1       4.291   2.806  -6.947  0.00  0.00    +0.285 A 
ATOM     11  O   UNL     1       4.912   1.624  -7.084  0.00  0.00    -0.425 OA
ATOM     12  C   UNL     1       5.560   1.044  -6.052  0.00  0.00    +0.141 A 
ATOM     13  C   UNL     1       6.196  -0.177  -6.211  0.00  0.00    +0.070 A 
ATOM     14  H   UNL     1       7.531  -2.700  -4.464  0.00  0.00    +0.158 HD
ENDROOT
BRANCH  10  15
ATOM     15  O   UNL     1       3.718   3.291  -7.906  0.00  0.00    -0.480 OA
ATOM     16  H   UNL     1       3.715   2.761  -8.870  0.00  0.00    +0.295 HD
ENDBRANCH  10  15
BRANCH   1  17
ATOM     17  O   UNL     1       8.594  -3.522  -6.668  0.00  0.00    -0.450 OA
BRANCH  17  19
ATOM     18  C   UNL     1       9.733  -5.220  -7.991  0.00  0.00    +0.048 C 
ATOM     19  C   UNL     1       9.198  -3.787  -7.962  0.00  0.00    +0.230 C 
ENDBRANCH  17  19
ENDBRANCH   1  17
BRANCH   8  20
ATOM     20  C   UNL     1       4.926   3.694  -3.318  0.00  0.00    +0.113 C 
BRANCH  20  21
ATOM     21  S   UNL     1       3.494   3.177  -2.339  0.00  0.00    -0.081 S 
BRANCH  21  22
ATOM     22  C   UNL     1       3.748   4.146  -0.890  0.00  0.00    +0.196 A 
ATOM     23  N   UNL     1       4.735   4.985  -0.674  0.00  0.00    -0.122 NA
ATOM     24  N   UNL     1       4.608   5.521   0.487  0.00  0.00    -0.137 NA
ATOM     25  C   UNL     1       3.538   5.066   1.077  0.00  0.00    +0.230 A 
ATOM     26  N   UNL     1       2.954   4.168   0.224  0.00  0.00    -0.277 N 
BRANCH  26  27
ATOM     27  C   UNL     1       1.782   3.429   0.444  0.00  0.00    +0.053 A 
ATOM     28  C   UNL     1       0.563   4.082   0.576  0.00  0.00    +0.027 A 
ATOM     29  C   UNL     1      -0.589   3.352   0.792  0.00  0.00    +0.005 A 
ATOM     30  C   UNL     1      -0.531   1.972   0.872  0.00  0.00    -0.050 A 
ATOM     31  C   UNL     1       0.682   1.321   0.747  0.00  0.00    +0.008 A 
ATOM     32  C   UNL     1       1.838   2.045   0.530  0.00  0.00    -0.026 A 
ATOM     33  C   UNL     1       3.159   1.334   0.388  0.00  0.00    +0.046 C 
ATOM     34  C   UNL     1      -1.791   1.179   1.102  0.00  0.00    +0.044 C 
ENDBRANCH  26  27
ENDBRANCH  21  22
ENDBRANCH  20  21
ENDBRANCH   8  20
TORSDOF 7
