REMARK  Name = ZINC02268883
REMARK  6 active torsions:
REMARK  status: ('A' for Active; 'I' for Inactive)
REMARK    1  A    between atoms: C_2  and  C_3
REMARK    2  A    between atoms: C_3  and  N_4
REMARK    3  A    between atoms: N_7  and  C_9
REMARK    4  A    between atoms: C_10  and  N_21
REMARK    5  A    between atoms: N_21  and  S_22
REMARK    6  A    between atoms: S_22  and  C_25
REMARK                            x       y       z     vdW  Elec       q    Type
REMARK                         _______ _______ _______ _____ _____    ______ ____
ROOT
ATOM      1  C   UNL     1      -0.998  -2.258  -3.721  0.00  0.00    +0.121 C 
ATOM      2  C   UNL     1      -0.190  -3.171  -4.333  0.00  0.00    +0.123 C 
ATOM      3  C   UNL     1      -0.701  -4.509  -4.684  0.00  0.00    +0.211 C 
ATOM      4  O   UNL     1       0.027  -5.316  -5.229  0.00  0.00    -0.285 OA
ATOM      5  C   UNL     1      -2.101  -4.868  -4.370  0.00  0.00    +0.034 A 
ATOM      6  C   UNL     1      -2.601  -6.124  -4.691  0.00  0.00    +0.012 A 
ATOM      7  C   UNL     1      -3.916  -6.441  -4.388  0.00  0.00    +0.001 A 
ATOM      8  C   UNL     1      -4.733  -5.516  -3.768  0.00  0.00    +0.001 A 
ATOM      9  C   UNL     1      -4.249  -4.259  -3.441  0.00  0.00    +0.012 A 
ATOM     10  C   UNL     1      -2.933  -3.926  -3.738  0.00  0.00    +0.035 A 
ATOM     11  C   UNL     1      -2.394  -2.592  -3.392  0.00  0.00    +0.212 C 
ATOM     12  O   UNL     1      -3.104  -1.772  -2.842  0.00  0.00    -0.285 OA
ENDROOT
BRANCH   1  16
ATOM     13  N   UNL     1       0.162   0.703  -2.269  0.00  0.00    -0.334 N 
ATOM     14  C   UNL     1       0.321   0.992  -3.599  0.00  0.00    +0.105 A 
ATOM     15  C   UNL     1      -0.096  -0.084  -4.289  0.00  0.00    +0.110 A 
ATOM     16  N   UNL     1      -0.502  -1.016  -3.403  0.00  0.00    -0.302 N 
ATOM     17  C   UNL     1      -0.343  -0.545  -2.185  0.00  0.00    +0.181 A 
BRANCH  13  18
ATOM     18  C   UNL     1       0.487   1.585  -1.145  0.00  0.00    +0.149 C 
BRANCH  18  20
ATOM     19  C   UNL     1       2.730   2.493  -0.821  0.00  0.00    +0.005 C 
ATOM     20  C   UNL     1       1.947   1.443  -0.801  0.00  0.00    -0.013 C 
ENDBRANCH  18  20
ENDBRANCH  13  18
ENDBRANCH   1  16
BRANCH   2  21
ATOM     21  N   UNL     1       1.121  -2.838  -4.628  0.00  0.00    -0.210 N 
ATOM     22  H   UNL     1       1.434  -1.931  -4.487  0.00  0.00    +0.174 HD
BRANCH  21  23
ATOM     23  S   UNL     1       2.153  -3.988  -5.223  0.00  0.00    +0.073 S 
ATOM     24  O   UNL     1       3.404  -3.344  -5.427  0.00  0.00    -0.150 OA
ATOM     25  O   UNL     1       2.012  -5.130  -4.390  0.00  0.00    -0.150 OA
BRANCH  23  26
ATOM     26  C   UNL     1       1.558  -4.449  -6.816  0.00  0.00    +0.109 A 
ATOM     27  C   UNL     1       1.231  -5.767  -7.076  0.00  0.00    +0.030 A 
ATOM     28  C   UNL     1       0.764  -6.130  -8.325  0.00  0.00    +0.017 A 
ATOM     29  C   UNL     1       0.622  -5.174  -9.315  0.00  0.00    +0.018 A 
ATOM     30  C   UNL     1       0.949  -3.855  -9.054  0.00  0.00    +0.017 A 
ATOM     31  C   UNL     1       1.412  -3.493  -7.803  0.00  0.00    +0.030 A 
ATOM     32 BR   UNL     1      -0.017  -5.669 -11.024  0.00  0.00    -0.050 Br
ENDBRANCH  23  26
ENDBRANCH  21  23
ENDBRANCH   2  21
TORSDOF 6
