REMARK  Name = ZINC21640765
REMARK  9 active torsions:
REMARK  status: ('A' for Active; 'I' for Inactive)
REMARK    1  A    between atoms: C_1  and  C_2
REMARK    2  A    between atoms: C_6  and  N_9
REMARK    3  A    between atoms: C_7  and  C_8
REMARK    4  A    between atoms: C_10  and  C_12
REMARK    5  A    between atoms: C_12  and  C_13
REMARK    6  A    between atoms: C_13  and  C_14
REMARK    7  A    between atoms: N_17  and  C_31
REMARK    8  A    between atoms: C_21  and  C_30
REMARK    9  A    between atoms: N_23  and  C_24
REMARK                            x       y       z     vdW  Elec       q    Type
REMARK                         _______ _______ _______ _____ _____    ______ ____
ROOT
ATOM      1  C   UNL     1      -1.348   7.776  -1.054  0.00  0.00    +0.107 A 
ATOM      2  C   UNL     1      -2.544   8.495  -1.294  0.00  0.00    +0.274 A 
ATOM      3  O   UNL     1      -3.589   7.899  -1.489  0.00  0.00    -0.266 OA
ATOM      4  N   UNL     1      -2.521   9.846  -1.306  0.00  0.00    -0.293 N 
ATOM      5  C   UNL     1      -1.334  10.490  -1.085  0.00  0.00    +0.165 A 
ATOM      6  C   UNL     1      -0.173   9.744  -0.852  0.00  0.00    +0.129 A 
ATOM      7  N   UNL     1      -0.224   8.404  -0.840  0.00  0.00    -0.241 NA
ATOM      8  C   UNL     1       0.880  10.672  -0.660  0.00  0.00    +0.088 A 
ATOM      9  N   UNL     1       0.392  11.876  -0.769  0.00  0.00    -0.168 NA
ATOM     10  N   UNL     1      -0.980  11.801  -1.033  0.00  0.00    -0.214 N 
ATOM     11  C   UNL     1       2.319  10.326  -0.378  0.00  0.00    +0.070 C 
ATOM     12  C   UNL     1      -3.747  10.609  -1.552  0.00  0.00    +0.154 C 
ENDROOT
BRANCH  10  13
ATOM     13  C   UNL     1      -1.842  12.892  -1.212  0.00  0.00    +0.068 A 
ATOM     14  C   UNL     1      -1.544  13.867  -2.154  0.00  0.00    +0.028 A 
ATOM     15  C   UNL     1      -2.398  14.937  -2.333  0.00  0.00    +0.002 A 
ATOM     16  C   UNL     1      -3.544  15.044  -1.566  0.00  0.00    +0.000 A 
ATOM     17  C   UNL     1      -3.841  14.078  -0.623  0.00  0.00    +0.002 A 
ATOM     18  C   UNL     1      -2.994  13.002  -0.444  0.00  0.00    +0.028 A 
ENDBRANCH  10  13
BRANCH   1  19
ATOM     19  C   UNL     1      -1.374   6.269  -1.040  0.00  0.00    +0.070 C 
BRANCH  19  20
ATOM     20  C   UNL     1       0.033   5.737  -0.762  0.00  0.00    +0.102 C 
BRANCH  20  22
ATOM     21  N   UNL     1       1.141   3.538  -0.521  0.00  0.00    -0.285 N 
ATOM     22  C   UNL     1       0.007   4.230  -0.748  0.00  0.00    +0.218 C 
ATOM     23  O   UNL     1      -1.035   3.640  -0.942  0.00  0.00    -0.275 OA
ATOM     24  H   UNL     1       2.064   4.070  -0.247  0.00  0.00    +0.155 HD
BRANCH  21  30
ATOM     25  C   UNL     1       3.232  -0.787   0.525  0.00  0.00    +0.044 C 
ATOM     26  C   UNL     1       2.146   0.022  -0.137  0.00  0.00    -0.046 A 
ATOM     27  C   UNL     1       1.151  -0.614  -0.856  0.00  0.00    +0.004 A 
ATOM     28  C   UNL     1       0.153   0.124  -1.464  0.00  0.00    +0.002 A 
ATOM     29  C   UNL     1       0.147   1.501  -1.355  0.00  0.00    +0.023 A 
ATOM     30  C   UNL     1       1.144   2.144  -0.633  0.00  0.00    +0.037 A 
ATOM     31  C   UNL     1       2.146   1.399  -0.024  0.00  0.00    -0.026 A 
ATOM     32  C   UNL     1       3.230   2.092   0.761  0.00  0.00    +0.046 C 
ENDBRANCH  21  30
ENDBRANCH  20  22
ENDBRANCH  19  20
ENDBRANCH   1  19
TORSDOF 5
