REMARK  Name = ZINC05530152
REMARK  6 active torsions:
REMARK  status: ('A' for Active; 'I' for Inactive)
REMARK    1  A    between atoms: C_1  and  C_2
REMARK    2  A    between atoms: C_14  and  C_15
REMARK    3  A    between atoms: C_14  and  O_19
REMARK    4  A    between atoms: C_15  and  C_17
REMARK    5  A    between atoms: C_17  and  O_18
REMARK    6  A    between atoms: C_28  and  C_29
REMARK                            x       y       z     vdW  Elec       q    Type
REMARK                         _______ _______ _______ _____ _____    ______ ____
ROOT
ATOM      1  C   UNL     1       0.155   1.570   0.030  0.00  0.00    +0.015 C 
ATOM      2  C   UNL     1       0.092   0.041   0.032  0.00  0.00    +0.009 C 
ATOM      3  C   UNL     1      -1.338  -0.431   0.288  0.00  0.00    +0.044 C 
ATOM      4  C   UNL     1      -1.793   0.350   1.546  0.00  0.00    +0.153 C 
ATOM      5  C   UNL     1      -0.749   0.621   2.614  0.00  0.00    +0.111 C 
ATOM      6  O   UNL     1      -1.192   1.647   1.676  0.00  0.00    -0.363 OA
ATOM      7  C   UNL     1       0.677   0.102   2.490  0.00  0.00    +0.029 C 
ATOM      8  C   UNL     1       0.967  -0.535   1.170  0.00  0.00    +0.004 C 
ATOM      9  C   UNL     1       2.386  -0.366   0.613  0.00  0.00    +0.008 C 
ATOM     10  C   UNL     1       2.227  -0.744  -0.882  0.00  0.00    +0.043 C 
ATOM     11  C   UNL     1       0.738  -0.521  -1.236  0.00  0.00    +0.131 C 
ATOM     12  C   UNL     1       1.696   1.143   2.909  0.00  0.00    +0.011 C 
ATOM     13  C   UNL     1       1.156   1.988   4.069  0.00  0.00    +0.032 C 
ATOM     14  C   UNL     1       0.097   1.204   4.814  0.00  0.00    -0.053 C 
ATOM     15  C   UNL     1       0.286   0.842   6.074  0.00  0.00    +0.051 C 
ATOM     16  C   UNL     1      -0.747   0.031   6.749  0.00  0.00    +0.179 C 
ATOM     17  O   UNL     1      -0.830  -0.007   7.963  0.00  0.00    -0.288 OA
ATOM     18  C   UNL     1      -1.676  -0.732   5.891  0.00  0.00    +0.047 C 
ATOM     19  C   UNL     1      -1.859  -0.337   4.634  0.00  0.00    -0.009 C 
ATOM     20  C   UNL     1      -1.176   0.866   4.072  0.00  0.00    +0.039 C 
ATOM     21  C   UNL     1      -2.130   2.061   4.128  0.00  0.00    +0.023 C 
ENDROOT
BRANCH  11  22
ATOM     22  C   UNL     1       0.614   0.469  -2.366  0.00  0.00    +0.190 C 
ATOM     23  O   UNL     1       1.523   1.225  -2.609  0.00  0.00    -0.292 OA
BRANCH  22  24
ATOM     24  C   UNL     1      -0.645   0.514  -3.192  0.00  0.00    +0.233 C 
BRANCH  24  25
ATOM     25  O   UNL     1      -0.522   1.526  -4.194  0.00  0.00    -0.387 OA
ATOM     26  H   UNL     1      -1.298   1.612  -4.764  0.00  0.00    +0.210 HD
ENDBRANCH  24  25
ENDBRANCH  22  24
ENDBRANCH  11  22
BRANCH  11  27
ATOM     27  O   UNL     1       0.124  -1.761  -1.594  0.00  0.00    -0.380 OA
ATOM     28  H   UNL     1       0.493  -2.166  -2.392  0.00  0.00    +0.211 HD
ENDBRANCH  11  27
TORSDOF 4
