REMARK  Name = ZINC59171033
REMARK  8 active torsions:
REMARK  status: ('A' for Active; 'I' for Inactive)
REMARK    1  A    between atoms: C_1  and  C_2
REMARK    2  A    between atoms: C_2  and  C_3
REMARK    3  A    between atoms: C_6  and  N_9
REMARK    4  A    between atoms: C_11  and  C_24
REMARK    5  A    between atoms: C_17  and  O_20
REMARK    6  A    between atoms: O_20  and  C_21
REMARK    7  A    between atoms: C_21  and  C_22
REMARK    8  A    between atoms: C_24  and  N_26
REMARK                            x       y       z     vdW  Elec       q    Type
REMARK                         _______ _______ _______ _____ _____    ______ ____
ROOT
ATOM      1  N   UNL     1      -5.497  -1.836   0.442  0.00  0.00    -0.325 N 
ATOM      2  C   UNL     1      -6.255  -1.371  -0.528  0.00  0.00    +0.209 A 
ATOM      3  C   UNL     1      -7.559  -1.991  -0.839  0.00  0.00    +0.064 A 
ATOM      4  C   UNL     1      -8.521  -1.179  -1.425  0.00  0.00    +0.027 A 
ATOM      5  C   UNL     1      -8.159   0.217  -1.681  0.00  0.00    +0.023 A 
ATOM      6  C   UNL     1      -9.139   1.161  -2.017  0.00  0.00    +0.027 A 
ATOM      7  C   UNL     1      -8.775   2.469  -2.248  0.00  0.00    +0.022 A 
ATOM      8  C   UNL     1      -7.446   2.856  -2.152  0.00  0.00    +0.064 A 
ATOM      9  C   UNL     1      -6.466   1.936  -1.824  0.00  0.00    +0.164 A 
ATOM     10  C   UNL     1      -6.812   0.609  -1.588  0.00  0.00    +0.179 A 
ATOM     11  O   UNL     1      -5.865  -0.303  -1.270  0.00  0.00    -0.435 OA
ATOM     12 BR   UNL     1     -10.095   3.745  -2.700  0.00  0.00    -0.050 Br
ATOM     13  H   UNL     1      -5.831  -2.535   1.026  0.00  0.00    +0.169 HD
ENDROOT
BRANCH   1  17
ATOM     14  C   UNL     1      -1.690  -0.319   1.001  0.00  0.00    -0.047 A 
ATOM     15  C   UNL     1      -2.522  -0.508   2.090  0.00  0.00    +0.005 A 
ATOM     16  C   UNL     1      -3.793  -1.014   1.911  0.00  0.00    +0.026 A 
ATOM     17  C   UNL     1      -4.239  -1.334   0.626  0.00  0.00    +0.042 A 
ATOM     18  C   UNL     1      -3.393  -1.139  -0.468  0.00  0.00    +0.026 A 
ATOM     19  C   UNL     1      -2.127  -0.628  -0.275  0.00  0.00    +0.005 A 
BRANCH  14  21
ATOM     20  C   UNL     1      -0.344   1.761   1.124  0.00  0.00    +0.009 C 
ATOM     21  C   UNL     1      -0.302   0.234   1.205  0.00  0.00    +0.032 C 
ENDBRANCH  14  21
ENDBRANCH   1  17
BRANCH   3  22
ATOM     22  C   UNL     1      -7.827  -3.406  -0.541  0.00  0.00    +0.082 C 
ATOM     23  S   UNL     1      -6.568  -4.412   0.037  0.00  0.00    -0.035 S 
BRANCH  22  24
ATOM     24  N   UNL     1      -9.063  -3.912  -0.723  0.00  0.00    -0.352 N 
ATOM     25  H   UNL     1      -9.776  -3.342  -1.051  0.00  0.00    +0.143 HD
ATOM     26  H   UNL     1      -9.239  -4.845  -0.526  0.00  0.00    +0.143 HD
ENDBRANCH  22  24
ENDBRANCH   3  22
BRANCH   9  27
ATOM     27  O   UNL     1      -5.167   2.327  -1.732  0.00  0.00    -0.489 OA
BRANCH  27  28
ATOM     28  C   UNL     1      -4.885   3.705  -1.987  0.00  0.00    +0.226 C 
ATOM     29  C   UNL     1      -3.382   3.954  -1.838  0.00  0.00    +0.048 C 
ENDBRANCH  27  28
ENDBRANCH   9  27
TORSDOF 6
