REMARK  Name = ZINC48846548
REMARK  4 active torsions:
REMARK  status: ('A' for Active; 'I' for Inactive)
REMARK    1  A    between atoms: C_7  and  C_11
REMARK    2  A    between atoms: C_7  and  N_14
REMARK    3  A    between atoms: N_14  and  C_15
REMARK    4  A    between atoms: C_21  and  N_23
REMARK                            x       y       z     vdW  Elec       q    Type
REMARK                         _______ _______ _______ _____ _____    ______ ____
ROOT
ATOM      1  C   UNL     1       4.977  -2.876  -0.163  0.00  0.00    +0.000 A 
ATOM      2  C   UNL     1       5.009  -3.921   0.744  0.00  0.00    +0.001 A 
ATOM      3  C   UNL     1       3.843  -4.318   1.362  0.00  0.00    +0.015 A 
ATOM      4  C   UNL     1       2.635  -3.682   1.075  0.00  0.00    +0.013 A 
ATOM      5  C   UNL     1       2.598  -2.647   0.158  0.00  0.00    -0.003 A 
ATOM      6  C   UNL     1       3.786  -2.247  -0.449  0.00  0.00    +0.007 A 
ATOM      7  C   UNL     1       1.353  -1.922  -0.259  0.00  0.00    +0.149 C 
ATOM      8  C   UNL     1       0.239  -1.977   0.773  0.00  0.00    +0.049 C 
ATOM      9  C   UNL     1      -0.164  -3.442   0.999  0.00  0.00    +0.077 C 
ATOM     10  S   UNL     1       1.187  -4.234   1.920  0.00  0.00    -0.125 S 
ENDROOT
BRANCH   7  11
ATOM     11  C   UNL     1       1.699  -0.478  -0.516  0.00  0.00    +0.380 C 
ATOM     12  O   UNL     1       1.640  -0.030  -1.649  0.00  0.00    -0.244 OA
ATOM     13  O   UNL     1       2.039   0.241   0.408  0.00  0.00    -0.244 OA
ENDBRANCH   7  11
BRANCH   7  14
ATOM     14  N   UNL     1       0.862  -2.513  -1.511  0.00  0.00    -0.297 NA
ATOM     15  H   UNL     1       1.590  -2.537  -2.209  0.00  0.00    +0.123 HD
BRANCH  14  16
ATOM     16  C   UNL     1      -0.319  -1.794  -2.005  0.00  0.00    +0.040 C 
ATOM     17  C   UNL     1      -1.586  -2.538  -1.578  0.00  0.00    +0.017 C 
ATOM     18  C   UNL     1      -1.568  -3.952  -2.162  0.00  0.00    +0.001 C 
ATOM     19  C   UNL     1      -1.514  -3.873  -3.689  0.00  0.00    -0.001 C 
ATOM     20  C   UNL     1      -0.248  -3.128  -4.116  0.00  0.00    -0.015 C 
ATOM     21  C   UNL     1      -0.266  -1.714  -3.532  0.00  0.00    -0.058 C 
BRANCH  21  22
ATOM     22  N   UNL     1       0.950  -1.000  -3.943  0.00  0.00    +0.381 N 
ATOM     23  H   UNL     1       1.762  -1.494  -3.603  0.00  0.00    -0.090 HD
ATOM     24  H   UNL     1       0.986  -0.947  -4.950  0.00  0.00    -0.090 HD
ATOM     25  H   UNL     1       0.939  -0.067  -3.558  0.00  0.00    -0.090 HD
ENDBRANCH  21  22
ENDBRANCH  14  16
ENDBRANCH   7  14
TORSDOF 4
