REMARK  Name = ZINC36207651
REMARK  16 active torsions:
REMARK  status: ('A' for Active; 'I' for Inactive)
REMARK    1  A    between atoms: C_1  and  C_2
REMARK    2  A    between atoms: C_5  and  C_8
REMARK    3  A    between atoms: C_17  and  C_19
REMARK    4  A    between atoms: C_19  and  N_20
REMARK    5  A    between atoms: N_20  and  C_21
REMARK    6  A    between atoms: N_20  and  C_26
REMARK    7  A    between atoms: C_21  and  C_22
REMARK    8  A    between atoms: C_22  and  C_23
REMARK    9  A    between atoms: C_23  and  O_24
REMARK   10  A    between atoms: O_24  and  C_25
REMARK   11  A    between atoms: C_26  and  C_27
REMARK   12  A    between atoms: C_27  and  C_29
REMARK   13  A    between atoms: C_27  and  O_37
REMARK   14  A    between atoms: C_29  and  O_30
REMARK   15  A    between atoms: O_30  and  C_31
REMARK   16  A    between atoms: C_31  and  C_32
REMARK                            x       y       z     vdW  Elec       q    Type
REMARK                         _______ _______ _______ _____ _____    ______ ____
ROOT
ATOM      1  C   UNL     1       4.104  -7.774   2.225  0.00  0.00    -0.003 C 
ENDROOT
BRANCH   1  11
ATOM      2  C   UNL     1       2.002  -5.464  -2.543  0.00  0.00    +0.004 A 
ATOM      3  C   UNL     1       1.218  -6.326  -3.235  0.00  0.00    +0.056 A 
ATOM      4  S   UNL     1       1.250  -7.804  -2.239  0.00  0.00    -0.076 S 
ATOM      5  C   UNL     1       2.305  -7.236  -0.930  0.00  0.00    +0.116 A 
ATOM      6  C   UNL     1       2.612  -5.917  -1.299  0.00  0.00    +0.080 A 
ATOM      7  C   UNL     1       3.472  -5.207  -0.401  0.00  0.00    +0.260 A 
ATOM      8  O   UNL     1       3.792  -4.053  -0.633  0.00  0.00    -0.267 OA
ATOM      9  N   UNL     1       3.922  -5.832   0.702  0.00  0.00    -0.312 N 
ATOM     10  H   UNL     1       4.506  -5.356   1.314  0.00  0.00    +0.170 HD
ATOM     11  C   UNL     1       3.576  -7.115   0.977  0.00  0.00    +0.094 A 
ATOM     12  N   UNL     1       2.785  -7.786   0.183  0.00  0.00    -0.229 NA
BRANCH   2  17
ATOM     13  C   UNL     1       2.922  -0.125  -4.493  0.00  0.00    +0.044 C 
ATOM     14  C   UNL     1       2.681  -1.522  -3.982  0.00  0.00    -0.050 A 
ATOM     15  C   UNL     1       2.856  -2.604  -4.827  0.00  0.00    +0.004 A 
ATOM     16  C   UNL     1       2.637  -3.886  -4.365  0.00  0.00    +0.009 A 
ATOM     17  C   UNL     1       2.239  -4.090  -3.045  0.00  0.00    -0.017 A 
ATOM     18  C   UNL     1       2.065  -2.996  -2.198  0.00  0.00    +0.009 A 
ATOM     19  C   UNL     1       2.291  -1.719  -2.670  0.00  0.00    +0.004 A 
ENDBRANCH   2  17
ENDBRANCH   1  11
BRANCH   1  20
ATOM     20  N   UNL     1       3.474  -9.091   2.387  0.00  0.00    +0.386 N 
ATOM     21  H   UNL     1       3.588  -9.626   1.539  0.00  0.00    -0.081 HD
BRANCH  20  22
ATOM     22  C   UNL     1       2.042  -8.918   2.667  0.00  0.00    -0.076 C 
BRANCH  22  23
ATOM     23  C   UNL     1       1.868  -8.186   3.999  0.00  0.00    +0.009 C 
BRANCH  23  24
ATOM     24  C   UNL     1       0.379  -8.091   4.338  0.00  0.00    +0.157 C 
BRANCH  24  25
ATOM     25  O   UNL     1       0.216  -7.407   5.582  0.00  0.00    -0.383 OA
ATOM     26  C   UNL     1      -1.145  -7.263   5.993  0.00  0.00    +0.193 C 
ENDBRANCH  24  25
ENDBRANCH  23  24
ENDBRANCH  22  23
ENDBRANCH  20  22
BRANCH  20  27
ATOM     27  C   UNL     1       4.109  -9.803   3.505  0.00  0.00    -0.044 C 
BRANCH  27  28
ATOM     28  C   UNL     1       3.571 -11.235   3.568  0.00  0.00    +0.124 C 
BRANCH  28  29
ATOM     29  O   UNL     1       2.191 -11.209   3.939  0.00  0.00    -0.391 OA
ATOM     30  H   UNL     1       2.023 -10.803   4.800  0.00  0.00    +0.210 HD
ENDBRANCH  28  29
BRANCH  28  31
ATOM     31  C   UNL     1       4.364 -12.031   4.607  0.00  0.00    +0.189 C 
BRANCH  31  32
ATOM     32  O   UNL     1       3.941 -13.396   4.584  0.00  0.00    -0.370 OA
BRANCH  32  33
ATOM     33  C   UNL     1       4.623 -14.231   5.522  0.00  0.00    +0.234 C 
BRANCH  33  34
ATOM     34  C   UNL     1       4.101 -15.641   5.412  0.00  0.00    +0.130 A 
ATOM     35  C   UNL     1       4.591 -16.601   4.607  0.00  0.00    +0.047 A 
ATOM     36  C   UNL     1       3.807 -17.757   4.824  0.00  0.00    +0.041 A 
ATOM     37  C   UNL     1       2.884 -17.434   5.748  0.00  0.00    +0.195 A 
ATOM     38  O   UNL     1       3.070 -16.153   6.104  0.00  0.00    -0.465 OA
ENDBRANCH  33  34
ENDBRANCH  32  33
ENDBRANCH  31  32
ENDBRANCH  28  31
ENDBRANCH  27  28
ENDBRANCH  20  27
ENDBRANCH   1  20
TORSDOF 14
