REMARK  Name = ZINC57804510
REMARK  4 active torsions:
REMARK  status: ('A' for Active; 'I' for Inactive)
REMARK    1  A    between atoms: C_3  and  C_6
REMARK    2  A    between atoms: C_6  and  C_7
REMARK    3  A    between atoms: N_15  and  C_16
REMARK    4  A    between atoms: C_16  and  C_17
REMARK                            x       y       z     vdW  Elec       q    Type
REMARK                         _______ _______ _______ _____ _____    ______ ____
ROOT
ATOM      1  C   UNL     1       4.247   2.008   1.393  0.00  0.00    +0.116 A 
ATOM      2  N   UNL     1       4.122   3.090   2.104  0.00  0.00    -0.232 NA
ATOM      3  C   UNL     1       4.668   2.895   3.333  0.00  0.00    +0.093 A 
ATOM      4  C   UNL     1       4.806   3.705   4.464  0.00  0.00    +0.079 A 
ATOM      5  C   UNL     1       5.423   3.209   5.595  0.00  0.00    +0.164 A 
ATOM      6  C   UNL     1       5.910   1.902   5.615  0.00  0.00    +0.164 A 
ATOM      7  C   UNL     1       5.780   1.093   4.501  0.00  0.00    +0.077 A 
ATOM      8  C   UNL     1       5.161   1.580   3.358  0.00  0.00    +0.073 A 
ATOM      9  N   UNL     1       4.876   1.043   2.117  0.00  0.00    -0.313 N 
ATOM     10  O   UNL     1       6.513   1.402   6.730  0.00  0.00    -0.485 OA
ATOM     11  C   UNL     1       6.961   2.353   7.701  0.00  0.00    +0.270 C 
ATOM     12  C   UNL     1       5.836   3.371   7.932  0.00  0.00    +0.270 C 
ATOM     13  O   UNL     1       5.551   4.016   6.686  0.00  0.00    -0.485 OA
ENDROOT
BRANCH   1  14
ATOM     14  C   UNL     1       3.761   1.845  -0.024  0.00  0.00    +0.116 C 
BRANCH  14  17
ATOM     15  C   UNL     1      -0.016   1.351   0.009  0.00  0.00    +0.008 A 
ATOM     16  C   UNL     1       1.183   2.038   0.002  0.00  0.00    +0.011 A 
ATOM     17  C   UNL     1       2.343   1.336  -0.013  0.00  0.00    -0.003 A 
ATOM     18  S   UNL     1       1.754  -0.349  -0.017  0.00  0.00    -0.101 S 
ATOM     19  C   UNL     1       0.002  -0.004   0.002  0.00  0.00    +0.045 A 
ENDBRANCH  14  17
ENDBRANCH   1  14
BRANCH   9  20
ATOM     20  C   UNL     1       5.195  -0.314   1.664  0.00  0.00    +0.242 C 
BRANCH  20  21
ATOM     21  C   UNL     1       6.528  -0.323   1.041  0.00  0.00    +0.084 C 
ATOM     22  N   UNL     1       7.558  -0.330   0.561  0.00  0.00    -0.195 NA
ENDBRANCH  20  21
ENDBRANCH   9  20
TORSDOF 4
