REMARK  Name = ZINC38089791
REMARK  10 active torsions:
REMARK  status: ('A' for Active; 'I' for Inactive)
REMARK    1  A    between atoms: C_1  and  C_2
REMARK    2  A    between atoms: C_2  and  C_4
REMARK    3  A    between atoms: C_2  and  N_11
REMARK    4  A    between atoms: C_9  and  O_10
REMARK    5  A    between atoms: N_11  and  C_12
REMARK    6  A    between atoms: C_13  and  O_15
REMARK    7  A    between atoms: O_15  and  C_16
REMARK    8  A    between atoms: C_16  and  C_17
REMARK    9  A    between atoms: C_16  and  C_18
REMARK   10  A    between atoms: C_16  and  C_19
REMARK                            x       y       z     vdW  Elec       q    Type
REMARK                         _______ _______ _______ _____ _____    ______ ____
ROOT
ATOM      1  C   UNL     1      -0.008   1.525   0.100  0.00  0.00    +0.033 C 
ATOM      2  C   UNL     1       0.003  -0.002   0.006  0.00  0.00    +0.110 C 
ENDROOT
BRANCH   2   3
ATOM      3  C   UNL     1      -1.412  -0.518   0.040  0.00  0.00    +0.014 A 
ATOM      4  C   UNL     1      -2.437   0.302   0.473  0.00  0.00    +0.009 A 
ATOM      5  C   UNL     1      -3.735  -0.171   0.505  0.00  0.00    +0.001 A 
ATOM      6  C   UNL     1      -4.013  -1.465   0.105  0.00  0.00    +0.004 A 
ATOM      7  C   UNL     1      -2.992  -2.288  -0.329  0.00  0.00    +0.046 A 
ATOM      8  C   UNL     1      -1.688  -1.815  -0.367  0.00  0.00    +0.122 A 
BRANCH   8   9
ATOM      9  O   UNL     1      -0.683  -2.621  -0.799  0.00  0.00    -0.506 OA
ATOM     10  H   UNL     1      -0.268  -3.141  -0.098  0.00  0.00    +0.292 HD
ENDBRANCH   8   9
ENDBRANCH   2   3
BRANCH   2  11
ATOM     11  N   UNL     1       0.753  -0.556   1.136  0.00  0.00    -0.264 N 
ATOM     12  C   UNL     1       0.248  -0.389   2.502  0.00  0.00    +0.136 C 
ATOM     13  C   UNL     1       1.906  -1.219   0.920  0.00  0.00    +0.404 C 
ATOM     14  O   UNL     1       2.324  -1.357  -0.212  0.00  0.00    -0.226 OA
BRANCH  13  15
ATOM     15  O   UNL     1       2.595  -1.728   1.959  0.00  0.00    -0.445 OA
BRANCH  15  16
ATOM     16  C   UNL     1       3.809  -2.418   1.657  0.00  0.00    +0.107 C 
ATOM     17  C   UNL     1       4.775  -1.466   0.950  0.00  0.00    +0.055 C 
ATOM     18  C   UNL     1       4.446  -2.921   2.954  0.00  0.00    +0.055 C 
ATOM     19  C   UNL     1       3.505  -3.607   0.743  0.00  0.00    +0.055 C 
ENDBRANCH  15  16
ENDBRANCH  13  15
ENDBRANCH   2  11
TORSDOF 5
