REMARK  Name = ZINC02358548
REMARK  7 active torsions:
REMARK  status: ('A' for Active; 'I' for Inactive)
REMARK    1  A    between atoms: C_1  and  C_2
REMARK    2  A    between atoms: C_2  and  C_31
REMARK    3  A    between atoms: C_7  and  C_30
REMARK    4  A    between atoms: C_10  and  N_11
REMARK    5  A    between atoms: C_10  and  N_59
REMARK    6  A    between atoms: N_19  and  N_20
REMARK    7  A    between atoms: C_21  and  C_23
REMARK                            x       y       z     vdW  Elec       q    Type
REMARK                         _______ _______ _______ _____ _____    ______ ____
ROOT
ATOM      1  N   UNL     1       3.338   2.558  -0.017  0.00  0.00    -0.282 N 
ATOM      2  C   UNL     1       2.664   3.774  -0.004  0.00  0.00    +0.044 A 
ATOM      3  C   UNL     1       3.127   5.086  -0.001  0.00  0.00    +0.024 A 
ATOM      4  C   UNL     1       2.231   6.136  -0.002  0.00  0.00    +0.002 A 
ATOM      5  C   UNL     1       0.866   5.899   0.008  0.00  0.00    +0.001 A 
ATOM      6  C   UNL     1       0.389   4.604   0.010  0.00  0.00    +0.012 A 
ATOM      7  C   UNL     1       1.284   3.539   0.003  0.00  0.00    +0.028 A 
ATOM      8  C   UNL     1       1.110   2.068   0.003  0.00  0.00    +0.153 C 
ATOM      9  N   UNL     1      -0.017   1.397   0.010  0.00  0.00    -0.174 NA
ATOM     10  C   UNL     1       2.481   1.522  -0.014  0.00  0.00    +0.270 C 
ATOM     11  O   UNL     1       2.783   0.343  -0.023  0.00  0.00    -0.268 OA
ENDROOT
BRANCH   9  12
ATOM     12  N   UNL     1       0.002  -0.004   0.002  0.00  0.00    -0.202 N 
ATOM     13  C   UNL     1      -1.156  -0.694   0.009  0.00  0.00    +0.270 C 
ATOM     14  O   UNL     1      -2.218  -0.100   0.023  0.00  0.00    -0.268 OA
ATOM     15  H   UNL     1       0.849  -0.478  -0.009  0.00  0.00    +0.178 HD
BRANCH  13  16
ATOM     16  C   UNL     1      -1.136  -2.158   0.001  0.00  0.00    +0.075 A 
ATOM     17  C   UNL     1      -2.201  -3.047   0.012  0.00  0.00    +0.021 A 
ATOM     18  C   UNL     1      -1.897  -4.385  -0.003  0.00  0.00    +0.008 A 
ATOM     19  C   UNL     1      -0.594  -4.770  -0.017  0.00  0.00    +0.046 A 
ATOM     20  S   UNL     1       0.264  -3.263  -0.017  0.00  0.00    -0.092 S 
ENDBRANCH  13  16
ENDBRANCH   9  12
BRANCH   1  21
ATOM     21  C   UNL     1       4.796   2.422  -0.033  0.00  0.00    +0.039 C 
BRANCH  21  32
ATOM     22  C   UNL     1       7.812   4.144   0.447  0.00  0.00    +0.011 C 
ATOM     23  C   UNL     1       8.208   3.301  -0.782  0.00  0.00    -0.036 C 
ATOM     24  C   UNL     1       7.585   1.928  -0.661  0.00  0.00    -0.009 C 
ATOM     25  C   UNL     1       6.479   1.589  -1.645  0.00  0.00    -0.065 C 
ATOM     26  C   UNL     1       6.945   2.072  -3.048  0.00  0.00    -0.011 C 
ATOM     27  C   UNL     1       6.750   3.602  -2.869  0.00  0.00    -0.048 C 
ATOM     28  C   UNL     1       7.928   4.104  -2.035  0.00  0.00    +0.011 C 
ATOM     29  C   UNL     1       5.469   3.710  -2.008  0.00  0.00    -0.070 C 
ATOM     30  C   UNL     1       6.614   4.337  -4.210  0.00  0.00    +0.009 C 
ATOM     31  C   UNL     1       9.745   3.115  -0.693  0.00  0.00    +0.011 C 
ATOM     32  N   UNL     1       5.235   2.370  -1.469  0.00  0.00    +0.393 N 
ATOM     33  H   UNL     1       4.487   1.922  -2.012  0.00  0.00    -0.079 HD
ENDBRANCH  21  32
ENDBRANCH   1  21
TORSDOF 4
