REMARK  Name = ZINC14648999
REMARK  9 active torsions:
REMARK  status: ('A' for Active; 'I' for Inactive)
REMARK    1  A    between atoms: C_1  and  C_2
REMARK    2  A    between atoms: C_6  and  O_9
REMARK    3  A    between atoms: C_7  and  C_8
REMARK    4  A    between atoms: O_9  and  C_10
REMARK    5  A    between atoms: C_10  and  C_11
REMARK    6  A    between atoms: N_13  and  N_14
REMARK    7  A    between atoms: N_14  and  C_15
REMARK    8  A    between atoms: C_15  and  N_17
REMARK    9  A    between atoms: C_18  and  C_20
REMARK                            x       y       z     vdW  Elec       q    Type
REMARK                         _______ _______ _______ _____ _____    ______ ____
ROOT
ATOM      1  N   UNL     1      -1.214   3.562   0.027  0.00  0.00    -0.245 N 
ATOM      2  H   UNL     1      -0.380   4.058   0.026  0.00  0.00    +0.172 HD
ENDROOT
BRANCH   1   5
ATOM      3  C   UNL     1      -0.018   1.503   0.010  0.00  0.00    +0.267 C 
ATOM      4  O   UNL     1       1.024   2.123   0.004  0.00  0.00    -0.271 OA
ATOM      5  N   UNL     1      -1.195   2.161   0.019  0.00  0.00    -0.232 N 
ATOM      6  H   UNL     1      -2.028   1.664   0.021  0.00  0.00    +0.173 HD
BRANCH   3   7
ATOM      7  C   UNL     1       0.002  -0.004   0.002  0.00  0.00    +0.326 C 
BRANCH   7   8
ATOM      8  O   UNL     1       1.356  -0.462  -0.013  0.00  0.00    -0.482 OA
BRANCH   8  14
ATOM      9  C   UNL     1       4.437  -4.247  -0.064  0.00  0.00    +0.044 C 
ATOM     10  C   UNL     1       3.038  -3.688  -0.047  0.00  0.00    -0.044 A 
ATOM     11  C   UNL     1       1.952  -4.544  -0.041  0.00  0.00    +0.004 A 
ATOM     12  C   UNL     1       0.667  -4.034  -0.026  0.00  0.00    +0.004 A 
ATOM     13  C   UNL     1       0.464  -2.668  -0.017  0.00  0.00    +0.046 A 
ATOM     14  C   UNL     1       1.552  -1.807  -0.022  0.00  0.00    +0.124 A 
ATOM     15  C   UNL     1       2.841  -2.321  -0.043  0.00  0.00    -0.006 A 
ATOM     16  C   UNL     1       4.024  -1.388  -0.056  0.00  0.00    +0.048 C 
ENDBRANCH   8  14
ENDBRANCH   7   8
ENDBRANCH   3   7
ENDBRANCH   1   5
BRANCH   1  17
ATOM     17  C   UNL     1      -2.390   4.220   0.036  0.00  0.00    +0.153 C 
ATOM     18  S   UNL     1      -2.413   5.931   0.046  0.00  0.00    -0.017 S 
BRANCH  17  19
ATOM     19  N   UNL     1      -3.548   3.530   0.038  0.00  0.00    -0.263 N 
ATOM     20  C   UNL     1      -4.724   4.188   0.047  0.00  0.00    +0.250 C 
ATOM     21  O   UNL     1      -4.740   5.403   0.054  0.00  0.00    -0.270 OA
ATOM     22  H   UNL     1      -3.535   2.560   0.033  0.00  0.00    +0.157 HD
BRANCH  20  23
ATOM     23  C   UNL     1      -5.993   3.432   0.049  0.00  0.00    +0.037 A 
ATOM     24  C   UNL     1      -5.977   2.036   0.036  0.00  0.00    +0.014 A 
ATOM     25  C   UNL     1      -7.165   1.336   0.042  0.00  0.00    +0.021 A 
ATOM     26  C   UNL     1      -8.373   2.015   0.052  0.00  0.00    +0.041 A 
ATOM     27  C   UNL     1      -8.395   3.400   0.060  0.00  0.00    +0.021 A 
ATOM     28  C   UNL     1      -7.213   4.111   0.059  0.00  0.00    +0.014 A 
ATOM     29 CL   UNL     1      -9.864   1.126   0.054  0.00  0.00    -0.084 Cl
ENDBRANCH  20  23
ENDBRANCH  17  19
ENDBRANCH   1  17
TORSDOF 7
