REMARK  Name = ZINC09384925
REMARK  13 active torsions:
REMARK  status: ('A' for Active; 'I' for Inactive)
REMARK    1  A    between atoms: C_1  and  C_2
REMARK    2  A    between atoms: C_2  and  C_3
REMARK    3  A    between atoms: N_12  and  C_13
REMARK    4  A    between atoms: C_13  and  C_14
REMARK    5  A    between atoms: C_14  and  N_63
REMARK    6  A    between atoms: C_15  and  C_16
REMARK    7  A    between atoms: C_15  and  N_63
REMARK    8  A    between atoms: C_17  and  C_18
REMARK    9  A    between atoms: C_17  and  N_63
REMARK   10  A    between atoms: C_19  and  C_21
REMARK   11  A    between atoms: C_21  and  S_22
REMARK   12  A    between atoms: S_22  and  C_25
REMARK   13  A    between atoms: C_28  and  C_31
REMARK                            x       y       z     vdW  Elec       q    Type
REMARK                         _______ _______ _______ _____ _____    ______ ____
ROOT
ATOM      1  C   UNL     1       1.413 -11.225  -3.849  0.00  0.00    -0.046 A 
ATOM      2  C   UNL     1       1.396 -10.700  -5.134  0.00  0.00    +0.006 A 
ATOM      3  C   UNL     1       1.358  -9.348  -5.354  0.00  0.00    +0.029 A 
ATOM      4  C   UNL     1       1.334  -8.440  -4.271  0.00  0.00    +0.080 A 
ATOM      5  C   UNL     1       1.352  -9.010  -2.978  0.00  0.00    +0.041 A 
ATOM      6  C   UNL     1       1.390 -10.366  -2.766  0.00  0.00    +0.021 A 
ATOM      7  S   UNL     1       1.321  -7.574  -1.931  0.00  0.00    -0.052 S 
ATOM      8  C   UNL     1       1.277  -6.349  -3.232  0.00  0.00    +0.168 A 
ATOM      9  N   UNL     1       1.296  -7.090  -4.315  0.00  0.00    -0.224 NA
ATOM     10  N   UNL     1       1.238  -4.969  -3.124  0.00  0.00    -0.251 N 
ATOM     11  C   UNL     1       1.225  -4.388  -1.908  0.00  0.00    +0.243 C 
ATOM     12  O   UNL     1       1.246  -5.074  -0.908  0.00  0.00    -0.273 OA
ENDROOT
BRANCH   1  14
ATOM     13  C   UNL     1       0.028 -13.262  -3.562  0.00  0.00    +0.009 C 
ATOM     14  C   UNL     1       1.455 -12.716  -3.637  0.00  0.00    +0.032 C 
ENDBRANCH   1  14
BRANCH  10  15
ATOM     15  C   UNL     1       1.213  -4.140  -4.332  0.00  0.00    +0.097 C 
BRANCH  15  16
ATOM     16  C   UNL     1       2.646  -3.811  -4.756  0.00  0.00    -0.059 C 
BRANCH  16  17
ATOM     17  N   UNL     1       2.605  -3.099  -6.050  0.00  0.00    +0.380 N 
ATOM     18  H   UNL     1       1.914  -3.552  -6.659  0.00  0.00    -0.082 HD
BRANCH  17  19
ATOM     19  C   UNL     1       2.209  -1.690  -5.839  0.00  0.00    -0.082 C 
ATOM     20  C   UNL     1       1.958  -1.039  -7.201  0.00  0.00    -0.017 C 
ENDBRANCH  17  19
BRANCH  17  21
ATOM     21  C   UNL     1       3.931  -3.158  -6.701  0.00  0.00    -0.082 C 
ATOM     22  C   UNL     1       4.112  -4.547  -7.318  0.00  0.00    -0.017 C 
ENDBRANCH  17  21
ENDBRANCH  16  17
ENDBRANCH  15  16
ENDBRANCH  10  15
BRANCH  11  23
ATOM     23  C   UNL     1       1.183  -2.886  -1.791  0.00  0.00    +0.267 C 
BRANCH  23  24
ATOM     24  S   UNL     1       1.173  -2.416  -0.039  0.00  0.00    +0.005 S 
ATOM     25  O   UNL     1       2.419  -2.743   0.562  0.00  0.00    -0.169 OA
ATOM     26  O   UNL     1      -0.049  -2.812   0.567  0.00  0.00    -0.169 OA
BRANCH  24  27
ATOM     27  C   UNL     1       1.124  -0.655  -0.043  0.00  0.00    +0.089 A 
ATOM     28  C   UNL     1      -0.092   0.002  -0.041  0.00  0.00    +0.027 A 
ATOM     29  C   UNL     1      -0.131   1.384  -0.043  0.00  0.00    +0.005 A 
ATOM     30  C   UNL     1       1.047   2.109  -0.046  0.00  0.00    -0.050 A 
ATOM     31  C   UNL     1       2.263   1.451  -0.049  0.00  0.00    +0.005 A 
ATOM     32  C   UNL     1       2.301   0.070  -0.046  0.00  0.00    +0.027 A 
ATOM     33  C   UNL     1       1.004   3.615  -0.049  0.00  0.00    +0.044 C 
ENDBRANCH  24  27
ENDBRANCH  23  24
ENDBRANCH  11  23
TORSDOF 9
