REMARK  Name = ZINC10751546
REMARK  8 active torsions:
REMARK  status: ('A' for Active; 'I' for Inactive)
REMARK    1  A    between atoms: C_1  and  N_57
REMARK    2  A    between atoms: C_2  and  N_57
REMARK    3  A    between atoms: C_3  and  C_4
REMARK    4  A    between atoms: C_3  and  N_57
REMARK    5  A    between atoms: C_4  and  N_5
REMARK    6  A    between atoms: C_16  and  C_18
REMARK    7  A    between atoms: N_23  and  S_25
REMARK    8  A    between atoms: S_25  and  C_28
REMARK                            x       y       z     vdW  Elec       q    Type
REMARK                         _______ _______ _______ _____ _____    ______ ____
ROOT
ATOM      1  N   UNL     1      -0.388   6.007   5.573  0.00  0.00    -0.252 N 
ATOM      2  C   UNL     1      -0.112   7.112   6.362  0.00  0.00    +0.168 A 
ATOM      3  N   UNL     1      -0.197   8.385   6.055  0.00  0.00    -0.224 NA
ATOM      4  C   UNL     1       0.107   9.367   6.933  0.00  0.00    +0.080 A 
ATOM      5  C   UNL     1       0.058  10.765   6.730  0.00  0.00    +0.032 A 
ATOM      6  C   UNL     1       0.402  11.631   7.734  0.00  0.00    +0.040 A 
ATOM      7  C   UNL     1       0.808  11.172   8.981  0.00  0.00    +0.125 A 
ATOM      8  C   UNL     1       0.868   9.809   9.214  0.00  0.00    +0.055 A 
ATOM      9  C   UNL     1       0.525   8.935   8.212  0.00  0.00    +0.043 A 
ATOM     10  S   UNL     1       0.443   7.167   8.060  0.00  0.00    -0.052 S 
ATOM     11  F   UNL     1       1.143  12.047   9.955  0.00  0.00    -0.205 F 
ATOM     12  C   UNL     1      -0.958   6.169   4.362  0.00  0.00    +0.226 C 
ATOM     13  O   UNL     1      -1.270   5.200   3.704  0.00  0.00    -0.275 OA
ENDROOT
BRANCH  12  14
ATOM     14  C   UNL     1      -1.207   7.556   3.826  0.00  0.00    +0.091 C 
ATOM     15  C   UNL     1       0.126   8.203   3.445  0.00  0.00    +0.015 C 
ATOM     16  C   UNL     1      -0.123   9.623   2.931  0.00  0.00    +0.018 C 
ATOM     17  C   UNL     1      -1.007   9.559   1.676  0.00  0.00    +0.109 C 
ATOM     18  N   UNL     1      -2.230   8.813   2.002  0.00  0.00    -0.175 NA
ATOM     19  C   UNL     1      -2.103   7.471   2.587  0.00  0.00    +0.122 C 
BRANCH  18  20
ATOM     20  S   UNL     1      -3.722   9.469   1.710  0.00  0.00    +0.067 S 
ATOM     21  O   UNL     1      -4.626   8.380   1.580  0.00  0.00    -0.152 OA
ATOM     22  O   UNL     1      -3.546  10.440   0.688  0.00  0.00    -0.152 OA
BRANCH  20  23
ATOM     23  C   UNL     1      -4.198  10.347   3.162  0.00  0.00    +0.143 A 
ATOM     24  C   UNL     1      -3.977  11.645   3.486  0.00  0.00    +0.036 A 
ATOM     25  C   UNL     1      -4.445  12.123   4.695  0.00  0.00    +0.010 A 
ATOM     26  C   UNL     1      -5.120  11.283   5.518  0.00  0.00    +0.047 A 
ATOM     27  S   UNL     1      -5.103   9.760   4.585  0.00  0.00    -0.077 S 
ENDBRANCH  20  23
ENDBRANCH  18  20
ENDBRANCH  12  14
BRANCH   1  28
ATOM     28  C   UNL     1      -0.061   4.663   6.055  0.00  0.00    +0.097 C 
BRANCH  28  29
ATOM     29  C   UNL     1       1.300   4.240   5.501  0.00  0.00    -0.060 C 
BRANCH  29  32
ATOM     30  C   UNL     1       0.701   1.895   5.432  0.00  0.00    -0.097 C 
ATOM     31  C   UNL     1       3.021   2.545   5.671  0.00  0.00    -0.097 C 
ATOM     32  N   UNL     1       1.625   2.892   6.012  0.00  0.00    +0.377 N 
ATOM     33  H   UNL     1       1.521   2.889   7.034  0.00  0.00    -0.083 HD
ENDBRANCH  29  32
ENDBRANCH  28  29
ENDBRANCH   1  28
TORSDOF 6
