REMARK  Name = ZINC09476750
REMARK  8 active torsions:
REMARK  status: ('A' for Active; 'I' for Inactive)
REMARK    1  A    between atoms: C_1  and  C_2
REMARK    2  A    between atoms: C_2  and  C_4
REMARK    3  A    between atoms: C_2  and  C_19
REMARK    4  A    between atoms: N_21  and  C_22
REMARK    5  A    between atoms: C_22  and  C_23
REMARK    6  A    between atoms: C_23  and  C_25
REMARK    7  A    between atoms: C_23  and  O_27
REMARK    8  A    between atoms: C_25  and  O_26
REMARK                            x       y       z     vdW  Elec       q    Type
REMARK                         _______ _______ _______ _____ _____    ______ ____
ROOT
ATOM      1  C   UNL     1       2.439   1.016  -0.016  0.00  0.00    -0.034 A 
ATOM      2  C   UNL     1       2.569   0.116  -1.062  0.00  0.00    +0.005 A 
ATOM      3  C   UNL     1       3.627  -0.767  -1.090  0.00  0.00    +0.011 A 
ATOM      4  C   UNL     1       4.562  -0.760  -0.057  0.00  0.00    +0.007 A 
ATOM      5  C   UNL     1       5.775  -1.552   0.218  0.00  0.00    +0.009 A 
ATOM      6  C   UNL     1       6.417  -2.587  -0.458  0.00  0.00    +0.030 A 
ATOM      7  C   UNL     1       7.566  -3.139   0.067  0.00  0.00    +0.042 A 
ATOM      8  C   UNL     1       8.083  -2.666   1.265  0.00  0.00    +0.022 A 
ATOM      9  C   UNL     1       7.458  -1.642   1.943  0.00  0.00    +0.027 A 
ATOM     10  C   UNL     1       6.297  -1.073   1.428  0.00  0.00    +0.048 A 
ATOM     11  N   UNL     1       5.477  -0.056   1.885  0.00  0.00    -0.354 N 
ATOM     12  H   UNL     1       5.617   0.445   2.704  0.00  0.00    +0.166 HD
ATOM     13  C   UNL     1       4.429   0.146   1.005  0.00  0.00    +0.048 A 
ATOM     14  C   UNL     1       3.357   1.034   1.012  0.00  0.00    +0.030 A 
ATOM     15 CL   UNL     1       8.369  -4.429  -0.772  0.00  0.00    -0.084 Cl
ENDROOT
BRANCH   1  17
ATOM     16  C   UNL     1       1.337   2.867  -1.245  0.00  0.00    +0.022 C 
ATOM     17  C   UNL     1       1.280   1.980   0.001  0.00  0.00    +0.102 C 
BRANCH  17  18
ATOM     18  C   UNL     1      -0.014   1.209   0.009  0.00  0.00    +0.220 C 
ATOM     19  O   UNL     1       0.002  -0.004   0.002  0.00  0.00    -0.275 OA
ATOM     20  N   UNL     1      -1.191   1.867   0.018  0.00  0.00    -0.312 N 
ATOM     21  H   UNL     1      -1.204   2.837   0.023  0.00  0.00    +0.149 HD
BRANCH  20  22
ATOM     22  C   UNL     1      -2.449   1.117   0.020  0.00  0.00    +0.137 C 
BRANCH  22  23
ATOM     23  C   UNL     1      -3.626   2.095   0.031  0.00  0.00    +0.157 C 
BRANCH  23  24
ATOM     24  O   UNL     1      -3.555   2.911   1.202  0.00  0.00    -0.388 OA
ATOM     25  H   UNL     1      -3.590   2.414   2.030  0.00  0.00    +0.210 HD
ENDBRANCH  23  24
BRANCH  23  26
ATOM     26  C   UNL     1      -4.940   1.312   0.033  0.00  0.00    +0.188 C 
BRANCH  26  27
ATOM     27  O   UNL     1      -6.037   2.222  -0.075  0.00  0.00    -0.392 OA
ATOM     28  H   UNL     1      -6.904   1.794  -0.080  0.00  0.00    +0.210 HD
ENDBRANCH  26  27
ENDBRANCH  23  26
ENDBRANCH  22  23
ENDBRANCH  20  22
ENDBRANCH  17  18
ENDBRANCH   1  17
TORSDOF 7
