REMARK  Name = ZINC32107384
REMARK  13 active torsions:
REMARK  status: ('A' for Active; 'I' for Inactive)
REMARK    1  A    between atoms: C_1  and  N_2
REMARK    2  A    between atoms: N_2  and  C_3
REMARK    3  A    between atoms: N_2  and  C_4
REMARK    4  A    between atoms: C_8  and  C_30
REMARK    5  A    between atoms: C_10  and  O_22
REMARK    6  A    between atoms: C_12  and  O_14
REMARK    7  A    between atoms: O_14  and  C_15
REMARK    8  A    between atoms: C_15  and  C_16
REMARK    9  A    between atoms: O_22  and  C_23
REMARK   10  A    between atoms: C_23  and  C_24
REMARK   11  A    between atoms: C_30  and  O_31
REMARK   12  A    between atoms: O_31  and  C_32
REMARK   13  A    between atoms: C_32  and  C_33
REMARK                            x       y       z     vdW  Elec       q    Type
REMARK                         _______ _______ _______ _____ _____    ______ ____
ROOT
ATOM      1  C   UNL     1      -1.754   9.231  -5.006  0.00  0.00    -0.011 C 
ATOM      2  C   UNL     1      -1.704   7.709  -5.166  0.00  0.00    +0.148 C 
ATOM      3  O   UNL     1      -1.442   7.106  -3.897  0.00  0.00    -0.373 OA
ATOM      4  C   UNL     1      -0.193   7.489  -3.316  0.00  0.00    +0.175 C 
ATOM      5  C   UNL     1      -0.183   9.002  -3.082  0.00  0.00    +0.177 C 
ATOM      6  C   UNL     1      -0.428   9.718  -4.413  0.00  0.00    +0.139 C 
ENDROOT
BRANCH   1   8
ATOM      7  C   UNL     1      -0.981   9.370  -7.296  0.00  0.00    -0.096 C 
ATOM      8  N   UNL     1      -1.964   9.856  -6.319  0.00  0.00    +0.381 N 
ATOM      9  C   UNL     1      -3.335   9.632  -6.795  0.00  0.00    -0.096 C 
ATOM     10  H   UNL     1      -1.819  10.940  -6.204  0.00  0.00    -0.082 HD
ENDBRANCH   1   8
BRANCH   6  11
ATOM     11  O   UNL     1      -0.493  11.129  -4.192  0.00  0.00    -0.371 OA
BRANCH  11  12
ATOM     12  C   UNL     1       0.767  11.793  -4.301  0.00  0.00    +0.195 C 
BRANCH  12  13
ATOM     13  C   UNL     1       0.581  13.267  -4.051  0.00  0.00    -0.022 A 
ATOM     14  C   UNL     1       0.308  14.119  -5.105  0.00  0.00    +0.006 A 
ATOM     15  C   UNL     1       0.134  15.470  -4.874  0.00  0.00    +0.000 A 
ATOM     16  C   UNL     1       0.241  15.972  -3.591  0.00  0.00    +0.000 A 
ATOM     17  C   UNL     1       0.519  15.121  -2.537  0.00  0.00    +0.000 A 
ATOM     18  C   UNL     1       0.689  13.769  -2.767  0.00  0.00    +0.006 A 
ENDBRANCH  12  13
ENDBRANCH  11  12
ENDBRANCH   6  11
BRANCH   5  19
ATOM     19  O   UNL     1       1.086   9.395  -2.555  0.00  0.00    -0.367 OA
BRANCH  19  20
ATOM     20  C   UNL     1       1.093   9.584  -1.138  0.00  0.00    +0.195 C 
BRANCH  20  21
ATOM     21  C   UNL     1       2.500   9.867  -0.677  0.00  0.00    -0.022 A 
ATOM     22  C   UNL     1       3.329   8.825  -0.304  0.00  0.00    +0.006 A 
ATOM     23  C   UNL     1       4.620   9.085   0.115  0.00  0.00    +0.000 A 
ATOM     24  C   UNL     1       5.080  10.388   0.170  0.00  0.00    +0.000 A 
ATOM     25  C   UNL     1       4.249  11.430  -0.198  0.00  0.00    +0.000 A 
ATOM     26  C   UNL     1       2.959  11.170  -0.621  0.00  0.00    +0.006 A 
ENDBRANCH  20  21
ENDBRANCH  19  20
ENDBRANCH   5  19
BRANCH   4  27
ATOM     27  C   UNL     1      -0.009   6.764  -1.981  0.00  0.00    +0.194 C 
BRANCH  27  28
ATOM     28  O   UNL     1       0.098   5.358  -2.213  0.00  0.00    -0.373 OA
BRANCH  28  29
ATOM     29  C   UNL     1       0.274   4.585  -1.024  0.00  0.00    +0.195 C 
BRANCH  29  30
ATOM     30  C   UNL     1       0.374   3.125  -1.385  0.00  0.00    -0.022 A 
ATOM     31  C   UNL     1       1.608   2.563  -1.656  0.00  0.00    +0.006 A 
ATOM     32  C   UNL     1       1.700   1.224  -1.986  0.00  0.00    +0.000 A 
ATOM     33  C   UNL     1       0.558   0.447  -2.045  0.00  0.00    +0.000 A 
ATOM     34  C   UNL     1      -0.676   1.010  -1.780  0.00  0.00    +0.000 A 
ATOM     35  C   UNL     1      -0.767   2.348  -1.444  0.00  0.00    +0.006 A 
ENDBRANCH  29  30
ENDBRANCH  28  29
ENDBRANCH  27  28
ENDBRANCH   4  27
TORSDOF 11
