REMARK  Name = ZINC57640810
REMARK  12 active torsions:
REMARK  status: ('A' for Active; 'I' for Inactive)
REMARK    1  A    between atoms: C_1  and  C_2
REMARK    2  A    between atoms: C_2  and  C_3
REMARK    3  A    between atoms: C_3  and  C_5
REMARK    4  A    between atoms: C_3  and  N_18
REMARK    5  A    between atoms: N_9  and  C_10
REMARK    6  A    between atoms: C_10  and  C_11
REMARK    7  A    between atoms: N_18  and  C_19
REMARK    8  A    between atoms: N_18  and  C_27
REMARK    9  A    between atoms: C_19  and  C_20
REMARK   10  A    between atoms: C_23  and  C_26
REMARK   11  A    between atoms: C_27  and  C_28
REMARK   12  A    between atoms: C_33  and  C_40
REMARK                            x       y       z     vdW  Elec       q    Type
REMARK                         _______ _______ _______ _____ _____    ______ ____
ROOT
ATOM      1  N   UNL     1      -2.059  -0.316   1.384  0.00  0.00    -0.284 NA
ENDROOT
BRANCH   1   2
ATOM      2  C   UNL     1      -1.720  -0.634  -0.009  0.00  0.00    +0.127 C 
BRANCH   2   3
ATOM      3  C   UNL     1      -2.923  -0.396  -0.886  0.00  0.00    +0.169 A 
ATOM      4  N   UNL     1      -4.157  -0.759  -0.636  0.00  0.00    -0.112 NA
ATOM      5  N   UNL     1      -4.892  -0.375  -1.622  0.00  0.00    -0.023 NA
ATOM      6  N   UNL     1      -4.158   0.222  -2.495  0.00  0.00    -0.044 NA
ATOM      7  N   UNL     1      -2.938   0.234  -2.075  0.00  0.00    -0.223 N 
BRANCH   7   8
ATOM      8  C   UNL     1      -1.787   0.821  -2.764  0.00  0.00    +0.182 C 
BRANCH   8   9
ATOM      9  C   UNL     1      -1.156  -0.214  -3.659  0.00  0.00    -0.026 A 
ATOM     10  C   UNL     1      -0.158  -1.036  -3.169  0.00  0.00    +0.008 A 
ATOM     11  C   UNL     1       0.421  -1.985  -3.989  0.00  0.00    +0.038 A 
ATOM     12  C   UNL     1       0.001  -2.114  -5.302  0.00  0.00    +0.123 A 
ATOM     13  C   UNL     1      -0.999  -1.291  -5.792  0.00  0.00    +0.038 A 
ATOM     14  C   UNL     1      -1.580  -0.345  -4.968  0.00  0.00    +0.008 A 
ATOM     15  F   UNL     1       0.566  -3.042  -6.105  0.00  0.00    -0.205 F 
ENDBRANCH   8   9
ENDBRANCH   7   8
ENDBRANCH   2   3
BRANCH   2  17
ATOM     16  C   UNL     1      -0.009  -2.316   0.687  0.00  0.00    +0.006 C 
ATOM     17  C   UNL     1      -1.298  -2.101  -0.109  0.00  0.00    +0.023 C 
ENDBRANCH   2  17
ENDBRANCH   1   2
BRANCH   1  18
ATOM     18  C   UNL     1      -3.268  -1.035   1.809  0.00  0.00    +0.120 C 
BRANCH  18  19
ATOM     19  C   UNL     1      -3.361  -1.017   3.313  0.00  0.00    -0.033 A 
ATOM     20  C   UNL     1      -2.678  -1.960   4.059  0.00  0.00    +0.005 A 
ATOM     21  C   UNL     1      -2.763  -1.944   5.439  0.00  0.00    +0.003 A 
ATOM     22  C   UNL     1      -3.530  -0.984   6.072  0.00  0.00    -0.050 A 
ATOM     23  C   UNL     1      -4.212  -0.041   5.327  0.00  0.00    +0.003 A 
ATOM     24  C   UNL     1      -4.124  -0.055   3.947  0.00  0.00    +0.005 A 
ATOM     25  C   UNL     1      -3.624  -0.967   7.576  0.00  0.00    +0.044 C 
ENDBRANCH  18  19
ENDBRANCH   1  18
BRANCH   1  26
ATOM     26  C   UNL     1      -2.216   1.133   1.571  0.00  0.00    +0.126 C 
BRANCH  26  27
ATOM     27  C   UNL     1      -0.857   1.783   1.612  0.00  0.00    +0.031 A 
ATOM     28  C   UNL     1      -0.349   2.358   0.494  0.00  0.00    +0.020 A 
ATOM     29  C   UNL     1       0.973   2.982   0.567  0.00  0.00    -0.001 A 
ATOM     30  C   UNL     1       1.549   3.591  -0.553  0.00  0.00    +0.010 A 
ATOM     31  C   UNL     1       2.784   4.165  -0.452  0.00  0.00    +0.004 A 
ATOM     32  C   UNL     1       3.474   4.149   0.753  0.00  0.00    -0.048 A 
ATOM     33  C   UNL     1       2.926   3.555   1.869  0.00  0.00    +0.029 A 
ATOM     34  C   UNL     1       1.669   2.965   1.790  0.00  0.00    +0.049 A 
ATOM     35  N   UNL     1       1.097   2.364   2.891  0.00  0.00    -0.322 N 
ATOM     36  H   UNL     1       1.577   2.353   3.734  0.00  0.00    +0.169 HD
ATOM     37  C   UNL     1      -0.121   1.798   2.816  0.00  0.00    +0.254 A 
ATOM     38  O   UNL     1      -0.598   1.280   3.811  0.00  0.00    -0.268 OA
ATOM     39  C   UNL     1       4.835   4.789   0.841  0.00  0.00    +0.044 C 
ENDBRANCH  26  27
ENDBRANCH   1  26
TORSDOF 9
