REMARK  Name = ZINC06372888
REMARK  8 active torsions:
REMARK  status: ('A' for Active; 'I' for Inactive)
REMARK    1  A    between atoms: C_1  and  O_2
REMARK    2  A    between atoms: O_2  and  C_3
REMARK    3  A    between atoms: C_6  and  C_9
REMARK    4  A    between atoms: C_17  and  S_29
REMARK    5  A    between atoms: C_19  and  C_21
REMARK    6  A    between atoms: C_24  and  O_27
REMARK    7  A    between atoms: O_27  and  C_28
REMARK    8  A    between atoms: S_29  and  C_30
REMARK                            x       y       z     vdW  Elec       q    Type
REMARK                         _______ _______ _______ _____ _____    ______ ____
ROOT
ATOM      1  C   UNL     1      -0.013   1.076   0.008  0.00  0.00    +0.013 C 
ATOM      2  C   UNL     1       1.137   1.751  -0.159  0.00  0.00    -0.023 C 
ATOM      3  C   UNL     1       1.135   3.240  -0.430  0.00  0.00    +0.037 C 
ATOM      4  C   UNL     1       2.193   3.502  -1.511  0.00  0.00    +0.009 C 
ATOM      5  C   UNL     1       3.564   3.111  -0.966  0.00  0.00    +0.035 C 
ATOM      6  C   UNL     1       3.570   1.700  -0.447  0.00  0.00    -0.022 C 
ATOM      7  C   UNL     1       2.444   1.063  -0.076  0.00  0.00    +0.045 C 
ATOM      8  N   UNL     1       2.481  -0.226   0.382  0.00  0.00    -0.338 N 
ATOM      9  C   UNL     1       3.550  -0.974   0.250  0.00  0.00    +0.133 C 
ATOM     10  N   UNL     1       4.655  -0.461  -0.395  0.00  0.00    -0.315 N 
ATOM     11  C   UNL     1       4.898   0.984  -0.311  0.00  0.00    +0.131 C 
ATOM     12  H   UNL     1       5.346  -1.102  -0.962  0.00  0.00    +0.149 HD
ATOM     13  H   UNL     1       1.583  -0.632   0.870  0.00  0.00    +0.168 HD
ENDROOT
BRANCH   1  17
ATOM     14  C   UNL     1      -3.692   3.177   0.249  0.00  0.00    +0.120 A 
ATOM     15  C   UNL     1      -3.652   1.915  -0.330  0.00  0.00    +0.046 A 
ATOM     16  C   UNL     1      -2.460   1.229  -0.411  0.00  0.00    +0.011 A 
ATOM     17  C   UNL     1      -1.290   1.805   0.091  0.00  0.00    -0.024 A 
ATOM     18  C   UNL     1      -1.336   3.073   0.678  0.00  0.00    +0.011 A 
ATOM     19  C   UNL     1      -2.532   3.754   0.750  0.00  0.00    +0.046 A 
BRANCH  14  21
ATOM     20  C   UNL     1      -4.840   5.143   0.934  0.00  0.00    +0.277 C 
ATOM     21  O   UNL     1      -4.870   3.850   0.326  0.00  0.00    -0.495 OA
ENDBRANCH  14  21
ENDBRANCH   1  17
BRANCH  11  22
ATOM     22  C   UNL     1       5.513   1.303   1.028  0.00  0.00    -0.023 A 
ATOM     23  C   UNL     1       5.077   0.643   2.162  0.00  0.00    +0.009 A 
ATOM     24  C   UNL     1       5.643   0.930   3.390  0.00  0.00    +0.046 A 
ATOM     25  C   UNL     1       6.641   1.888   3.485  0.00  0.00    +0.120 A 
ATOM     26  C   UNL     1       7.073   2.553   2.346  0.00  0.00    +0.046 A 
ATOM     27  C   UNL     1       6.508   2.258   1.120  0.00  0.00    +0.009 A 
BRANCH  25  28
ATOM     28  O   UNL     1       7.196   2.176   4.692  0.00  0.00    -0.495 OA
ATOM     29  C   UNL     1       6.702   1.453   5.821  0.00  0.00    +0.277 C 
ENDBRANCH  25  28
ENDBRANCH  11  22
BRANCH   9  30
ATOM     30  S   UNL     1       3.575  -2.615   0.891  0.00  0.00    -0.096 S 
ATOM     31  C   UNL     1       1.908  -2.703   1.592  0.00  0.00    +0.092 C 
ENDBRANCH   9  30
TORSDOF 5
