REMARK  Name = ZINC57874374
REMARK  7 active torsions:
REMARK  status: ('A' for Active; 'I' for Inactive)
REMARK    1  A    between atoms: C_1  and  C_2
REMARK    2  A    between atoms: C_2  and  C_3
REMARK    3  A    between atoms: C_2  and  C_4
REMARK    4  A    between atoms: C_2  and  C_5
REMARK    5  A    between atoms: N_13  and  C_14
REMARK    6  A    between atoms: C_14  and  C_15
REMARK    7  A    between atoms: C_15  and  C_16
REMARK                            x       y       z     vdW  Elec       q    Type
REMARK                         _______ _______ _______ _____ _____    ______ ____
ROOT
ATOM      1  C   UNL     1       0.459  -0.449  -1.526  0.00  0.00    +0.117 A 
ATOM      2  N   UNL     1      -0.228  -1.159  -2.372  0.00  0.00    -0.230 NA
ATOM      3  C   UNL     1       0.602  -1.664  -3.319  0.00  0.00    +0.110 A 
ATOM      4  C   UNL     1       0.412  -2.476  -4.441  0.00  0.00    +0.053 A 
ATOM      5  C   UNL     1       1.517  -2.803  -5.205  0.00  0.00    +0.061 A 
ATOM      6  C   UNL     1       2.766  -2.322  -4.840  0.00  0.00    +0.133 A 
ATOM      7  N   UNL     1       2.924  -1.559  -3.779  0.00  0.00    -0.234 NA
ATOM      8  C   UNL     1       1.900  -1.216  -3.014  0.00  0.00    +0.161 A 
ATOM      9  N   UNL     1       1.774  -0.445  -1.877  0.00  0.00    -0.312 N 
ATOM     10 CL   UNL     1       1.343  -3.808  -6.610  0.00  0.00    -0.082 Cl
ENDROOT
BRANCH   1  12
ATOM     11  C   UNL     1       0.007   1.782  -0.542  0.00  0.00    +0.019 C 
ATOM     12  C   UNL     1      -0.118   0.272  -0.334  0.00  0.00    +0.020 C 
ATOM     13  C   UNL     1       0.647  -0.135   0.927  0.00  0.00    +0.019 C 
ATOM     14  C   UNL     1      -1.593  -0.101  -0.178  0.00  0.00    +0.019 C 
ENDBRANCH   1  12
BRANCH   9  15
ATOM     15  C   UNL     1       2.857   0.247  -1.175  0.00  0.00    +0.123 C 
BRANCH  15  16
ATOM     16  C   UNL     1       3.559  -0.730  -0.230  0.00  0.00    +0.006 C 
BRANCH  16  17
ATOM     17  C   UNL     1       4.648   0.009   0.550  0.00  0.00    -0.070 C 
ATOM     18  C   UNL     1       5.432  -0.992   1.402  0.00  0.00    -0.016 C 
ATOM     19  C   UNL     1       6.521  -0.248   2.180  0.00  0.00    -0.003 C 
ATOM     20  C   UNL     1       5.871   0.850   3.026  0.00  0.00    -0.019 C 
ATOM     21  C   UNL     1       5.071   1.783   2.114  0.00  0.00    -0.082 C 
ATOM     22  N   UNL     1       4.029   1.017   1.419  0.00  0.00    +0.381 N 
ATOM     23  H   UNL     1       3.469   1.643   0.861  0.00  0.00    -0.086 HD
ATOM     24  H   UNL     1       3.441   0.558   2.098  0.00  0.00    -0.086 HD
ENDBRANCH  16  17
ENDBRANCH  15  16
ENDBRANCH   9  15
TORSDOF 4
