REMARK  Name = ZINC23337994
REMARK  7 active torsions:
REMARK  status: ('A' for Active; 'I' for Inactive)
REMARK    1  A    between atoms: C_6  and  N_7
REMARK    2  A    between atoms: C_10  and  C_13
REMARK    3  A    between atoms: C_13  and  N_14
REMARK    4  A    between atoms: C_16  and  C_19
REMARK    5  A    between atoms: C_19  and  N_20
REMARK    6  A    between atoms: C_24  and  C_26
REMARK    7  A    between atoms: C_26  and  O_27
REMARK                            x       y       z     vdW  Elec       q    Type
REMARK                         _______ _______ _______ _____ _____    ______ ____
ROOT
ATOM      1  N   UNL     1       6.492  -1.252  -2.079  0.00  0.00    -0.251 N 
ATOM      2  C   UNL     1       7.586  -1.261  -2.875  0.00  0.00    +0.131 A 
ATOM      3  C   UNL     1       7.350  -2.189  -3.831  0.00  0.00    +0.066 A 
ATOM      4  N   UNL     1       6.135  -2.690  -3.582  0.00  0.00    -0.136 NA
ATOM      5  N   UNL     1       5.653  -2.114  -2.538  0.00  0.00    -0.066 NA
ENDROOT
BRANCH   1   6
ATOM      6  C   UNL     1       6.293  -0.403  -0.903  0.00  0.00    +0.148 C 
BRANCH   6  10
ATOM      7  N   UNL     1       2.410   1.148  -0.015  0.00  0.00    -0.330 N 
ATOM      8  C   UNL     1       2.503   0.227  -1.155  0.00  0.00    +0.105 C 
ATOM      9  C   UNL     1       3.803  -0.575  -1.060  0.00  0.00    +0.024 C 
ATOM     10  C   UNL     1       4.993   0.389  -1.059  0.00  0.00    +0.013 C 
ATOM     11  C   UNL     1       4.846   1.368   0.109  0.00  0.00    +0.024 C 
ATOM     12  C   UNL     1       3.516   2.114  -0.021  0.00  0.00    +0.105 C 
BRANCH   7  18
ATOM     13  C   UNL     1      -0.013   1.076   0.008  0.00  0.00    +0.040 A 
ATOM     14  C   UNL     1      -1.210   1.759   0.017  0.00  0.00    +0.084 A 
ATOM     15  N   UNL     1      -1.237   3.078   0.030  0.00  0.00    -0.367 N 
ATOM     16  C   UNL     1      -0.131   3.799   0.024  0.00  0.00    +0.084 A 
ATOM     17  C   UNL     1       1.107   3.192   0.009  0.00  0.00    +0.040 A 
ATOM     18  C   UNL     1       1.180   1.799   0.001  0.00  0.00    +0.032 A 
ATOM     19  H   UNL     1      -2.200   3.609   0.048  0.00  0.00    +0.165 HD
ENDBRANCH   7  18
ENDBRANCH   6  10
ENDBRANCH   1   6
BRANCH   3  20
ATOM     20  C   UNL     1       8.271  -2.578  -4.959  0.00  0.00    -0.018 C 
BRANCH  20  21
ATOM     21  N   UNL     1       9.055  -3.757  -4.566  0.00  0.00    +0.387 N 
ATOM     22  C   UNL     1       8.199  -4.960  -4.489  0.00  0.00    -0.078 C 
ATOM     23  C   UNL     1       8.748  -5.833  -3.346  0.00  0.00    -0.020 C 
ATOM     24  C   UNL     1       9.940  -5.037  -2.767  0.00  0.00    -0.015 C 
ATOM     25  C   UNL     1       9.634  -3.584  -3.209  0.00  0.00    -0.042 C 
ATOM     26  H   UNL     1       9.836  -3.866  -5.333  0.00  0.00    -0.081 HD
BRANCH  25  27
ATOM     27  C   UNL     1      10.919  -2.756  -3.272  0.00  0.00    +0.140 C 
BRANCH  27  28
ATOM     28  O   UNL     1      11.913  -3.475  -4.004  0.00  0.00    -0.397 OA
ATOM     29  H   UNL     1      12.911  -3.035  -4.154  0.00  0.00    +0.209 HD
ENDBRANCH  27  28
ENDBRANCH  25  27
ENDBRANCH  20  21
ENDBRANCH   3  20
TORSDOF 7
