REMARK  Name = ZINC35612718
REMARK  8 active torsions:
REMARK  status: ('A' for Active; 'I' for Inactive)
REMARK    1  A    between atoms: C_1  and  N_2
REMARK    2  A    between atoms: N_2  and  C_3
REMARK    3  A    between atoms: N_2  and  C_4
REMARK    4  A    between atoms: C_4  and  C_5
REMARK    5  A    between atoms: C_5  and  N_6
REMARK    6  A    between atoms: C_7  and  C_9
REMARK    7  A    between atoms: C_16  and  C_18
REMARK    8  A    between atoms: N_23  and  C_24
REMARK                            x       y       z     vdW  Elec       q    Type
REMARK                         _______ _______ _______ _____ _____    ______ ____
ROOT
ATOM      1  C   UNL     1      -5.645  -2.376  -2.713  0.00  0.00    +0.162 C 
ATOM      2  C   UNL     1      -6.688  -1.953  -1.674  0.00  0.00    +0.032 C 
ATOM      3  C   UNL     1      -8.024  -2.628  -1.994  0.00  0.00    +0.004 C 
ATOM      4  C   UNL     1      -8.507  -2.179  -3.375  0.00  0.00    +0.019 C 
ATOM      5  C   UNL     1      -7.484  -2.604  -4.433  0.00  0.00    +0.109 C 
ATOM      6  N   UNL     1      -6.163  -2.082  -4.056  0.00  0.00    -0.285 N 
ATOM      7  C   UNL     1      -5.443  -1.343  -4.923  0.00  0.00    +0.266 C 
ATOM      8  O   UNL     1      -4.294  -1.045  -4.660  0.00  0.00    -0.268 OA
ENDROOT
BRANCH   7   9
ATOM      9  C   UNL     1      -6.048  -0.897  -6.189  0.00  0.00    +0.135 A 
ATOM     10  C   UNL     1      -5.256  -0.543  -7.253  0.00  0.00    +0.081 A 
ATOM     11  S   UNL     1      -6.498  -0.107  -8.462  0.00  0.00    -0.060 S 
ATOM     12  C   UNL     1      -7.931  -0.434  -7.446  0.00  0.00    +0.163 A 
ATOM     13  N   UNL     1      -7.375  -0.837  -6.321  0.00  0.00    -0.220 NA
ATOM     14  N   UNL     1      -9.274  -0.305  -7.760  0.00  0.00    -0.293 N 
ATOM     15  H   UNL     1      -9.947  -0.417  -7.071  0.00  0.00    +0.154 HD
BRANCH  14  16
ATOM     16  C   UNL     1      -9.660  -0.011  -9.072  0.00  0.00    +0.053 A 
ATOM     17  C   UNL     1      -8.838  -0.364 -10.135  0.00  0.00    +0.025 A 
ATOM     18  C   UNL     1      -9.222  -0.073 -11.429  0.00  0.00    +0.003 A 
ATOM     19  C   UNL     1     -10.423   0.569 -11.669  0.00  0.00    +0.021 A 
ATOM     20  C   UNL     1     -11.245   0.922 -10.614  0.00  0.00    +0.061 A 
ATOM     21  C   UNL     1     -10.870   0.628  -9.315  0.00  0.00    +0.080 A 
ATOM     22 CL   UNL     1     -11.904   1.064  -7.992  0.00  0.00    -0.080 Cl
ATOM     23 CL   UNL     1     -12.752   1.727 -10.920  0.00  0.00    -0.082 Cl
ENDBRANCH  14  16
ENDBRANCH   7   9
BRANCH   1  25
ATOM     24  N   UNL     1      -3.281  -2.242  -1.998  0.00  0.00    -0.316 N 
ATOM     25  C   UNL     1      -4.366  -1.611  -2.486  0.00  0.00    +0.234 C 
ATOM     26  O   UNL     1      -4.315  -0.427  -2.743  0.00  0.00    -0.274 OA
ATOM     27  H   UNL     1      -3.322  -3.189  -1.792  0.00  0.00    +0.149 HD
BRANCH  24  28
ATOM     28  C   UNL     1      -2.038  -1.498  -1.777  0.00  0.00    +0.085 C 
BRANCH  28  29
ATOM     29  C   UNL     1      -0.970  -2.443  -1.222  0.00  0.00    -0.061 C 
BRANCH  29  31
ATOM     30  C   UNL     1       0.065  -0.690   0.048  0.00  0.00    -0.097 C 
ATOM     31  N   UNL     1       0.276  -1.697  -1.001  0.00  0.00    +0.377 N 
ATOM     32  C   UNL     1       1.335  -2.625  -0.582  0.00  0.00    -0.097 C 
ATOM     33  H   UNL     1       0.550  -1.238  -1.857  0.00  0.00    -0.083 HD
ENDBRANCH  29  31
ENDBRANCH  28  29
ENDBRANCH  24  28
ENDBRANCH   1  25
TORSDOF 6
