REMARK  Name = ZINC20990606
REMARK  7 active torsions:
REMARK  status: ('A' for Active; 'I' for Inactive)
REMARK    1  A    between atoms: C_1  and  C_2
REMARK    2  A    between atoms: C_2  and  C_3
REMARK    3  A    between atoms: C_8  and  S_9
REMARK    4  A    between atoms: S_9  and  N_12
REMARK    5  A    between atoms: N_12  and  C_13
REMARK    6  A    between atoms: C_13  and  C_14
REMARK    7  A    between atoms: C_14  and  C_15
REMARK                            x       y       z     vdW  Elec       q    Type
REMARK                         _______ _______ _______ _____ _____    ______ ____
ROOT
ATOM      1  C   UNL     1       0.256  -0.141   0.069  0.00  0.00    -0.021 A 
ATOM      2  C   UNL     1       0.331   1.188   0.421  0.00  0.00    +0.016 A 
ATOM      3  C   UNL     1       1.570   1.821   0.478  0.00  0.00    +0.011 A 
ATOM      4  C   UNL     1       2.740   1.100   0.178  0.00  0.00    +0.049 A 
ATOM      5  C   UNL     1       2.643  -0.241  -0.174  0.00  0.00    +0.055 A 
ATOM      6  C   UNL     1       1.409  -0.853  -0.227  0.00  0.00    +0.110 A 
ATOM      7  N   UNL     1       3.814   1.962   0.312  0.00  0.00    -0.357 N 
ATOM      8  H   UNL     1       4.836   1.600   0.124  0.00  0.00    +0.166 HD
ATOM      9  C   UNL     1       3.399   3.183   0.673  0.00  0.00    +0.028 A 
ATOM     10  C   UNL     1       2.018   3.177   0.804  0.00  0.00    +0.046 A 
ATOM     11  C   UNL     1       1.282   4.324   1.185  0.00  0.00    +0.165 C 
ATOM     12  O   UNL     1       0.070   4.300   1.254  0.00  0.00    -0.292 OA
ATOM     13  C   UNL     1       2.060   5.583   1.504  0.00  0.00    +0.080 C 
ATOM     14  C   UNL     1       3.327   5.645   0.652  0.00  0.00    +0.014 C 
ATOM     15  C   UNL     1       4.219   4.427   0.923  0.00  0.00    +0.054 C 
ENDROOT
BRANCH   6  16
ATOM     16  S   UNL     1       1.296  -2.553  -0.675  0.00  0.00    +0.059 S 
ATOM     17  O   UNL     1       2.619  -2.987  -0.960  0.00  0.00    -0.153 OA
ATOM     18  O   UNL     1       0.484  -3.179   0.308  0.00  0.00    -0.153 OA
BRANCH  16  19
ATOM     19  N   UNL     1       0.456  -2.629  -2.100  0.00  0.00    -0.190 NA
ATOM     20  H   UNL     1      -0.579  -3.002  -2.095  0.00  0.00    +0.148 HD
BRANCH  19  21
ATOM     21  C   UNL     1       1.004  -2.006  -3.308  0.00  0.00    +0.113 C 
BRANCH  21  22
ATOM     22  C   UNL     1       0.275  -2.550  -4.538  0.00  0.00    +0.091 C 
BRANCH  22  23
ATOM     23  C   UNL     1       0.839  -1.909  -5.780  0.00  0.00    +0.106 A 
ATOM     24  C   UNL     1       1.868  -2.377  -6.509  0.00  0.00    +0.044 A 
ATOM     25  C   UNL     1       2.059  -1.470  -7.577  0.00  0.00    +0.041 A 
ATOM     26  C   UNL     1       1.135  -0.503  -7.437  0.00  0.00    +0.195 A 
ATOM     27  O   UNL     1       0.395  -0.777  -6.351  0.00  0.00    -0.468 OA
ENDBRANCH  22  23
ENDBRANCH  21  22
ENDBRANCH  19  21
ENDBRANCH  16  19
ENDBRANCH   6  16
BRANCH   1  29
ATOM     28  C   UNL     1      -1.429  -1.402   1.382  0.00  0.00    +0.009 C 
ATOM     29  C   UNL     1      -1.085  -0.827   0.006  0.00  0.00    +0.034 C 
ENDBRANCH   1  29
TORSDOF 6
