REMARK  Name = ZINC36302853
REMARK  18 active torsions:
REMARK  status: ('A' for Active; 'I' for Inactive)
REMARK    1  A    between atoms: C_1  and  C_2
REMARK    2  A    between atoms: C_2  and  C_3
REMARK    3  A    between atoms: C_4  and  C_23
REMARK    4  A    between atoms: C_5  and  O_14
REMARK    5  A    between atoms: N_6  and  C_8
REMARK    6  A    between atoms: O_14  and  C_15
REMARK    7  A    between atoms: C_20  and  O_21
REMARK    8  A    between atoms: O_21  and  C_22
REMARK    9  A    between atoms: C_23  and  N_24
REMARK   10  A    between atoms: N_24  and  C_25
REMARK   11  A    between atoms: N_24  and  C_29
REMARK   12  A    between atoms: C_25  and  C_26
REMARK   13  A    between atoms: C_29  and  C_30
REMARK   14  A    between atoms: C_30  and  C_32
REMARK   15  A    between atoms: C_30  and  O_37
REMARK   16  A    between atoms: C_32  and  O_33
REMARK   17  A    between atoms: O_33  and  C_34
REMARK   18  A    between atoms: C_34  and  C_35
REMARK                            x       y       z     vdW  Elec       q    Type
REMARK                         _______ _______ _______ _____ _____    ______ ____
ROOT
ATOM      1  C   UNL     1       1.698  -0.336  -1.685  0.00  0.00    +0.068 A 
ATOM      2  C   UNL     1       0.600  -0.650  -2.491  0.00  0.00    +0.021 A 
ATOM      3  C   UNL     1       1.065  -1.264  -3.611  0.00  0.00    +0.225 A 
ATOM      4  N   UNL     1       2.420  -1.332  -3.507  0.00  0.00    -0.200 N 
ATOM      5  N   UNL     1       2.786  -0.737  -2.293  0.00  0.00    -0.168 NA
ENDROOT
BRANCH   4   6
ATOM      6  C   UNL     1       3.294  -1.893  -4.449  0.00  0.00    +0.069 A 
ATOM      7  C   UNL     1       2.991  -3.112  -5.038  0.00  0.00    +0.028 A 
ATOM      8  C   UNL     1       3.854  -3.662  -5.966  0.00  0.00    +0.002 A 
ATOM      9  C   UNL     1       5.018  -2.998  -6.308  0.00  0.00    +0.000 A 
ATOM     10  C   UNL     1       5.322  -1.784  -5.722  0.00  0.00    +0.002 A 
ATOM     11  C   UNL     1       4.461  -1.226  -4.798  0.00  0.00    +0.028 A 
ENDBRANCH   4   6
BRANCH   1  13
ATOM     12  C   UNL     1       1.715   1.869  -0.550  0.00  0.00    +0.010 C 
ATOM     13  C   UNL     1       1.641   0.354  -0.347  0.00  0.00    +0.054 C 
ENDBRANCH   1  13
BRANCH   2  14
ATOM     14  C   UNL     1      -0.845  -0.359  -2.174  0.00  0.00    -0.036 C 
BRANCH  14  15
ATOM     15  N   UNL     1      -1.183   0.996  -2.630  0.00  0.00    +0.384 N 
ATOM     16  H   UNL     1      -0.537   1.657  -2.226  0.00  0.00    -0.081 HD
BRANCH  15  17
ATOM     17  C   UNL     1      -2.551   1.327  -2.208  0.00  0.00    -0.075 C 
BRANCH  17  18
ATOM     18  C   UNL     1      -2.630   1.316  -0.680  0.00  0.00    -0.028 C 
ATOM     19  C   UNL     1      -3.541   0.275  -0.027  0.00  0.00    +0.002 C 
ATOM     20  C   UNL     1      -3.949   1.749  -0.037  0.00  0.00    +0.002 C 
ENDBRANCH  17  18
ENDBRANCH  15  17
BRANCH  15  21
ATOM     21  C   UNL     1      -1.095   1.056  -4.095  0.00  0.00    -0.044 C 
BRANCH  21  22
ATOM     22  C   UNL     1      -1.257   2.505  -4.556  0.00  0.00    +0.124 C 
BRANCH  22  23
ATOM     23  O   UNL     1      -2.597   2.937  -4.310  0.00  0.00    -0.391 OA
ATOM     24  H   UNL     1      -3.269   2.414  -4.769  0.00  0.00    +0.210 HD
ENDBRANCH  22  23
BRANCH  22  25
ATOM     25  C   UNL     1      -0.958   2.600  -6.054  0.00  0.00    +0.189 C 
BRANCH  25  26
ATOM     26  O   UNL     1      -0.996   3.970  -6.461  0.00  0.00    -0.373 OA
BRANCH  26  27
ATOM     27  C   UNL     1      -0.728   4.170  -7.850  0.00  0.00    +0.186 C 
BRANCH  27  28
ATOM     28  C   UNL     1      -0.793   5.642  -8.167  0.00  0.00    -0.007 C 
ATOM     29  C   UNL     1       0.133   6.194  -8.912  0.00  0.00    +0.006 C 
ENDBRANCH  27  28
ENDBRANCH  26  27
ENDBRANCH  25  26
ENDBRANCH  22  25
ENDBRANCH  21  22
ENDBRANCH  15  21
ENDBRANCH  14  15
ENDBRANCH   2  14
BRANCH   3  30
ATOM     30  O   UNL     1       0.316  -1.726  -4.644  0.00  0.00    -0.434 OA
BRANCH  30  31
ATOM     31  C   UNL     1      -0.215  -2.973  -4.540  0.00  0.00    +0.172 A 
ATOM     32  C   UNL     1      -0.078  -3.690  -3.362  0.00  0.00    +0.050 A 
ATOM     33  C   UNL     1      -0.619  -4.958  -3.258  0.00  0.00    +0.004 A 
ATOM     34  C   UNL     1      -1.297  -5.514  -4.327  0.00  0.00    +0.004 A 
ATOM     35  C   UNL     1      -1.438  -4.804  -5.505  0.00  0.00    +0.049 A 
ATOM     36  C   UNL     1      -0.902  -3.531  -5.614  0.00  0.00    +0.162 A 
BRANCH  36  37
ATOM     37  O   UNL     1      -1.044  -2.829  -6.771  0.00  0.00    -0.491 OA
ATOM     38  C   UNL     1      -1.761  -3.464  -7.831  0.00  0.00    +0.277 C 
ENDBRANCH  36  37
ENDBRANCH  30  31
ENDBRANCH   3  30
TORSDOF 16
