REMARK  Name = ZINC35523304
REMARK  8 active torsions:
REMARK  status: ('A' for Active; 'I' for Inactive)
REMARK    1  A    between atoms: C_1  and  C_2
REMARK    2  A    between atoms: C_2  and  O_3
REMARK    3  A    between atoms: O_3  and  C_4
REMARK    4  A    between atoms: C_4  and  C_6
REMARK    5  A    between atoms: C_12  and  C_14
REMARK    6  A    between atoms: C_17  and  C_19
REMARK    7  A    between atoms: C_19  and  N_20
REMARK    8  A    between atoms: C_28  and  C_30
REMARK                            x       y       z     vdW  Elec       q    Type
REMARK                         _______ _______ _______ _____ _____    ______ ____
ROOT
ATOM      1  C   UNL     1       4.463  -6.153   3.971  0.00  0.00    +0.190 A 
ATOM      2  C   UNL     1       5.465  -7.057   4.176  0.00  0.00    +0.055 A 
ATOM      3  C   UNL     1       4.862  -8.324   4.225  0.00  0.00    +0.043 A 
ATOM      4  C   UNL     1       3.535  -8.139   4.048  0.00  0.00    +0.090 A 
ATOM      5  O   UNL     1       3.298  -6.829   3.901  0.00  0.00    -0.457 OA
ENDROOT
BRANCH   1  12
ATOM      6  C   UNL     1       1.881  -2.443   1.792  0.00  0.00    +0.101 C 
ATOM      7  C   UNL     1       3.271  -1.916   2.156  0.00  0.00    +0.033 C 
ATOM      8  C   UNL     1       3.677  -2.466   3.527  0.00  0.00    +0.109 C 
ATOM      9  N   UNL     1       3.576  -3.932   3.498  0.00  0.00    -0.295 N 
ATOM     10  C   UNL     1       2.310  -4.544   3.073  0.00  0.00    +0.109 C 
ATOM     11  C   UNL     1       1.918  -3.970   1.707  0.00  0.00    +0.033 C 
ATOM     12  C   UNL     1       4.625  -4.700   3.853  0.00  0.00    +0.282 C 
ATOM     13  O   UNL     1       5.706  -4.188   4.076  0.00  0.00    -0.267 OA
BRANCH   6  14
ATOM     14  C   UNL     1       1.463  -1.877   0.459  0.00  0.00    +0.310 C 
ATOM     15  O   UNL     1       1.220  -2.618  -0.464  0.00  0.00    -0.251 OA
BRANCH  14  16
ATOM     16  O   UNL     1       1.361  -0.548   0.297  0.00  0.00    -0.465 OA
BRANCH  16  18
ATOM     17  C   UNL     1       0.899   1.448  -0.986  0.00  0.00    +0.048 C 
ATOM     18  C   UNL     1       0.960  -0.081  -0.993  0.00  0.00    +0.229 C 
ENDBRANCH  16  18
ENDBRANCH  14  16
ENDBRANCH   6  14
ENDBRANCH   1  12
BRANCH   4  19
ATOM     19  C   UNL     1       2.492  -9.227   4.026  0.00  0.00    -0.002 C 
BRANCH  19  20
ATOM     20  N   UNL     1       1.990  -9.451   5.388  0.00  0.00    +0.394 N 
ATOM     21  C   UNL     1       3.079  -9.959   6.232  0.00  0.00    -0.055 C 
ATOM     22  C   UNL     1       2.665  -9.899   7.708  0.00  0.00    +0.103 C 
ATOM     23  N   UNL     1       1.353 -10.545   7.838  0.00  0.00    -0.353 N 
ATOM     24  C   UNL     1       0.743 -10.988   8.966  0.00  0.00    +0.086 A 
ATOM     25  C   UNL     1      -0.449 -11.519   8.619  0.00  0.00    +0.019 A 
ATOM     26  C   UNL     1      -0.577 -11.396   7.219  0.00  0.00    +0.021 A 
ATOM     27  C   UNL     1       0.534 -10.797   6.768  0.00  0.00    +0.009 A 
ATOM     28  C   UNL     1       0.888 -10.428   5.348  0.00  0.00    +0.012 C 
ATOM     29  H   UNL     1       1.651  -8.580   5.768  0.00  0.00    -0.080 HD
BRANCH  28  30
ATOM     30  C   UNL     1      -0.309  -9.817   4.668  0.00  0.00    -0.037 A 
ATOM     31  C   UNL     1      -0.418  -8.443   4.562  0.00  0.00    +0.004 A 
ATOM     32  C   UNL     1      -1.516  -7.882   3.938  0.00  0.00    +0.000 A 
ATOM     33  C   UNL     1      -2.507  -8.695   3.420  0.00  0.00    +0.001 A 
ATOM     34  C   UNL     1      -2.400 -10.068   3.524  0.00  0.00    +0.020 A 
ATOM     35  C   UNL     1      -1.298 -10.631   4.144  0.00  0.00    +0.043 A 
ATOM     36 CL   UNL     1      -1.159 -12.357   4.270  0.00  0.00    -0.083 Cl
ENDBRANCH  28  30
ENDBRANCH  19  20
ENDBRANCH   4  19
TORSDOF 7
