REMARK  Name = ZINC40826676
REMARK  7 active torsions:
REMARK  status: ('A' for Active; 'I' for Inactive)
REMARK    1  A    between atoms: C_1  and  C_2
REMARK    2  A    between atoms: C_6  and  C_12
REMARK    3  A    between atoms: C_10  and  C_11
REMARK    4  A    between atoms: C_12  and  C_13
REMARK    5  A    between atoms: N_15  and  N_16
REMARK    6  A    between atoms: C_23  and  C_29
REMARK    7  A    between atoms: C_24  and  C_26
REMARK                            x       y       z     vdW  Elec       q    Type
REMARK                         _______ _______ _______ _____ _____    ______ ____
ROOT
ATOM      1  C   UNL     1       1.489  -5.643  -1.072  0.00  0.00    +0.237 C 
ATOM      2  O   UNL     1       2.401  -4.971  -0.637  0.00  0.00    -0.274 OA
ATOM      3  N   UNL     1       1.744  -6.648  -1.933  0.00  0.00    -0.206 N 
ATOM      4  H   UNL     1       1.015  -7.185  -2.281  0.00  0.00    +0.177 HD
ENDROOT
BRANCH   3   5
ATOM      5  N   UNL     1       3.061  -6.917  -2.326  0.00  0.00    -0.184 NA
ATOM      6  C   UNL     1       3.306  -7.885  -3.155  0.00  0.00    +0.070 C 
ATOM      7  C   UNL     1       2.205  -8.758  -3.739  0.00  0.00    +0.058 C 
ATOM      8  C   UNL     1       2.688 -10.212  -3.725  0.00  0.00    +0.014 C 
ATOM      9  C   UNL     1       3.895 -10.389  -4.649  0.00  0.00    +0.075 C 
ATOM     10  C   UNL     1       4.952  -9.375  -4.293  0.00  0.00    +0.115 A 
ATOM     11  C   UNL     1       4.676  -8.216  -3.606  0.00  0.00    +0.042 A 
ATOM     12  C   UNL     1       5.881  -7.518  -3.455  0.00  0.00    +0.009 A 
ATOM     13  C   UNL     1       6.841  -8.276  -4.065  0.00  0.00    +0.193 A 
ATOM     14  O   UNL     1       6.256  -9.396  -4.557  0.00  0.00    -0.454 OA
ATOM     15  C   UNL     1       6.079  -6.194  -2.761  0.00  0.00    +0.048 C 
BRANCH  13  16
ATOM     16  C   UNL     1       8.266  -7.941  -4.159  0.00  0.00    +0.277 C 
ATOM     17  O   UNL     1       8.682  -6.908  -3.668  0.00  0.00    -0.267 OA
ATOM     18  N   UNL     1       9.115  -8.777  -4.790  0.00  0.00    -0.323 N 
ATOM     19  H   UNL     1       8.784  -9.600  -5.181  0.00  0.00    +0.145 HD
ATOM     20  H   UNL     1      10.057  -8.555  -4.852  0.00  0.00    +0.145 HD
ENDBRANCH  13  16
ENDBRANCH   3   5
BRANCH   1  21
ATOM     21  C   UNL     1       0.071  -5.354  -0.650  0.00  0.00    +0.136 C 
BRANCH  21  27
ATOM     22  C   UNL     1      -0.018   1.503   0.010  0.00  0.00    +0.044 C 
ATOM     23  C   UNL     1       0.002  -0.004   0.002  0.00  0.00    -0.044 A 
ATOM     24  C   UNL     1       0.006  -0.684  -1.207  0.00  0.00    +0.004 A 
ATOM     25  C   UNL     1       0.024  -2.051  -1.233  0.00  0.00    +0.012 A 
ATOM     26  C   UNL     1       0.039  -2.764  -0.035  0.00  0.00    +0.024 A 
ATOM     27  C   UNL     1       0.060  -4.191   0.309  0.00  0.00    +0.007 A 
ATOM     28  C   UNL     1       0.068  -4.252   1.648  0.00  0.00    +0.200 A 
ATOM     29  O   UNL     1       0.054  -3.012   2.168  0.00  0.00    -0.462 OA
ATOM     30  C   UNL     1       0.036  -2.082   1.192  0.00  0.00    +0.138 A 
ATOM     31  C   UNL     1       0.023  -0.693   1.196  0.00  0.00    -0.005 A 
ATOM     32  C   UNL     1       0.025   0.060   2.502  0.00  0.00    +0.048 C 
ENDBRANCH  21  27
ENDBRANCH   1  21
TORSDOF 4
