REMARK  Name = ZINC05246507
REMARK  9 active torsions:
REMARK  status: ('A' for Active; 'I' for Inactive)
REMARK    1  A    between atoms: C_1  and  C_2
REMARK    2  A    between atoms: C_4  and  C_29
REMARK    3  A    between atoms: C_5  and  C_9
REMARK    4  A    between atoms: C_7  and  C_8
REMARK    5  A    between atoms: C_9  and  C_11
REMARK    6  A    between atoms: C_11  and  O_12
REMARK    7  A    between atoms: O_12  and  C_13
REMARK    8  A    between atoms: C_13  and  C_15
REMARK    9  A    between atoms: C_16  and  C_28
REMARK                            x       y       z     vdW  Elec       q    Type
REMARK                         _______ _______ _______ _____ _____    ______ ____
ROOT
ATOM      1  C   UNL     1       1.001   2.041  -1.193  0.00  0.00    +0.347 C 
ATOM      2  O   UNL     1       2.041   1.410  -1.220  0.00  0.00    -0.244 OA
ENDROOT
BRANCH   1   3
ATOM      3  C   UNL     1       1.017   3.487  -1.421  0.00  0.00    +0.102 A 
ATOM      4  C   UNL     1       2.086   4.299  -1.672  0.00  0.00    -0.015 A 
ATOM      5  C   UNL     1       1.888   5.667  -1.867  0.00  0.00    +0.076 A 
ATOM      6  C   UNL     1       0.550   6.115  -1.774  0.00  0.00    +0.116 A 
ATOM      7  S   UNL     1      -0.356   4.628  -1.433  0.00  0.00    -0.062 S 
ATOM      8  N   UNL     1       0.234   7.391  -1.934  0.00  0.00    -0.226 NA
ATOM      9  C   UNL     1       1.134   8.310  -2.186  0.00  0.00    +0.114 A 
ATOM     10  N   UNL     1       2.450   8.001  -2.302  0.00  0.00    -0.296 N 
ATOM     11  C   UNL     1       2.879   6.726  -2.154  0.00  0.00    +0.263 A 
ATOM     12  O   UNL     1       4.063   6.455  -2.255  0.00  0.00    -0.267 OA
ATOM     13  C   UNL     1       3.247   9.207  -2.593  0.00  0.00    +0.127 C 
ATOM     14  C   UNL     1       2.349  10.401  -2.212  0.00  0.00    +0.029 C 
ATOM     15  C   UNL     1       0.936   9.802  -2.387  0.00  0.00    +0.076 C 
ATOM     16  C   UNL     1       3.474   3.718  -1.742  0.00  0.00    +0.046 C 
ENDBRANCH   1   3
BRANCH   1  17
ATOM     17  O   UNL     1      -0.166   1.408  -0.952  0.00  0.00    -0.453 OA
BRANCH  17  18
ATOM     18  C   UNL     1      -0.105  -0.026  -0.735  0.00  0.00    +0.311 C 
BRANCH  18  19
ATOM     19  C   UNL     1      -1.494  -0.555  -0.484  0.00  0.00    +0.201 C 
ATOM     20  O   UNL     1      -2.441   0.203  -0.488  0.00  0.00    -0.288 OA
BRANCH  19  25
ATOM     21  C   UNL     1      -2.302  -6.162   0.493  0.00  0.00    +0.044 C 
ATOM     22  C   UNL     1      -2.090  -4.692   0.237  0.00  0.00    -0.047 A 
ATOM     23  C   UNL     1      -3.153  -3.812   0.355  0.00  0.00    +0.007 A 
ATOM     24  C   UNL     1      -2.966  -2.466   0.128  0.00  0.00    -0.040 A 
ATOM     25  C   UNL     1      -1.701  -1.990  -0.234  0.00  0.00    +0.024 A 
ATOM     26  C   UNL     1      -0.633  -2.885  -0.353  0.00  0.00    +0.015 A 
ATOM     27  C   UNL     1      -0.835  -4.229  -0.117  0.00  0.00    -0.047 A 
ATOM     28  C   UNL     1       0.314  -5.195  -0.243  0.00  0.00    +0.044 C 
ATOM     29  C   UNL     1      -4.122  -1.509   0.264  0.00  0.00    +0.044 C 
ENDBRANCH  19  25
ENDBRANCH  18  19
ENDBRANCH  17  18
ENDBRANCH   1  17
TORSDOF 5
