REMARK  Name = ZINC66253045
REMARK  4 active torsions:
REMARK  status: ('A' for Active; 'I' for Inactive)
REMARK    1  A    between atoms: C_1  and  C_2
REMARK    2  A    between atoms: C_2  and  C_3
REMARK    3  A    between atoms: N_12  and  S_13
REMARK    4  A    between atoms: S_13  and  C_16
REMARK                            x       y       z     vdW  Elec       q    Type
REMARK                         _______ _______ _______ _____ _____    ______ ____
ROOT
ATOM      1  S   UNL     1      -7.681  -3.724   1.804  0.00  0.00    +0.101 S 
ATOM      2  O   UNL     1      -7.985  -3.371   0.462  0.00  0.00    -0.146 OA
ATOM      3  O   UNL     1      -6.891  -4.859   2.133  0.00  0.00    -0.146 OA
ENDROOT
BRANCH   1  12
ATOM      4  C   UNL     1      -1.433  -0.534   0.013  0.00  0.00    -0.006 C 
ATOM      5  C   UNL     1      -1.419  -2.060  -0.112  0.00  0.00    +0.010 C 
ATOM      6  C   UNL     1      -2.841  -2.575  -0.338  0.00  0.00    +0.054 C 
ATOM      7  C   UNL     1      -3.751  -2.018   0.754  0.00  0.00    +0.028 A 
ATOM      8  C   UNL     1      -3.376  -0.946   1.464  0.00  0.00    +0.013 A 
ATOM      9  S   UNL     1      -4.725  -0.677   2.585  0.00  0.00    -0.053 S 
ATOM     10  C   UNL     1      -5.751  -2.036   2.045  0.00  0.00    +0.192 A 
ATOM     11  N   UNL     1      -4.974  -2.581   1.052  0.00  0.00    -0.336 N 
ATOM     12  N   UNL     1      -6.929  -2.413   2.480  0.00  0.00    -0.103 NA
ATOM     13  C   UNL     1      -2.113  -0.154   1.337  0.00  0.00    +0.047 C 
ATOM     14  H   UNL     1      -5.284  -3.358   0.562  0.00  0.00    +0.168 HD
BRANCH   4  16
ATOM     15  C   UNL     1      -0.019   1.526   0.010  0.00  0.00    +0.004 C 
ATOM     16  C   UNL     1       0.002  -0.004   0.002  0.00  0.00    +0.000 C 
ENDBRANCH   4  16
ENDBRANCH   1  12
BRANCH   1  17
ATOM     17  C   UNL     1      -9.222  -3.925   2.633  0.00  0.00    +0.116 A 
ATOM     18  C   UNL     1      -9.297  -4.717   3.766  0.00  0.00    +0.031 A 
ATOM     19  C   UNL     1     -10.502  -4.880   4.422  0.00  0.00    +0.031 A 
ATOM     20  C   UNL     1     -11.638  -4.247   3.943  0.00  0.00    +0.087 A 
ATOM     21  C   UNL     1     -11.564  -3.449   2.801  0.00  0.00    +0.159 A 
ATOM     22  C   UNL     1     -10.350  -3.288   2.153  0.00  0.00    +0.077 A 
ATOM     23  O   UNL     1     -12.808  -2.965   2.567  0.00  0.00    -0.408 OA
ATOM     24  C   UNL     1     -13.646  -3.427   3.509  0.00  0.00    +0.419 A 
ATOM     25  O   UNL     1     -14.833  -3.175   3.578  0.00  0.00    -0.223 OA
ATOM     26  N   UNL     1     -12.966  -4.214   4.367  0.00  0.00    -0.288 N 
ATOM     27  H   UNL     1     -13.334  -4.672   5.139  0.00  0.00    +0.172 HD
ENDBRANCH   1  17
TORSDOF 3
