REMARK  Name = ZINC06664294
REMARK  11 active torsions:
REMARK  status: ('A' for Active; 'I' for Inactive)
REMARK    1  A    between atoms: C_1  and  C_2
REMARK    2  A    between atoms: C_2  and  C_3
REMARK    3  A    between atoms: C_2  and  C_4
REMARK    4  A    between atoms: C_4  and  N_5
REMARK    5  A    between atoms: N_5  and  C_6
REMARK    6  A    between atoms: C_8  and  N_23
REMARK    7  A    between atoms: C_9  and  N_22
REMARK    8  A    between atoms: N_23  and  C_24
REMARK    9  A    between atoms: N_23  and  C_25
REMARK   10  A    between atoms: C_25  and  C_26
REMARK   11  A    between atoms: C_26  and  O_27
REMARK                            x       y       z     vdW  Elec       q    Type
REMARK                         _______ _______ _______ _____ _____    ______ ____
ROOT
ATOM      1  C   UNL     1      -2.607  -2.702  -0.127  0.00  0.00    +0.041 A 
ATOM      2  C   UNL     1      -3.802  -2.065   0.207  0.00  0.00    +0.048 A 
ATOM      3  C   UNL     1      -4.995  -2.762   0.195  0.00  0.00    +0.053 A 
ATOM      4  C   UNL     1      -5.020  -4.126  -0.158  0.00  0.00    +0.058 A 
ATOM      5  C   UNL     1      -3.833  -4.774  -0.495  0.00  0.00    +0.057 A 
ATOM      6  C   UNL     1      -2.614  -4.056  -0.485  0.00  0.00    +0.056 A 
ATOM      7  C   UNL     1      -1.365  -4.738  -0.847  0.00  0.00    +0.196 C 
ATOM      8  O   UNL     1      -0.290  -4.223  -0.604  0.00  0.00    -0.287 OA
ATOM      9  C   UNL     1      -1.429  -6.059  -1.510  0.00  0.00    +0.033 A 
ATOM     10  C   UNL     1      -0.301  -6.600  -2.119  0.00  0.00    +0.012 A 
ATOM     11  C   UNL     1      -0.379  -7.837  -2.735  0.00  0.00    +0.001 A 
ATOM     12  C   UNL     1      -1.571  -8.540  -2.748  0.00  0.00    +0.001 A 
ATOM     13  C   UNL     1      -2.701  -8.016  -2.147  0.00  0.00    +0.012 A 
ATOM     14  C   UNL     1      -2.641  -6.774  -1.524  0.00  0.00    +0.033 A 
ATOM     15  C   UNL     1      -3.837  -6.199  -0.867  0.00  0.00    +0.196 C 
ATOM     16  O   UNL     1      -4.814  -6.889  -0.649  0.00  0.00    -0.287 OA
ENDROOT
BRANCH   4  17
ATOM     17  N   UNL     1      -6.220  -4.820  -0.168  0.00  0.00    -0.356 N 
ATOM     18  H   UNL     1      -6.293  -5.655  -0.656  0.00  0.00    +0.142 HD
ATOM     19  H   UNL     1      -6.987  -4.471   0.313  0.00  0.00    +0.142 HD
ENDBRANCH   4  17
BRANCH   1  20
ATOM     20  N   UNL     1      -1.416  -1.994  -0.111  0.00  0.00    -0.343 N 
ATOM     21  H   UNL     1      -0.576  -2.454  -0.268  0.00  0.00    +0.146 HD
BRANCH  20  22
ATOM     22  C   UNL     1      -1.424  -0.551   0.143  0.00  0.00    +0.104 C 
BRANCH  22  24
ATOM     23  C   UNL     1      -0.008   1.505   0.247  0.00  0.00    +0.009 C 
ATOM     24  C   UNL     1       0.010  -0.019   0.107  0.00  0.00    -0.000 C 
ATOM     25  C   UNL     1       0.810  -0.628   1.260  0.00  0.00    +0.009 C 
ENDBRANCH  22  24
ENDBRANCH  20  22
ENDBRANCH   1  20
BRANCH   3  26
ATOM     26  N   UNL     1      -6.178  -2.113   0.532  0.00  0.00    -0.329 N 
ATOM     27  C   UNL     1      -6.973  -1.453  -0.507  0.00  0.00    +0.129 C 
BRANCH  26  28
ATOM     28  C   UNL     1      -6.628  -2.089   1.926  0.00  0.00    +0.132 C 
BRANCH  28  29
ATOM     29  C   UNL     1      -6.052  -0.857   2.627  0.00  0.00    +0.174 C 
BRANCH  29  30
ATOM     30  O   UNL     1      -6.594   0.325   2.034  0.00  0.00    -0.393 OA
ATOM     31  H   UNL     1      -6.272   1.147   2.429  0.00  0.00    +0.209 HD
ENDBRANCH  29  30
ENDBRANCH  28  29
ENDBRANCH  26  28
ENDBRANCH   3  26
TORSDOF 8
