REMARK  Name = ZINC63129285
REMARK  6 active torsions:
REMARK  status: ('A' for Active; 'I' for Inactive)
REMARK    1  A    between atoms: C_4  and  C_7
REMARK    2  A    between atoms: C_9  and  C_32
REMARK    3  A    between atoms: N_11  and  C_26
REMARK    4  A    between atoms: C_12  and  S_15
REMARK    5  A    between atoms: S_15  and  C_16
REMARK    6  A    between atoms: C_16  and  C_17
REMARK                            x       y       z     vdW  Elec       q    Type
REMARK                         _______ _______ _______ _____ _____    ______ ____
ROOT
ATOM      1  C   UNL     1       3.831  -0.666  -0.136  0.00  0.00    +0.111 C 
ATOM      2  C   UNL     1       4.348  -1.193  -1.492  0.00  0.00    +0.127 C 
ATOM      3  N   UNL     1       4.719  -2.600  -1.258  0.00  0.00    -0.297 N 
ATOM      4  C   UNL     1       4.461  -2.885   0.166  0.00  0.00    +0.203 C 
ATOM      5  N   UNL     1       3.427  -1.903   0.587  0.00  0.00    -0.281 NA
ATOM      6  H   UNL     1       3.445  -1.760   1.585  0.00  0.00    +0.125 HD
ENDROOT
BRANCH   1  10
ATOM      7  C   UNL     1       0.472   1.911  -0.707  0.00  0.00    +0.000 A 
ATOM      8  C   UNL     1       1.719   2.448  -0.446  0.00  0.00    +0.000 A 
ATOM      9  C   UNL     1       2.806   1.614  -0.261  0.00  0.00    +0.005 A 
ATOM     10  C   UNL     1       2.646   0.243  -0.337  0.00  0.00    -0.028 A 
ATOM     11  C   UNL     1       1.399  -0.294  -0.597  0.00  0.00    +0.005 A 
ATOM     12  C   UNL     1       0.312   0.540  -0.783  0.00  0.00    +0.000 A 
ENDBRANCH   1  10
BRANCH   3  13
ATOM     13  C   UNL     1       5.220  -3.495  -2.207  0.00  0.00    +0.032 A 
ATOM     14  C   UNL     1       5.294  -3.124  -3.543  0.00  0.00    +0.023 A 
ATOM     15  C   UNL     1       5.791  -4.011  -4.478  0.00  0.00    +0.002 A 
ATOM     16  C   UNL     1       6.214  -5.268  -4.085  0.00  0.00    +0.000 A 
ATOM     17  C   UNL     1       6.141  -5.640  -2.755  0.00  0.00    +0.002 A 
ATOM     18  C   UNL     1       5.651  -4.756  -1.814  0.00  0.00    +0.023 A 
ENDBRANCH   3  13
BRANCH   2  19
ATOM     19  C   UNL     1       3.262  -1.105  -2.533  0.00  0.00    -0.025 A 
ATOM     20  C   UNL     1       2.332  -2.121  -2.649  0.00  0.00    +0.005 A 
ATOM     21  C   UNL     1       1.335  -2.041  -3.603  0.00  0.00    +0.000 A 
ATOM     22  C   UNL     1       1.269  -0.944  -4.442  0.00  0.00    +0.000 A 
ATOM     23  C   UNL     1       2.198   0.073  -4.325  0.00  0.00    +0.000 A 
ATOM     24  C   UNL     1       3.192  -0.006  -3.368  0.00  0.00    +0.005 A 
ENDBRANCH   2  19
BRANCH   4  25
ATOM     25  S   UNL     1       3.842  -4.578   0.366  0.00  0.00    -0.119 S 
BRANCH  25  26
ATOM     26  C   UNL     1       4.003  -4.897   2.145  0.00  0.00    +0.119 C 
BRANCH  26  27
ATOM     27  C   UNL     1       3.395  -6.261   2.475  0.00  0.00    +0.184 C 
ATOM     28  N   UNL     1       4.045  -7.309   1.677  0.00  0.00    -0.363 N 
ATOM     29  C   UNL     1       3.126  -7.867   0.943  0.00  0.00    +0.060 A 
ATOM     30  C   UNL     1       3.160  -8.955  -0.043  0.00  0.00    +0.027 A 
ATOM     31  C   UNL     1       2.022  -9.328  -0.662  0.00  0.00    +0.002 A 
ATOM     32  C   UNL     1       0.783  -8.714  -0.405  0.00  0.00    +0.002 A 
ATOM     33  C   UNL     1       0.641  -7.707   0.479  0.00  0.00    +0.027 A 
ATOM     34  C   UNL     1       1.815  -7.217   1.216  0.00  0.00    +0.060 A 
ATOM     35  N   UNL     1       1.974  -6.283   2.108  0.00  0.00    -0.363 N 
ATOM     36  H   UNL     1       4.986  -7.542   1.694  0.00  0.00    +0.162 HD
ATOM     37  H   UNL     1       1.280  -5.706   2.465  0.00  0.00    +0.162 HD
ENDBRANCH  26  27
ENDBRANCH  25  26
ENDBRANCH   4  25
TORSDOF 6
