REMARK  Name = ZINC08747550
REMARK  4 active torsions:
REMARK  status: ('A' for Active; 'I' for Inactive)
REMARK    1  A    between atoms: C_9  and  C_11
REMARK    2  A    between atoms: C_12  and  C_13
REMARK    3  A    between atoms: N_18  and  S_21
REMARK    4  A    between atoms: S_21  and  C_24
REMARK                            x       y       z     vdW  Elec       q    Type
REMARK                         _______ _______ _______ _____ _____    ______ ____
ROOT
ATOM      1  C   UNL     1       4.431  -0.590  -5.616  0.00  0.00    +0.240 C 
ATOM      2  O   UNL     1       4.353  -1.667  -6.175  0.00  0.00    -0.271 OA
ATOM      3  N   UNL     1       4.065  -0.472  -4.324  0.00  0.00    -0.295 N 
ATOM      4  C   UNL     1       4.261   0.793  -3.603  0.00  0.00    +0.125 C 
ATOM      5  C   UNL     1       5.085   0.514  -2.340  0.00  0.00    +0.128 C 
ATOM      6  N   UNL     1       4.482  -0.622  -1.627  0.00  0.00    -0.173 NA
ATOM      7  C   UNL     1       4.291  -1.889  -2.347  0.00  0.00    +0.128 C 
ATOM      8  C   UNL     1       3.462  -1.608  -3.612  0.00  0.00    +0.125 C 
ENDROOT
BRANCH   6   9
ATOM      9  S   UNL     1       4.033  -0.478  -0.040  0.00  0.00    +0.067 S 
ATOM     10  O   UNL     1       4.817   0.571   0.511  0.00  0.00    -0.152 OA
ATOM     11  O   UNL     1       4.030  -1.792   0.502  0.00  0.00    -0.152 OA
BRANCH   9  12
ATOM     12  C   UNL     1       2.361   0.078  -0.020  0.00  0.00    +0.144 A 
ATOM     13  C   UNL     1       1.220  -0.651  -0.014  0.00  0.00    +0.038 A 
ATOM     14  C   UNL     1       0.003   0.007   0.002  0.00  0.00    +0.030 A 
ATOM     15  C   UNL     1      -0.010   1.363   0.011  0.00  0.00    +0.080 A 
ATOM     16  S   UNL     1       1.733   1.749  -0.003  0.00  0.00    -0.057 S 
ATOM     17 CL   UNL     1      -1.369   2.443   0.025  0.00  0.00    -0.076 Cl
ENDBRANCH   9  12
ENDBRANCH   6   9
BRANCH   1  19
ATOM     18  C   UNL     1       5.196   0.490  -7.663  0.00  0.00    +0.033 C 
ATOM     19  C   UNL     1       4.925   0.583  -6.348  0.00  0.00    +0.069 C 
BRANCH  18  28
ATOM     20  C   UNL     1       7.244   6.151  -9.707  0.00  0.00    +0.001 A 
ATOM     21  C   UNL     1       6.951   6.204  -8.345  0.00  0.00    +0.002 A 
ATOM     22  C   UNL     1       6.495   5.107  -7.682  0.00  0.00    +0.028 A 
ATOM     23  C   UNL     1       6.312   3.897  -8.377  0.00  0.00    +0.072 A 
ATOM     24  C   UNL     1       6.611   3.846  -9.764  0.00  0.00    +0.000 A 
ATOM     25  C   UNL     1       7.081   4.999 -10.413  0.00  0.00    +0.010 A 
ATOM     26  C   UNL     1       6.429   2.637 -10.462  0.00  0.00    +0.012 A 
ATOM     27  C   UNL     1       5.970   1.554  -9.772  0.00  0.00    +0.028 A 
ATOM     28  C   UNL     1       5.692   1.668  -8.398  0.00  0.00    +0.065 A 
ATOM     29  N   UNL     1       5.861   2.809  -7.753  0.00  0.00    -0.247 NA
ENDBRANCH  18  28
ENDBRANCH   1  19
TORSDOF 4
