REMARK  Name = ZINC37711531
REMARK  9 active torsions:
REMARK  status: ('A' for Active; 'I' for Inactive)
REMARK    1  A    between atoms: C_1  and  C_2
REMARK    2  A    between atoms: C_4  and  C_7
REMARK    3  A    between atoms: C_7  and  O_8
REMARK    4  A    between atoms: O_8  and  C_9
REMARK    5  A    between atoms: C_10  and  C_17
REMARK    6  A    between atoms: C_17  and  N_18
REMARK    7  A    between atoms: N_18  and  C_19
REMARK    8  A    between atoms: C_19  and  C_20
REMARK    9  A    between atoms: C_19  and  C_21
REMARK                            x       y       z     vdW  Elec       q    Type
REMARK                         _______ _______ _______ _____ _____    ______ ____
ROOT
ATOM      1  C   UNL     1      -3.479  -3.704   0.049  0.00  0.00    +0.141 A 
ATOM      2  C   UNL     1      -4.153  -4.390  -0.950  0.00  0.00    -0.020 A 
ATOM      3  C   UNL     1      -5.144  -5.294  -0.619  0.00  0.00    +0.025 A 
ATOM      4  C   UNL     1      -5.465  -5.515   0.709  0.00  0.00    +0.043 A 
ATOM      5  C   UNL     1      -4.795  -4.832   1.707  0.00  0.00    +0.043 A 
ATOM      6  C   UNL     1      -3.798  -3.930   1.381  0.00  0.00    +0.084 A 
ATOM      7 CL   UNL     1      -2.952  -3.078   2.634  0.00  0.00    -0.080 Cl
ATOM      8 CL   UNL     1      -6.711  -6.652   1.121  0.00  0.00    -0.083 Cl
ENDROOT
BRANCH   1   9
ATOM      9  O   UNL     1      -2.504  -2.813  -0.275  0.00  0.00    -0.484 OA
BRANCH   9  10
ATOM     10  C   UNL     1      -2.893  -1.445  -0.406  0.00  0.00    +0.288 C 
BRANCH  10  14
ATOM     11  C   UNL     1       1.952  -0.049  -1.141  0.00  0.00    +0.089 C 
ATOM     12  C   UNL     1       0.454  -0.006  -0.975  0.00  0.00    +0.135 A 
ATOM     13  C   UNL     1      -0.347  -1.064  -0.747  0.00  0.00    +0.074 A 
ATOM     14  C   UNL     1      -1.671  -0.598  -0.655  0.00  0.00    +0.121 A 
ATOM     15  N   UNL     1      -1.657   0.695  -0.823  0.00  0.00    -0.080 NA
ATOM     16  O   UNL     1      -0.313   1.094  -1.023  0.00  0.00    -0.360 OA
ENDBRANCH  10  14
ENDBRANCH   9  10
ENDBRANCH   1   9
BRANCH   2  17
ATOM     17  C   UNL     1      -3.804  -4.150  -2.397  0.00  0.00    -0.043 C 
BRANCH  17  18
ATOM     18  N   UNL     1      -2.560  -4.858  -2.725  0.00  0.00    +0.383 N 
ATOM     19  H   UNL     1      -1.835  -4.580  -2.081  0.00  0.00    -0.085 HD
ATOM     20  H   UNL     1      -2.711  -5.854  -2.653  0.00  0.00    -0.085 HD
BRANCH  18  21
ATOM     21  C   UNL     1      -2.153  -4.523  -4.096  0.00  0.00    -0.078 C 
ATOM     22  C   UNL     1      -0.795  -5.161  -4.395  0.00  0.00    -0.014 C 
ATOM     23  C   UNL     1      -3.195  -5.056  -5.082  0.00  0.00    -0.014 C 
ENDBRANCH  18  21
ENDBRANCH  17  18
ENDBRANCH   2  17
TORSDOF 6
