REMARK  Name = ZINC25177689
REMARK  6 active torsions:
REMARK  status: ('A' for Active; 'I' for Inactive)
REMARK    1  A    between atoms: C_1  and  C_2
REMARK    2  A    between atoms: C_2  and  C_3
REMARK    3  A    between atoms: C_2  and  C_4
REMARK    4  A    between atoms: C_10  and  C_12
REMARK    5  A    between atoms: N_17  and  S_19
REMARK    6  A    between atoms: S_19  and  C_22
REMARK                            x       y       z     vdW  Elec       q    Type
REMARK                         _______ _______ _______ _____ _____    ______ ____
ROOT
ATOM      1  C   UNL     1      -0.729   1.579   1.268  0.00  0.00    +0.091 C 
ATOM      2  C   UNL     1      -0.013   1.086   0.008  0.00  0.00    +0.015 C 
ATOM      3  C   UNL     1      -0.752   1.593  -1.232  0.00  0.00    +0.018 C 
ATOM      4  C   UNL     1      -0.741   3.124  -1.238  0.00  0.00    +0.109 C 
ATOM      5  N   UNL     1      -1.296   3.606   0.034  0.00  0.00    -0.175 NA
ATOM      6  C   UNL     1      -0.717   3.111   1.290  0.00  0.00    +0.122 C 
ENDROOT
BRANCH   1  13
ATOM      7  C   UNL     1       1.613  -2.302   5.277  0.00  0.00    +0.053 A 
ATOM      8  C   UNL     1       2.057  -1.282   6.051  0.00  0.00    +0.072 A 
ATOM      9  S   UNL     1       1.499   0.124   5.100  0.00  0.00    -0.060 S 
ATOM     10  C   UNL     1       0.753  -0.761   3.806  0.00  0.00    +0.165 A 
ATOM     11  N   UNL     1       0.962  -2.012   4.168  0.00  0.00    -0.229 NA
ATOM     12  N   UNL     1       0.098  -0.276   2.680  0.00  0.00    -0.264 N 
ATOM     13  C   UNL     1      -0.018   1.053   2.488  0.00  0.00    +0.223 C 
ATOM     14  O   UNL     1       0.448   1.825   3.298  0.00  0.00    -0.275 OA
ATOM     15  H   UNL     1      -0.326  -0.977   1.945  0.00  0.00    +0.157 HD
BRANCH   7  17
ATOM     16  C   UNL     1       3.236  -4.176   5.197  0.00  0.00    +0.014 C 
ATOM     17  C   UNL     1       1.852  -3.735   5.678  0.00  0.00    +0.032 C 
ATOM     18  C   UNL     1       1.779  -3.857   7.202  0.00  0.00    +0.014 C 
ENDBRANCH   7  17
ENDBRANCH   1  13
BRANCH   5  19
ATOM     19  S   UNL     1      -2.550   4.688   0.052  0.00  0.00    +0.067 S 
ATOM     20  O   UNL     1      -2.485   5.364   1.300  0.00  0.00    -0.152 OA
ATOM     21  O   UNL     1      -2.509   5.377  -1.190  0.00  0.00    -0.152 OA
BRANCH  19  22
ATOM     22  C   UNL     1      -4.043   3.754   0.061  0.00  0.00    +0.144 A 
ATOM     23  C   UNL     1      -4.754   3.291   1.118  0.00  0.00    +0.037 A 
ATOM     24  C   UNL     1      -5.913   2.575   0.885  0.00  0.00    +0.025 A 
ATOM     25  C   UNL     1      -6.299   2.348  -0.395  0.00  0.00    +0.057 A 
ATOM     26  S   UNL     1      -5.009   3.165  -1.320  0.00  0.00    -0.062 S 
ATOM     27 BR   UNL     1      -7.812   1.410  -1.035  0.00  0.00    -0.043 Br
ENDBRANCH  19  22
ENDBRANCH   5  19
TORSDOF 4
