REMARK  Name = ZINC63416506
REMARK  8 active torsions:
REMARK  status: ('A' for Active; 'I' for Inactive)
REMARK    1  A    between atoms: C_1  and  C_2
REMARK    2  A    between atoms: C_5  and  O_9
REMARK    3  A    between atoms: C_7  and  C_8
REMARK    4  A    between atoms: O_9  and  C_10
REMARK    5  A    between atoms: C_10  and  C_11
REMARK    6  A    between atoms: C_11  and  O_12
REMARK    7  A    between atoms: O_12  and  C_13
REMARK    8  A    between atoms: C_16  and  C_20
REMARK                            x       y       z     vdW  Elec       q    Type
REMARK                         _______ _______ _______ _____ _____    ______ ____
ROOT
ATOM      1  C   UNL     1      -1.283  -8.085  -0.477  0.00  0.00    +0.135 A 
ATOM      2  C   UNL     1      -0.424  -9.030  -1.028  0.00  0.00    +0.047 A 
ATOM      3  C   UNL     1      -0.558 -10.351  -0.707  0.00  0.00    +0.011 A 
ATOM      4  C   UNL     1      -1.564 -10.759   0.181  0.00  0.00    -0.023 A 
ATOM      5  C   UNL     1      -2.429  -9.806   0.737  0.00  0.00    +0.027 A 
ATOM      6  C   UNL     1      -2.281  -8.476   0.410  0.00  0.00    +0.060 A 
ATOM      7 BR   UNL     1      -3.440  -7.184   1.161  0.00  0.00    -0.047 Br
ENDROOT
BRANCH   4   8
ATOM      8  C   UNL     1      -1.710 -12.175   0.526  0.00  0.00    +0.024 C 
ATOM      9  C   UNL     1      -0.594 -12.967   0.668  0.00  0.00    +0.081 C 
ATOM     10  C   UNL     1      -0.694 -14.447   0.817  0.00  0.00    +0.144 C 
ATOM     11  N   UNL     1      -1.673 -15.040   1.447  0.00  0.00    -0.282 NA
ATOM     12  N   UNL     1       0.371 -15.144   0.212  0.00  0.00    -0.285 N 
ATOM     13  C   UNL     1       0.229 -16.333  -0.269  0.00  0.00    +0.079 C 
ATOM     14  C   UNL     1       1.457 -16.973  -0.903  0.00  0.00    +0.122 C 
ATOM     15  S   UNL     1       2.725 -15.728  -0.406  0.00  0.00    -0.084 S 
ATOM     16  C   UNL     1       1.575 -14.474   0.113  0.00  0.00    +0.167 C 
ATOM     17  N   UNL     1       1.802 -13.206   0.342  0.00  0.00    -0.152 NA
ATOM     18  C   UNL     1       0.776 -12.396   0.674  0.00  0.00    +0.273 C 
ATOM     19  O   UNL     1       0.970 -11.231   0.975  0.00  0.00    -0.268 OA
ATOM     20  H   UNL     1      -2.383 -14.513   1.847  0.00  0.00    +0.188 HD
ENDBRANCH   4   8
BRANCH   1  21
ATOM     21  O   UNL     1      -1.143  -6.774  -0.801  0.00  0.00    -0.487 OA
BRANCH  21  22
ATOM     22  C   UNL     1      -0.098  -6.441  -1.717  0.00  0.00    +0.270 C 
BRANCH  22  23
ATOM     23  C   UNL     1      -0.096  -4.930  -1.959  0.00  0.00    +0.270 C 
BRANCH  23  24
ATOM     24  O   UNL     1       0.236  -4.253  -0.745  0.00  0.00    -0.489 OA
BRANCH  24  29
ATOM     25  C   UNL     1       0.424   1.373  -0.923  0.00  0.00    +0.044 C 
ATOM     26  C   UNL     1       0.374  -0.132  -0.875  0.00  0.00    -0.047 A 
ATOM     27  C   UNL     1       0.060  -0.849  -2.016  0.00  0.00    +0.007 A 
ATOM     28  C   UNL     1       0.013  -2.228  -1.975  0.00  0.00    +0.046 A 
ATOM     29  C   UNL     1       0.282  -2.896  -0.788  0.00  0.00    +0.121 A 
ATOM     30  C   UNL     1       0.596  -2.175   0.354  0.00  0.00    +0.049 A 
ATOM     31  C   UNL     1       0.647  -0.795   0.307  0.00  0.00    -0.044 A 
ATOM     32  C   UNL     1       0.994  -0.011   1.546  0.00  0.00    +0.044 C 
ENDBRANCH  24  29
ENDBRANCH  23  24
ENDBRANCH  22  23
ENDBRANCH  21  22
ENDBRANCH   1  21
TORSDOF 6
