REMARK  Name = ZINC01058974
REMARK  7 active torsions:
REMARK  status: ('A' for Active; 'I' for Inactive)
REMARK    1  A    between atoms: C_1  and  C_2
REMARK    2  A    between atoms: C_9  and  N_29
REMARK    3  A    between atoms: C_10  and  C_27
REMARK    4  A    between atoms: C_11  and  C_13
REMARK    5  A    between atoms: C_15  and  C_18
REMARK    6  A    between atoms: C_18  and  S_19
REMARK    7  A    between atoms: S_19  and  C_20
REMARK                            x       y       z     vdW  Elec       q    Type
REMARK                         _______ _______ _______ _____ _____    ______ ____
ROOT
ATOM      1  C   UNL     1      -2.505  -4.139  -2.910  0.00  0.00    +0.065 C 
ATOM      2  C   UNL     1      -3.944  -4.114  -2.461  0.00  0.00    +0.041 A 
ATOM      3  C   UNL     1      -4.672  -3.019  -2.197  0.00  0.00    +0.049 A 
ATOM      4  C   UNL     1      -5.965  -3.434  -1.809  0.00  0.00    +0.245 A 
ATOM      5  N   UNL     1      -5.997  -4.734  -1.843  0.00  0.00    -0.135 NA
ATOM      6  N   UNL     1      -4.734  -5.192  -2.251  0.00  0.00    -0.278 N 
ATOM      7  H   UNL     1      -4.465  -6.149  -2.367  0.00  0.00    +0.189 HD
ATOM      8  O   UNL     1      -6.939  -2.544  -1.479  0.00  0.00    -0.421 OA
ATOM      9  C   UNL     1      -6.728  -1.250  -1.788  0.00  0.00    +0.201 C 
ATOM     10  C   UNL     1      -5.537  -0.736  -2.159  0.00  0.00    +0.099 C 
ATOM     11  C   UNL     1      -4.281  -1.564  -2.267  0.00  0.00    +0.108 C 
ENDROOT
BRANCH  11  12
ATOM     12  C   UNL     1      -3.352  -1.231  -1.129  0.00  0.00    +0.003 A 
ATOM     13  C   UNL     1      -2.081  -0.762  -1.173  0.00  0.00    +0.016 A 
ATOM     14  C   UNL     1      -1.412  -0.526   0.013  0.00  0.00    -0.030 A 
ATOM     15  C   UNL     1      -2.044  -0.775   1.185  0.00  0.00    +0.050 A 
ATOM     16  S   UNL     1      -3.639  -1.353   0.629  0.00  0.00    -0.100 S 
BRANCH  14  17
ATOM     17  C   UNL     1       0.002  -0.004   0.002  0.00  0.00    +0.110 C 
BRANCH  17  18
ATOM     18  S   UNL     1      -0.022   1.810   0.012  0.00  0.00    -0.121 S 
BRANCH  18  19
ATOM     19  C   UNL     1       1.681   2.259  -0.002  0.00  0.00    +0.008 A 
ATOM     20  C   UNL     1       2.661   1.274  -0.011  0.00  0.00    +0.016 A 
ATOM     21  C   UNL     1       3.995   1.629  -0.027  0.00  0.00    +0.021 A 
ATOM     22  C   UNL     1       4.357   2.965  -0.023  0.00  0.00    +0.041 A 
ATOM     23  C   UNL     1       3.384   3.949  -0.009  0.00  0.00    +0.021 A 
ATOM     24  C   UNL     1       2.047   3.600   0.002  0.00  0.00    +0.016 A 
ATOM     25 CL   UNL     1       6.036   3.408  -0.037  0.00  0.00    -0.084 Cl
ENDBRANCH  18  19
ENDBRANCH  17  18
ENDBRANCH  14  17
ENDBRANCH  11  12
BRANCH   9  26
ATOM     26  N   UNL     1      -7.799  -0.394  -1.721  0.00  0.00    -0.328 N 
ATOM     27  H   UNL     1      -8.671  -0.728  -1.458  0.00  0.00    +0.145 HD
ATOM     28  H   UNL     1      -7.684   0.545  -1.937  0.00  0.00    +0.145 HD
ENDBRANCH   9  26
BRANCH  10  29
ATOM     29  C   UNL     1      -5.460   0.661  -2.464  0.00  0.00    +0.101 C 
ATOM     30  N   UNL     1      -5.400   1.770  -2.705  0.00  0.00    -0.191 NA
ENDBRANCH  10  29
TORSDOF 6
