REMARK  Name = ZINC34905076
REMARK  8 active torsions:
REMARK  status: ('A' for Active; 'I' for Inactive)
REMARK    1  A    between atoms: C_4  and  O_7
REMARK    2  A    between atoms: O_7  and  C_8
REMARK    3  A    between atoms: C_8  and  C_9
REMARK    4  A    between atoms: C_11  and  C_14
REMARK    5  A    between atoms: N_16  and  C_17
REMARK    6  A    between atoms: C_23  and  N_25
REMARK    7  A    between atoms: C_26  and  C_28
REMARK    8  A    between atoms: C_32  and  N_34
REMARK                            x       y       z     vdW  Elec       q    Type
REMARK                         _______ _______ _______ _____ _____    ______ ____
ROOT
ATOM      1  C   UNL     1       8.364  -4.005   4.171  0.00  0.00    +0.093 C 
ATOM      2  C   UNL     1       9.299  -2.832   4.472  0.00  0.00    +0.024 C 
ATOM      3  C   UNL     1      10.254  -3.218   5.602  0.00  0.00    +0.002 C 
ATOM      4  C   UNL     1       9.448  -3.562   6.856  0.00  0.00    +0.002 C 
ATOM      5  C   UNL     1       8.513  -4.736   6.556  0.00  0.00    +0.024 C 
ATOM      6  C   UNL     1       7.558  -4.349   5.425  0.00  0.00    +0.093 C 
ENDROOT
BRANCH   1   9
ATOM      7  C   UNL     1       7.832  -3.779   1.804  0.00  0.00    +0.263 C 
ATOM      8  O   UNL     1       8.937  -4.215   1.544  0.00  0.00    -0.269 OA
ATOM      9  N   UNL     1       7.449  -3.635   3.088  0.00  0.00    -0.305 N 
ATOM     10  H   UNL     1       6.568  -3.287   3.296  0.00  0.00    +0.149 HD
BRANCH   7  13
ATOM     11  C   UNL     1       4.932  -2.615  -0.061  0.00  0.00    +0.116 A 
ATOM     12  N   UNL     1       5.689  -2.923   0.957  0.00  0.00    -0.236 NA
ATOM     13  C   UNL     1       6.912  -3.407   0.716  0.00  0.00    +0.133 A 
ATOM     14  C   UNL     1       7.259  -3.536  -0.603  0.00  0.00    +0.080 A 
ATOM     15  S   UNL     1       5.881  -2.991  -1.394  0.00  0.00    -0.076 S 
BRANCH  11  16
ATOM     16  C   UNL     1       3.531  -2.060  -0.044  0.00  0.00    +0.291 C 
BRANCH  16  17
ATOM     17  O   UNL     1       3.586  -0.632  -0.037  0.00  0.00    -0.485 OA
BRANCH  17  21
ATOM     18  C   UNL     1      -0.017   1.378   0.010  0.00  0.00    +0.000 A 
ATOM     19  C   UNL     1       1.170   2.088   0.002  0.00  0.00    +0.004 A 
ATOM     20  C   UNL     1       2.377   1.417  -0.013  0.00  0.00    +0.045 A 
ATOM     21  C   UNL     1       2.399   0.030  -0.021  0.00  0.00    +0.121 A 
ATOM     22  C   UNL     1       1.207  -0.680  -0.013  0.00  0.00    +0.045 A 
ATOM     23  C   UNL     1       0.002  -0.004   0.002  0.00  0.00    +0.004 A 
ENDBRANCH  17  21
ENDBRANCH  16  17
ENDBRANCH  11  16
ENDBRANCH   7  13
ENDBRANCH   1   9
BRANCH   6  24
ATOM     24  N   UNL     1       6.766  -3.185   5.831  0.00  0.00    -0.307 N 
ATOM     25  C   UNL     1       5.639  -3.355   6.551  0.00  0.00    +0.244 C 
ATOM     26  O   UNL     1       5.280  -4.473   6.863  0.00  0.00    -0.270 OA
ATOM     27  H   UNL     1       7.052  -2.293   5.582  0.00  0.00    +0.149 HD
BRANCH  25  28
ATOM     28  C   UNL     1       4.840  -2.180   6.961  0.00  0.00    +0.039 A 
ATOM     29  C   UNL     1       5.246  -0.895   6.599  0.00  0.00    +0.013 A 
ATOM     30  C   UNL     1       4.496   0.196   6.984  0.00  0.00    +0.003 A 
ATOM     31  C   UNL     1       3.343   0.019   7.728  0.00  0.00    +0.033 A 
ATOM     32  C   UNL     1       2.935  -1.252   8.091  0.00  0.00    +0.127 A 
ATOM     33  C   UNL     1       3.673  -2.353   7.707  0.00  0.00    +0.045 A 
BRANCH  32  34
ATOM     34  N   UNL     1       1.700  -1.432   8.887  0.00  0.00    +0.056 N 
ATOM     35  O   UNL     1       1.050  -0.469   9.220  0.00  0.00    -0.126 OA
ATOM     36  O   UNL     1       1.342  -2.542   9.205  0.00  0.00    -0.126 OA
ENDBRANCH  32  34
ENDBRANCH  25  28
ENDBRANCH   6  24
TORSDOF 8
