REMARK  Name = ZINC20283577
REMARK  7 active torsions:
REMARK  status: ('A' for Active; 'I' for Inactive)
REMARK    1  A    between atoms: C_1  and  C_2
REMARK    2  A    between atoms: C_4  and  C_19
REMARK    3  A    between atoms: C_6  and  C_18
REMARK    4  A    between atoms: N_8  and  C_11
REMARK    5  A    between atoms: N_21  and  C_22
REMARK    6  A    between atoms: C_22  and  C_23
REMARK    7  A    between atoms: C_23  and  C_24
REMARK                            x       y       z     vdW  Elec       q    Type
REMARK                         _______ _______ _______ _____ _____    ______ ____
ROOT
ATOM      1  C   UNL     1      -5.945   1.258   3.104  0.00  0.00    +0.065 C 
ATOM      2  C   UNL     1      -4.652   1.637   2.428  0.00  0.00    +0.041 A 
ATOM      3  C   UNL     1      -4.468   1.316   1.091  0.00  0.00    +0.037 A 
ATOM      4  C   UNL     1      -3.275   1.664   0.463  0.00  0.00    +0.051 A 
ATOM      5  C   UNL     1      -2.298   2.337   1.230  0.00  0.00    +0.054 A 
ATOM      6  C   UNL     1      -1.008   2.836   0.951  0.00  0.00    +0.070 A 
ATOM      7  N   UNL     1      -0.531   3.385   2.033  0.00  0.00    -0.169 NA
ATOM      8  N   UNL     1      -1.464   3.275   3.070  0.00  0.00    -0.212 N 
ATOM      9  C   UNL     1      -2.569   2.621   2.584  0.00  0.00    +0.165 A 
ATOM     10  N   UNL     1      -3.724   2.257   3.123  0.00  0.00    -0.232 NA
ATOM     11  C   UNL     1      -0.301   2.754  -0.377  0.00  0.00    +0.068 C 
ENDROOT
BRANCH   8  12
ATOM     12  C   UNL     1      -1.300   3.751   4.378  0.00  0.00    +0.086 A 
ATOM     13  C   UNL     1      -2.300   4.507   4.974  0.00  0.00    +0.029 A 
ATOM     14  C   UNL     1      -2.135   4.974   6.263  0.00  0.00    +0.002 A 
ATOM     15  C   UNL     1      -0.975   4.691   6.960  0.00  0.00    +0.002 A 
ATOM     16  C   UNL     1       0.024   3.938   6.370  0.00  0.00    +0.022 A 
ATOM     17  C   UNL     1      -0.137   3.462   5.083  0.00  0.00    +0.066 A 
ATOM     18 CL   UNL     1       1.113   2.511   4.345  0.00  0.00    -0.081 Cl
ENDBRANCH   8  12
BRANCH   4  19
ATOM     19  C   UNL     1      -3.038   1.340  -0.960  0.00  0.00    +0.245 C 
ATOM     20  O   UNL     1      -1.917   1.070  -1.344  0.00  0.00    -0.270 OA
ATOM     21  N   UNL     1      -4.066   1.344  -1.832  0.00  0.00    -0.311 N 
ATOM     22  H   UNL     1      -5.081   1.588  -1.485  0.00  0.00    +0.149 HD
BRANCH  21  23
ATOM     23  C   UNL     1      -3.832   1.022  -3.242  0.00  0.00    +0.109 C 
BRANCH  23  24
ATOM     24  C   UNL     1      -5.153   1.098  -4.009  0.00  0.00    +0.049 C 
BRANCH  24  25
ATOM     25  C   UNL     1      -4.912   0.767  -5.459  0.00  0.00    -0.072 C 
ATOM     26  C   UNL     1      -5.102  -0.454  -5.843  0.00  0.00    -0.028 C 
ATOM     27  C   UNL     1      -4.894  -0.936  -7.249  0.00  0.00    +0.027 C 
ATOM     28  C   UNL     1      -4.852   0.252  -8.212  0.00  0.00    +0.004 C 
ATOM     29  C   UNL     1      -3.875   1.295  -7.655  0.00  0.00    +0.005 C 
ATOM     30  C   UNL     1      -4.473   1.876  -6.370  0.00  0.00    +0.030 C 
ENDBRANCH  24  25
ENDBRANCH  23  24
ENDBRANCH  21  23
ENDBRANCH   4  19
TORSDOF 5
