REMARK  Name = ZINC64871076
REMARK  7 active torsions:
REMARK  status: ('A' for Active; 'I' for Inactive)
REMARK    1  A    between atoms: C_1  and  C_2
REMARK    2  A    between atoms: C_2  and  O_3
REMARK    3  A    between atoms: O_3  and  C_4
REMARK    4  A    between atoms: C_9  and  C_10
REMARK    5  A    between atoms: C_13  and  C_17
REMARK    6  A    between atoms: N_27  and  C_30
REMARK    7  A    between atoms: C_30  and  C_31
REMARK                            x       y       z     vdW  Elec       q    Type
REMARK                         _______ _______ _______ _____ _____    ______ ____
ROOT
ATOM      1  C   UNL     1       1.736  -1.159   7.031  0.00  0.00    -0.000 A 
ATOM      2  C   UNL     1       3.100  -1.299   7.235  0.00  0.00    +0.008 A 
ATOM      3  C   UNL     1       3.623  -1.258   8.511  0.00  0.00    +0.016 A 
ATOM      4  C   UNL     1       2.770  -1.075   9.596  0.00  0.00    +0.063 A 
ATOM      5  C   UNL     1       1.387  -0.934   9.388  0.00  0.00    +0.056 A 
ATOM      6  C   UNL     1       0.880  -0.972   8.098  0.00  0.00    +0.034 A 
ATOM      7  N   UNL     1       0.562  -0.753  10.489  0.00  0.00    -0.307 N 
ATOM      8  H   UNL     1      -0.395  -0.654  10.361  0.00  0.00    +0.170 HD
ATOM      9  C   UNL     1       1.075  -0.713  11.730  0.00  0.00    +0.330 A 
ATOM     10  O   UNL     1       0.317  -0.553  12.668  0.00  0.00    -0.246 OA
ATOM     11  N   UNL     1       2.387  -0.843  11.980  0.00  0.00    -0.256 N 
ATOM     12  C   UNL     1       3.276  -1.023  10.980  0.00  0.00    +0.265 A 
ATOM     13  O   UNL     1       4.464  -1.140  11.214  0.00  0.00    -0.267 OA
ENDROOT
BRANCH   1  16
ATOM     14  C   UNL     1       2.055  -1.434   3.442  0.00  0.00    +0.184 C 
ATOM     15  N   UNL     1       2.021  -2.076   4.774  0.00  0.00    -0.265 NA
ATOM     16  C   UNL     1       1.182  -1.206   5.630  0.00  0.00    +0.242 C 
ATOM     17  O   UNL     1       1.256   0.099   5.013  0.00  0.00    -0.274 OA
ATOM     18  N   UNL     1       1.239  -0.203   3.564  0.00  0.00    -0.177 NA
ATOM     19  H   UNL     1       1.635  -3.007   4.716  0.00  0.00    +0.127 HD
ATOM     20  H   UNL     1       1.643   0.552   3.031  0.00  0.00    +0.156 HD
BRANCH  14  26
ATOM     21  C   UNL     1       2.267  -3.265   1.741  0.00  0.00    +0.126 A 
ATOM     22  C   UNL     1       1.715  -4.113   0.792  0.00  0.00    +0.046 A 
ATOM     23  C   UNL     1       0.365  -4.044   0.508  0.00  0.00    +0.004 A 
ATOM     24  C   UNL     1      -0.436  -3.130   1.168  0.00  0.00    +0.001 A 
ATOM     25  C   UNL     1       0.112  -2.284   2.114  0.00  0.00    +0.010 A 
ATOM     26  C   UNL     1       1.460  -2.353   2.406  0.00  0.00    +0.028 A 
BRANCH  21  27
ATOM     27  O   UNL     1       3.595  -3.331   2.023  0.00  0.00    -0.492 OA
BRANCH  27  29
ATOM     28  C   UNL     1       5.825  -4.221   1.750  0.00  0.00    +0.048 C 
ATOM     29  C   UNL     1       4.364  -4.294   1.300  0.00  0.00    +0.225 C 
ENDBRANCH  27  29
ENDBRANCH  21  27
ENDBRANCH  14  26
ENDBRANCH   1  16
BRANCH  11  30
ATOM     30  C   UNL     1       2.864  -0.788  13.364  0.00  0.00    +0.165 C 
BRANCH  30  31
ATOM     31  C   UNL     1       2.867  -2.176  13.950  0.00  0.00    -0.026 A 
ATOM     32  C   UNL     1       1.742  -2.656  14.595  0.00  0.00    +0.005 A 
ATOM     33  C   UNL     1       1.744  -3.930  15.133  0.00  0.00    +0.002 A 
ATOM     34  C   UNL     1       2.871  -4.723  15.026  0.00  0.00    +0.020 A 
ATOM     35  C   UNL     1       3.997  -4.243  14.381  0.00  0.00    +0.041 A 
ATOM     36  C   UNL     1       3.992  -2.971  13.838  0.00  0.00    +0.025 A 
ATOM     37 CL   UNL     1       5.412  -5.239  14.247  0.00  0.00    -0.084 Cl
ENDBRANCH  30  31
ENDBRANCH  11  30
TORSDOF 6
