REMARK  Name = ZINC47534710
REMARK  5 active torsions:
REMARK  status: ('A' for Active; 'I' for Inactive)
REMARK    1  A    between atoms: C_1  and  C_2
REMARK    2  A    between atoms: C_2  and  C_4
REMARK    3  A    between atoms: C_2  and  N_16
REMARK    4  A    between atoms: C_17  and  C_19
REMARK    5  A    between atoms: C_21  and  C_29
REMARK                            x       y       z     vdW  Elec       q    Type
REMARK                         _______ _______ _______ _____ _____    ______ ____
ROOT
ATOM      1  N   UNL     1       0.684  -0.493  -1.199  0.00  0.00    -0.305 N 
ATOM      2  C   UNL     1       0.006  -0.608  -2.358  0.00  0.00    +0.245 C 
ATOM      3  O   UNL     1      -1.174  -0.320  -2.404  0.00  0.00    -0.270 OA
ATOM      4  H   UNL     1       1.625  -0.723  -1.163  0.00  0.00    +0.150 HD
ENDROOT
BRANCH   2   5
ATOM      5  C   UNL     1       0.699  -1.085  -3.575  0.00  0.00    +0.048 A 
ATOM      6  C   UNL     1       2.070  -1.306  -3.581  0.00  0.00    +0.037 A 
ATOM      7  C   UNL     1       2.689  -1.756  -4.745  0.00  0.00    +0.046 A 
ATOM      8  N   UNL     1       2.014  -1.980  -5.845  0.00  0.00    -0.251 NA
ATOM      9  C   UNL     1       0.695  -1.790  -5.913  0.00  0.00    +0.072 A 
ATOM     10  C   UNL     1      -0.016  -1.338  -4.774  0.00  0.00    +0.012 A 
ATOM     11  C   UNL     1      -1.402  -1.146  -4.851  0.00  0.00    +0.011 A 
ATOM     12  C   UNL     1      -2.054  -1.399  -6.020  0.00  0.00    +0.001 A 
ATOM     13  C   UNL     1      -1.359  -1.848  -7.142  0.00  0.00    +0.002 A 
ATOM     14  C   UNL     1      -0.012  -2.036  -7.105  0.00  0.00    +0.028 A 
BRANCH   7  15
ATOM     15  C   UNL     1       4.178  -1.991  -4.738  0.00  0.00    +0.038 C 
ATOM     16  C   UNL     1       4.985  -1.370  -3.596  0.00  0.00    +0.010 C 
ATOM     17  C   UNL     1       5.084  -0.788  -5.007  0.00  0.00    +0.010 C 
ENDBRANCH   7  15
ENDBRANCH   2   5
BRANCH   1  19
ATOM     18  C   UNL     1      -0.004   1.509   0.025  0.00  0.00    +0.033 C 
ATOM     19  C   UNL     1      -0.002  -0.021   0.006  0.00  0.00    +0.100 C 
BRANCH  19  20
ATOM     20  C   UNL     1       0.715  -0.538   1.227  0.00  0.00    -0.025 A 
ATOM     21  C   UNL     1       2.098  -0.565   1.254  0.00  0.00    +0.007 A 
ATOM     22  C   UNL     1       2.764  -1.036   2.369  0.00  0.00    +0.028 A 
ATOM     23  C   UNL     1       2.043  -1.485   3.465  0.00  0.00    +0.067 A 
ATOM     24  C   UNL     1       0.647  -1.458   3.437  0.00  0.00    +0.067 A 
ATOM     25  C   UNL     1      -0.012  -0.978   2.316  0.00  0.00    +0.033 A 
ATOM     26  N   UNL     1       0.211  -1.963   4.660  0.00  0.00    -0.306 N 
ATOM     27  H   UNL     1      -0.714  -2.067   4.934  0.00  0.00    +0.170 HD
ATOM     28  C   UNL     1       1.291  -2.281   5.397  0.00  0.00    +0.325 A 
ATOM     29  O   UNL     1       1.260  -2.749   6.520  0.00  0.00    -0.247 OA
ATOM     30  N   UNL     1       2.411  -2.005   4.703  0.00  0.00    -0.306 N 
ATOM     31  H   UNL     1       3.320  -2.144   5.013  0.00  0.00    +0.170 HD
ENDBRANCH  19  20
ENDBRANCH   1  19
TORSDOF 4
