REMARK  Name = ZINC67648677
REMARK  3 active torsions:
REMARK  status: ('A' for Active; 'I' for Inactive)
REMARK    1  A    between atoms: C_4  and  C_10
REMARK    2  A    between atoms: C_6  and  N_7
REMARK    3  A    between atoms: N_12  and  C_13
REMARK                            x       y       z     vdW  Elec       q    Type
REMARK                         _______ _______ _______ _____ _____    ______ ____
ROOT
ATOM      1  C   UNL     1       3.695  -0.686  -0.037  0.00  0.00    +0.246 C 
ATOM      2  O   UNL     1       4.738  -0.062  -0.044  0.00  0.00    -0.270 OA
ATOM      3  N   UNL     1       3.716  -2.034  -0.045  0.00  0.00    -0.304 N 
ATOM      4  H   UNL     1       2.883  -2.532  -0.039  0.00  0.00    +0.150 HD
ENDROOT
BRANCH   3   5
ATOM      5  C   UNL     1       4.996  -2.747  -0.061  0.00  0.00    +0.107 C 
ATOM      6  C   UNL     1       4.814  -4.150   0.531  0.00  0.00    +0.027 C 
ATOM      7  C   UNL     1       6.073  -4.980   0.271  0.00  0.00    +0.010 C 
ATOM      8  C   UNL     1       6.175  -5.302  -1.225  0.00  0.00    +0.075 C 
ATOM      9  C   UNL     1       6.000  -4.019  -2.002  0.00  0.00    +0.110 A 
ATOM     10  C   UNL     1       5.479  -2.889  -1.481  0.00  0.00    +0.014 A 
ATOM     11  C   UNL     1       5.484  -1.920  -2.501  0.00  0.00    +0.047 A 
ATOM     12  C   UNL     1       6.008  -2.512  -3.592  0.00  0.00    +0.195 A 
ATOM     13  O   UNL     1       6.316  -3.786  -3.281  0.00  0.00    -0.467 OA
ENDBRANCH   3   5
BRANCH   1  17
ATOM     14  C   UNL     1      -0.017   1.379   0.010  0.00  0.00    +0.034 A 
ATOM     15  C   UNL     1       1.168   2.094   0.002  0.00  0.00    +0.018 A 
ATOM     16  C   UNL     1       2.378   1.429  -0.013  0.00  0.00    +0.030 A 
ATOM     17  C   UNL     1       2.404   0.032  -0.021  0.00  0.00    +0.053 A 
ATOM     18  C   UNL     1       1.204  -0.681  -0.013  0.00  0.00    +0.047 A 
ATOM     19  C   UNL     1       0.002  -0.004   0.002  0.00  0.00    +0.127 A 
ATOM     20 BR   UNL     1       3.997   2.407  -0.024  0.00  0.00    -0.050 Br
BRANCH  19  21
ATOM     21  N   UNL     1      -1.271  -0.760   0.011  0.00  0.00    +0.056 N 
ATOM     22  O   UNL     1      -2.325  -0.168   0.024  0.00  0.00    -0.126 OA
ATOM     23  O   UNL     1      -1.256  -1.968   0.004  0.00  0.00    -0.126 OA
ENDBRANCH  19  21
ENDBRANCH   1  17
TORSDOF 3
