REMARK  Name = ZINC11783275
REMARK  8 active torsions:
REMARK  status: ('A' for Active; 'I' for Inactive)
REMARK    1  A    between atoms: C_1  and  N_59
REMARK    2  A    between atoms: C_2  and  N_59
REMARK    3  A    between atoms: C_3  and  C_4
REMARK    4  A    between atoms: C_3  and  N_59
REMARK    5  A    between atoms: C_4  and  N_5
REMARK    6  A    between atoms: C_9  and  C_12
REMARK    7  A    between atoms: C_9  and  C_22
REMARK    8  A    between atoms: C_12  and  C_13
REMARK                            x       y       z     vdW  Elec       q    Type
REMARK                         _______ _______ _______ _____ _____    ______ ____
ROOT
ATOM      1  N   UNL     1       1.240   1.966   0.001  0.00  0.00    -0.243 N 
ATOM      2  C   UNL     1       2.177   1.011  -0.013  0.00  0.00    +0.223 C 
ATOM      3  O   UNL     1       3.374   1.202  -0.024  0.00  0.00    -0.275 OA
ATOM      4  C   UNL     1       1.506  -0.345  -0.014  0.00  0.00    +0.117 C 
ATOM      5  C   UNL     1       0.002  -0.004   0.002  0.00  0.00    +0.090 C 
ATOM      6  C   UNL     1      -0.018   1.509   0.010  0.00  0.00    +0.233 C 
ATOM      7  O   UNL     1      -1.016   2.198   0.019  0.00  0.00    -0.274 OA
ENDROOT
BRANCH   5   8
ATOM      8  C   UNL     1      -0.656  -0.550   1.243  0.00  0.00    -0.013 A 
ATOM      9  C   UNL     1      -1.759  -1.375   1.134  0.00  0.00    +0.006 A 
ATOM     10  C   UNL     1      -2.360  -1.880   2.272  0.00  0.00    +0.000 A 
ATOM     11  C   UNL     1      -1.863  -1.552   3.520  0.00  0.00    +0.001 A 
ATOM     12  C   UNL     1      -0.763  -0.723   3.630  0.00  0.00    +0.020 A 
ATOM     13  C   UNL     1      -0.159  -0.221   2.491  0.00  0.00    +0.045 A 
ATOM     14 CL   UNL     1       1.224   0.820   2.629  0.00  0.00    -0.083 Cl
ENDBRANCH   5   8
BRANCH   1  15
ATOM     15  C   UNL     1       1.564   3.395   0.005  0.00  0.00    +0.098 C 
BRANCH  15  16
ATOM     16  C   UNL     1       1.690   3.885   1.449  0.00  0.00    -0.060 C 
BRANCH  16  19
ATOM     17  C   UNL     1       0.904   6.111   0.910  0.00  0.00    -0.097 C 
ATOM     18  C   UNL     1       2.376   5.772   2.802  0.00  0.00    -0.097 C 
ATOM     19  N   UNL     1       2.038   5.322   1.436  0.00  0.00    +0.377 N 
ATOM     20  H   UNL     1       2.852   5.463   0.827  0.00  0.00    -0.083 HD
ENDBRANCH  16  19
ENDBRANCH  15  16
ENDBRANCH   1  15
BRANCH   5  21
ATOM     21  C   UNL     1      -0.686  -0.545  -1.253  0.00  0.00    +0.117 C 
BRANCH  21  22
ATOM     22  C   UNL     1      -2.128  -0.106  -1.264  0.00  0.00    +0.217 C 
ATOM     23  O   UNL     1      -2.562   0.573  -0.357  0.00  0.00    -0.276 OA
ATOM     24  N   UNL     1      -2.935  -0.467  -2.281  0.00  0.00    -0.301 N 
ATOM     25  C   UNL     1      -2.385  -1.272  -3.349  0.00  0.00    +0.108 C 
ATOM     26  C   UNL     1      -1.799  -0.359  -4.447  0.00  0.00    +0.019 C 
ATOM     27  C   UNL     1      -2.881   0.314  -5.181  0.00  0.00    +0.002 C 
ATOM     28  C   UNL     1      -3.735   1.247  -4.327  0.00  0.00    +0.002 C 
ATOM     29  C   UNL     1      -4.820   0.450  -3.647  0.00  0.00    +0.019 C 
ATOM     30  C   UNL     1      -4.341  -0.021  -2.262  0.00  0.00    +0.108 C 
ENDBRANCH  21  22
ENDBRANCH   5  21
TORSDOF 6
