REMARK  Name = ZINC65191332
REMARK  9 active torsions:
REMARK  status: ('A' for Active; 'I' for Inactive)
REMARK    1  A    between atoms: C_1  and  C_2
REMARK    2  A    between atoms: C_2  and  N_3
REMARK    3  A    between atoms: N_6  and  N_7
REMARK    4  A    between atoms: C_8  and  C_10
REMARK    5  A    between atoms: C_10  and  C_11
REMARK    6  A    between atoms: C_10  and  N_14
REMARK    7  A    between atoms: C_11  and  C_12
REMARK    8  A    between atoms: C_11  and  C_13
REMARK    9  A    between atoms: C_15  and  C_17
REMARK                            x       y       z     vdW  Elec       q    Type
REMARK                         _______ _______ _______ _____ _____    ______ ____
ROOT
ATOM      1  C   UNL     1       3.391  -0.805   5.458  0.00  0.00    +0.163 C 
ENDROOT
BRANCH   1   3
ATOM      2  N   UNL     1       2.539  -1.397   3.213  0.00  0.00    -0.232 N 
ATOM      3  C   UNL     1       2.756  -1.769   4.490  0.00  0.00    +0.250 C 
ATOM      4  O   UNL     1       2.441  -2.881   4.860  0.00  0.00    -0.272 OA
ATOM      5  H   UNL     1       2.723  -0.486   2.936  0.00  0.00    +0.173 HD
BRANCH   2   9
ATOM      6  N   UNL     1       2.086  -0.688   0.624  0.00  0.00    -0.298 N 
ATOM      7  C   UNL     1       1.830  -1.954   1.010  0.00  0.00    +0.316 C 
ATOM      8  O   UNL     1       1.404  -2.760   0.206  0.00  0.00    -0.251 OA
ATOM      9  N   UNL     1       2.048  -2.326   2.287  0.00  0.00    -0.218 N 
ATOM     10  H   UNL     1       2.426  -0.045   1.266  0.00  0.00    +0.150 HD
ATOM     11  H   UNL     1       1.864  -3.237   2.564  0.00  0.00    +0.174 HD
BRANCH   6  13
ATOM     12  C   UNL     1       2.217   1.192  -0.935  0.00  0.00    +0.024 C 
ATOM     13  C   UNL     1       1.849  -0.283  -0.764  0.00  0.00    +0.102 C 
ENDBRANCH   6  13
ENDBRANCH   2   9
ENDBRANCH   1   3
BRANCH   1  14
ATOM     14  N   UNL     1       4.133  -1.553   6.477  0.00  0.00    -0.300 N 
ATOM     15  C   UNL     1       5.162  -0.971   7.125  0.00  0.00    +0.245 C 
ATOM     16  O   UNL     1       5.474   0.174   6.864  0.00  0.00    -0.270 OA
ATOM     17  H   UNL     1       3.883  -2.466   6.686  0.00  0.00    +0.150 HD
BRANCH  15  18
ATOM     18  C   UNL     1       5.909  -1.725   8.152  0.00  0.00    +0.037 A 
ATOM     19  C   UNL     1       5.556  -3.042   8.450  0.00  0.00    +0.014 A 
ATOM     20  C   UNL     1       6.258  -3.741   9.410  0.00  0.00    +0.021 A 
ATOM     21  C   UNL     1       7.311  -3.139  10.078  0.00  0.00    +0.041 A 
ATOM     22  C   UNL     1       7.666  -1.832   9.786  0.00  0.00    +0.021 A 
ATOM     23  C   UNL     1       6.976  -1.125   8.825  0.00  0.00    +0.014 A 
ATOM     24 CL   UNL     1       8.189  -4.025  11.285  0.00  0.00    -0.084 Cl
ENDBRANCH  15  18
ENDBRANCH   1  14
BRANCH   1  25
ATOM     25  C   UNL     1       2.303   0.032   6.132  0.00  0.00    +0.012 C 
ATOM     26  C   UNL     1       2.952   1.077   7.042  0.00  0.00    +0.009 C 
ATOM     27  C   UNL     1       1.466   0.737   5.062  0.00  0.00    +0.009 C 
ENDBRANCH   1  25
TORSDOF 6
