REMARK  Name = ZINC27578885
REMARK  7 active torsions:
REMARK  status: ('A' for Active; 'I' for Inactive)
REMARK    1  A    between atoms: C_1  and  C_2
REMARK    2  A    between atoms: C_5  and  C_8
REMARK    3  A    between atoms: C_9  and  C_19
REMARK    4  A    between atoms: N_11  and  C_13
REMARK    5  A    between atoms: N_20  and  N_21
REMARK    6  A    between atoms: C_25  and  C_28
REMARK    7  A    between atoms: C_26  and  N_27
REMARK                            x       y       z     vdW  Elec       q    Type
REMARK                         _______ _______ _______ _____ _____    ______ ____
ROOT
ATOM      1  C   UNL     1       0.225   1.249   5.527  0.00  0.00    +0.102 A 
ATOM      2  C   UNL     1      -0.978   1.857   4.953  0.00  0.00    +0.040 A 
ATOM      3  C   UNL     1      -1.677   2.401   5.995  0.00  0.00    +0.124 A 
ATOM      4  N   UNL     1      -0.991   2.155   7.131  0.00  0.00    -0.239 N 
ATOM      5  N   UNL     1       0.177   1.449   6.826  0.00  0.00    -0.166 NA
ENDROOT
BRANCH   1  10
ATOM      6  C   UNL     1       4.379  -1.502   2.641  0.00  0.00    +0.044 C 
ATOM      7  C   UNL     1       3.292  -0.782   3.396  0.00  0.00    -0.050 A 
ATOM      8  C   UNL     1       2.823   0.435   2.935  0.00  0.00    +0.004 A 
ATOM      9  C   UNL     1       1.828   1.099   3.623  0.00  0.00    +0.010 A 
ATOM     10  C   UNL     1       1.295   0.540   4.784  0.00  0.00    +0.003 A 
ATOM     11  C   UNL     1       1.775  -0.684   5.246  0.00  0.00    +0.010 A 
ATOM     12  C   UNL     1       2.767  -1.341   4.548  0.00  0.00    +0.004 A 
ENDBRANCH   1  10
BRANCH   4  13
ATOM     13  C   UNL     1      -1.385   2.551   8.415  0.00  0.00    +0.065 A 
ATOM     14  C   UNL     1      -2.568   3.256   8.594  0.00  0.00    +0.028 A 
ATOM     15  C   UNL     1      -2.956   3.641   9.863  0.00  0.00    +0.002 A 
ATOM     16  C   UNL     1      -2.163   3.334  10.953  0.00  0.00    +0.000 A 
ATOM     17  C   UNL     1      -0.982   2.636  10.777  0.00  0.00    +0.002 A 
ATOM     18  C   UNL     1      -0.591   2.244   9.512  0.00  0.00    +0.028 A 
ENDBRANCH   4  13
BRANCH   2  19
ATOM     19  C   UNL     1      -1.357   1.885   3.529  0.00  0.00    +0.142 C 
ATOM     20  N   UNL     1      -0.652   1.231   2.657  0.00  0.00    -0.186 NA
BRANCH  20  21
ATOM     21  N   UNL     1      -0.930   1.364   1.290  0.00  0.00    -0.203 N 
ATOM     22  C   UNL     1      -1.935   2.256   0.694  0.00  0.00    +0.213 C 
ATOM     23  C   UNL     1      -1.834   2.018  -0.797  0.00  0.00    +0.186 C 
ATOM     24  O   UNL     1      -2.489   2.553  -1.672  0.00  0.00    -0.290 OA
ATOM     25  C   UNL     1      -0.829   1.056  -0.963  0.00  0.00    +0.063 C 
ATOM     26  C   UNL     1      -0.317   0.691   0.275  0.00  0.00    +0.115 C 
BRANCH  25  27
ATOM     27  C   UNL     1      -0.381   0.508  -2.265  0.00  0.00    -0.011 A 
ATOM     28  C   UNL     1       0.916   0.751  -2.717  0.00  0.00    +0.009 A 
ATOM     29  C   UNL     1       1.329   0.233  -3.928  0.00  0.00    +0.001 A 
ATOM     30  C   UNL     1       0.457  -0.516  -4.697  0.00  0.00    +0.000 A 
ATOM     31  C   UNL     1      -0.832  -0.756  -4.256  0.00  0.00    +0.001 A 
ATOM     32  C   UNL     1      -1.255  -0.249  -3.044  0.00  0.00    +0.009 A 
ENDBRANCH  25  27
BRANCH  26  33
ATOM     33  N   UNL     1       0.679  -0.230   0.455  0.00  0.00    -0.345 N 
ATOM     34  H   UNL     1       1.126  -0.733  -0.415  0.00  0.00    +0.144 HD
ATOM     35  H   UNL     1       1.032  -0.467   1.469  0.00  0.00    +0.144 HD
ENDBRANCH  26  33
ENDBRANCH  20  21
ENDBRANCH   2  19
TORSDOF 6
