REMARK  Name = ZINC38592598
REMARK  4 active torsions:
REMARK  status: ('A' for Active; 'I' for Inactive)
REMARK    1  A    between atoms: C_1  and  N_2
REMARK    2  A    between atoms: C_6  and  C_24
REMARK    3  A    between atoms: C_7  and  N_13
REMARK    4  A    between atoms: C_14  and  C_15
REMARK                            x       y       z     vdW  Elec       q    Type
REMARK                         _______ _______ _______ _____ _____    ______ ____
ROOT
ATOM      1  C   UNL     1      -0.018   1.465   0.010  0.00  0.00    -0.096 C 
ATOM      2  N   UNL     1       0.002  -0.004   0.002  0.00  0.00    +0.379 N 
ATOM      3  C   UNL     1      -1.369  -0.483  -0.110  0.00  0.00    -0.075 C 
ATOM      4  C   UNL     1      -2.133  -0.398   1.217  0.00  0.00    +0.014 C 
ATOM      5  C   UNL     1      -1.350  -1.272   2.199  0.00  0.00    -0.049 C 
ATOM      6  C   UNL     1      -1.736  -1.621   3.396  0.00  0.00    +0.048 C 
ATOM      7  C   UNL     1      -0.794  -2.446   4.255  0.00  0.00    +0.198 C 
ATOM      8  S   UNL     1       0.798  -2.209   3.349  0.00  0.00    -0.124 S 
ATOM      9  C   UNL     1       0.047  -1.726   1.744  0.00  0.00    +0.059 C 
ATOM     10  C   UNL     1       0.714  -0.464   1.195  0.00  0.00    -0.060 C 
ATOM     11  H   UNL     1       0.513  -0.311  -0.812  0.00  0.00    -0.082 HD
ENDROOT
BRANCH   6  12
ATOM     12  C   UNL     1      -3.058  -1.222   3.904  0.00  0.00    +0.240 C 
ATOM     13  O   UNL     1      -3.803  -0.561   3.207  0.00  0.00    -0.271 OA
ATOM     14  N   UNL     1      -3.443  -1.589   5.143  0.00  0.00    -0.326 N 
ATOM     15  H   UNL     1      -2.848  -2.117   5.699  0.00  0.00    +0.145 HD
ATOM     16  H   UNL     1      -4.314  -1.326   5.477  0.00  0.00    +0.145 HD
ENDBRANCH   6  12
BRANCH   7  17
ATOM     17  N   UNL     1      -0.713  -1.909   5.616  0.00  0.00    -0.272 NA
ATOM     18  C   UNL     1      -1.058  -2.648   6.627  0.00  0.00    +0.112 C 
BRANCH  18  19
ATOM     19  C   UNL     1      -0.979  -2.129   7.944  0.00  0.00    -0.002 C 
ATOM     20  C   UNL     1      -1.301  -2.781   9.118  0.00  0.00    +0.004 A 
ATOM     21  C   UNL     1      -1.781  -4.085   9.394  0.00  0.00    +0.010 A 
ATOM     22  C   UNL     1      -2.016  -4.468  10.668  0.00  0.00    +0.001 A 
ATOM     23  C   UNL     1      -1.802  -3.616  11.761  0.00  0.00    +0.002 A 
ATOM     24  C   UNL     1      -1.346  -2.353  11.605  0.00  0.00    +0.026 A 
ATOM     25  C   UNL     1      -1.065  -1.857  10.251  0.00  0.00    +0.043 A 
ATOM     26  N   UNL     1      -0.625  -0.705   9.818  0.00  0.00    -0.380 N 
ATOM     27  C   UNL     1      -0.519  -0.748   8.356  0.00  0.00    +0.150 C 
ATOM     28  H   UNL     1      -0.402   0.057  10.376  0.00  0.00    +0.160 HD
ENDBRANCH  18  19
ENDBRANCH   7  17
TORSDOF 3
