REMARK  Name = ZINC11907914
REMARK  13 active torsions:
REMARK  status: ('A' for Active; 'I' for Inactive)
REMARK    1  A    between atoms: C_1  and  C_2
REMARK    2  A    between atoms: C_2  and  O_3
REMARK    3  A    between atoms: O_3  and  C_4
REMARK    4  A    between atoms: C_4  and  C_6
REMARK    5  A    between atoms: C_7  and  C_33
REMARK    6  A    between atoms: C_8  and  C_32
REMARK    7  A    between atoms: C_10  and  N_11
REMARK    8  A    between atoms: C_12  and  C_14
REMARK    9  A    between atoms: C_14  and  S_15
REMARK   10  A    between atoms: S_15  and  C_16
REMARK   11  A    between atoms: C_22  and  C_31
REMARK   12  A    between atoms: C_24  and  C_30
REMARK   13  A    between atoms: C_27  and  C_29
REMARK                            x       y       z     vdW  Elec       q    Type
REMARK                         _______ _______ _______ _____ _____    ______ ____
ROOT
ATOM      1  C   UNL     1       5.670   2.863  -2.390  0.00  0.00    +0.173 C 
ENDROOT
BRANCH   1   3
ATOM      2  N   UNL     1       7.549   1.992  -3.743  0.00  0.00    -0.279 N 
ATOM      3  C   UNL     1       6.281   1.839  -3.311  0.00  0.00    +0.228 C 
ATOM      4  O   UNL     1       5.632   0.877  -3.665  0.00  0.00    -0.275 OA
ATOM      5  H   UNL     1       8.068   2.761  -3.461  0.00  0.00    +0.155 HD
BRANCH   2  10
ATOM      6  C   UNL     1       9.390   1.033  -5.137  0.00  0.00    +0.091 A 
ATOM      7  C   UNL     1       9.713  -0.081  -5.996  0.00  0.00    -0.025 A 
ATOM      8  C   UNL     1       8.754  -1.003  -6.194  0.00  0.00    -0.008 A 
ATOM      9  S   UNL     1       7.394  -0.395  -5.219  0.00  0.00    -0.078 S 
ATOM     10  C   UNL     1       8.111   1.050  -4.590  0.00  0.00    +0.086 A 
ATOM     11  C   UNL     1       8.819  -2.254  -7.033  0.00  0.00    +0.052 C 
ATOM     12  C   UNL     1      11.068  -0.205  -6.645  0.00  0.00    +0.045 C 
BRANCH   6  13
ATOM     13  C   UNL     1      10.360   2.093  -4.855  0.00  0.00    +0.342 C 
ATOM     14  O   UNL     1      11.112   1.992  -3.905  0.00  0.00    -0.245 OA
BRANCH  13  15
ATOM     15  O   UNL     1      10.419   3.182  -5.649  0.00  0.00    -0.461 OA
BRANCH  15  17
ATOM     16  C   UNL     1      11.323   5.342  -6.316  0.00  0.00    +0.048 C 
ATOM     17  C   UNL     1      11.405   4.192  -5.310  0.00  0.00    +0.229 C 
ENDBRANCH  15  17
ENDBRANCH  13  15
ENDBRANCH   6  13
ENDBRANCH   2  10
ENDBRANCH   1   3
BRANCH   1  18
ATOM     18  S   UNL     1       3.972   2.380  -1.993  0.00  0.00    -0.076 S 
BRANCH  18  19
ATOM     19  C   UNL     1       3.514   3.713  -0.935  0.00  0.00    +0.197 A 
ATOM     20  N   UNL     1       4.284   4.747  -0.655  0.00  0.00    -0.122 NA
ATOM     21  N   UNL     1       3.600   5.651  -0.057  0.00  0.00    -0.129 NA
ATOM     22  C   UNL     1       2.356   5.234   0.085  0.00  0.00    +0.162 A 
ATOM     23  N   UNL     1       2.321   3.910  -0.307  0.00  0.00    -0.270 N 
ATOM     24  C   UNL     1       1.190   3.153  -0.064  0.00  0.00    +0.061 A 
ATOM     25  C   UNL     1       1.183   1.771   0.000  0.00  0.00    -0.026 A 
ATOM     26  C   UNL     1      -0.013   1.075   0.008  0.00  0.00    +0.008 A 
ATOM     27  C   UNL     1      -1.221   1.751   0.017  0.00  0.00    -0.050 A 
ATOM     28  C   UNL     1      -1.238   3.126   0.103  0.00  0.00    +0.013 A 
ATOM     29  C   UNL     1      -0.033   3.831   0.157  0.00  0.00    +0.002 A 
ATOM     30  C   UNL     1      -0.010   5.264   0.460  0.00  0.00    -0.038 A 
ATOM     31  C   UNL     1       1.177   5.912   0.470  0.00  0.00    +0.052 A 
ATOM     32  C   UNL     1      -1.274   6.012   0.797  0.00  0.00    +0.044 C 
ATOM     33  C   UNL     1      -2.516   0.986  -0.060  0.00  0.00    +0.044 C 
ATOM     34  C   UNL     1       2.457   0.977   0.150  0.00  0.00    +0.046 C 
ENDBRANCH  18  19
ENDBRANCH   1  18
TORSDOF 7
