REMARK  Name = ZINC38935793
REMARK  8 active torsions:
REMARK  status: ('A' for Active; 'I' for Inactive)
REMARK    1  A    between atoms: C_1  and  C_2
REMARK    2  A    between atoms: C_5  and  C_8
REMARK    3  A    between atoms: N_10  and  C_11
REMARK    4  A    between atoms: N_10  and  C_25
REMARK    5  A    between atoms: C_11  and  C_12
REMARK    6  A    between atoms: C_18  and  C_24
REMARK    7  A    between atoms: C_28  and  C_32
REMARK    8  A    between atoms: C_30  and  C_31
REMARK                            x       y       z     vdW  Elec       q    Type
REMARK                         _______ _______ _______ _____ _____    ______ ____
ROOT
ATOM      1  C   UNL     1      -0.252  -4.126   0.471  0.00  0.00    +0.251 C 
ATOM      2  O   UNL     1      -0.533  -4.522  -0.643  0.00  0.00    -0.270 OA
ATOM      3  N   UNL     1       0.287  -4.972   1.371  0.00  0.00    -0.266 N 
ENDROOT
BRANCH   3   4
ATOM      4  C   UNL     1       0.520  -4.543   2.682  0.00  0.00    +0.040 A 
ATOM      5  C   UNL     1       1.656  -3.801   2.980  0.00  0.00    +0.024 A 
ATOM      6  C   UNL     1       1.883  -3.380   4.275  0.00  0.00    +0.005 A 
ATOM      7  C   UNL     1       0.981  -3.695   5.275  0.00  0.00    -0.050 A 
ATOM      8  C   UNL     1      -0.151  -4.433   4.981  0.00  0.00    +0.008 A 
ATOM      9  C   UNL     1      -0.387  -4.852   3.687  0.00  0.00    -0.029 A 
ATOM     10  C   UNL     1      -1.624  -5.651   3.367  0.00  0.00    +0.045 C 
ATOM     11  C   UNL     1       1.232  -3.233   6.687  0.00  0.00    +0.044 C 
ENDBRANCH   3   4
BRANCH   1  16
ATOM     12  C   UNL     1      -1.222   1.363   1.901  0.00  0.00    +0.044 C 
ATOM     13  C   UNL     1      -0.968  -0.074   1.527  0.00  0.00    -0.050 A 
ATOM     14  C   UNL     1      -0.383  -0.376   0.310  0.00  0.00    +0.004 A 
ATOM     15  C   UNL     1      -0.147  -1.690  -0.039  0.00  0.00    +0.013 A 
ATOM     16  C   UNL     1      -0.501  -2.716   0.839  0.00  0.00    +0.037 A 
ATOM     17  C   UNL     1      -1.090  -2.405   2.065  0.00  0.00    +0.013 A 
ATOM     18  C   UNL     1      -1.315  -1.086   2.404  0.00  0.00    +0.004 A 
ENDBRANCH   1  16
BRANCH   3  19
ATOM     19  C   UNL     1       0.629  -6.340   0.977  0.00  0.00    +0.131 C 
BRANCH  19  20
ATOM     20  C   UNL     1       2.117  -6.414   0.627  0.00  0.00    +0.116 C 
ATOM     21  C   UNL     1       2.511  -7.877   0.573  0.00  0.00    -0.003 C 
ATOM     22  C   UNL     1       3.038  -8.340  -0.596  0.00  0.00    -0.007 A 
ATOM     23  C   UNL     1       3.446  -9.738  -0.733  0.00  0.00    +0.010 A 
ATOM     24  C   UNL     1       3.967 -10.155  -1.916  0.00  0.00    +0.004 A 
ATOM     25  C   UNL     1       4.120  -9.279  -2.991  0.00  0.00    -0.049 A 
ATOM     26  C   UNL     1       3.761  -7.971  -2.928  0.00  0.00    +0.027 A 
ATOM     27  C   UNL     1       3.210  -7.438  -1.748  0.00  0.00    +0.041 A 
ATOM     28  N   UNL     1       2.862  -6.152  -1.696  0.00  0.00    -0.284 N 
ATOM     29  C   UNL     1       2.341  -5.588  -0.620  0.00  0.00    +0.226 C 
ATOM     30  O   UNL     1       2.042  -4.409  -0.634  0.00  0.00    -0.275 OA
ATOM     31  C   UNL     1       4.706  -9.807  -4.276  0.00  0.00    +0.044 C 
ATOM     32  H   UNL     1       2.997  -5.605  -2.486  0.00  0.00    +0.155 HD
ENDBRANCH  19  20
ENDBRANCH   3  19
TORSDOF 4
