REMARK  Name = ZINC41004956
REMARK  9 active torsions:
REMARK  status: ('A' for Active; 'I' for Inactive)
REMARK    1  A    between atoms: C_1  and  C_2
REMARK    2  A    between atoms: C_2  and  S_3
REMARK    3  A    between atoms: S_3  and  C_4
REMARK    4  A    between atoms: C_9  and  C_18
REMARK    5  A    between atoms: C_11  and  C_15
REMARK    6  A    between atoms: C_12  and  C_14
REMARK    7  A    between atoms: C_23  and  O_24
REMARK    8  A    between atoms: O_24  and  C_25
REMARK    9  A    between atoms: C_25  and  C_26
REMARK                            x       y       z     vdW  Elec       q    Type
REMARK                         _______ _______ _______ _____ _____    ______ ____
ROOT
ATOM      1  C   UNL     1       0.393  -2.381  -1.573  0.00  0.00    +0.210 A 
ATOM      2  N   UNL     1      -0.128  -3.067  -0.545  0.00  0.00    -0.187 NA
ATOM      3  C   UNL     1       0.180  -4.330  -0.663  0.00  0.00    +0.219 A 
ATOM      4  N   UNL     1       0.921  -4.479  -1.788  0.00  0.00    -0.220 N 
ATOM      5  N   UNL     1       1.038  -3.214  -2.361  0.00  0.00    -0.141 NA
ATOM      6  C   UNL     1       1.455  -5.762  -2.240  0.00  0.00    +0.181 C 
ATOM      7  C   UNL     1       0.815  -6.875  -1.454  0.00  0.00    +0.060 C 
ATOM      8  C   UNL     1       0.087  -6.667  -0.348  0.00  0.00    +0.018 C 
ATOM      9  N   UNL     1      -0.141  -5.408   0.151  0.00  0.00    -0.287 N 
ATOM     10  C   UNL     1      -0.500  -7.853   0.372  0.00  0.00    +0.061 C 
ATOM     11  H   UNL     1      -0.512  -5.277   1.037  0.00  0.00    +0.155 HD
ENDROOT
BRANCH   6  12
ATOM     12  C   UNL     1       2.946  -5.788  -2.026  0.00  0.00    +0.023 A 
ATOM     13  C   UNL     1       3.465  -5.646  -0.753  0.00  0.00    +0.009 A 
ATOM     14  C   UNL     1       4.833  -5.670  -0.556  0.00  0.00    +0.001 A 
ATOM     15  C   UNL     1       5.686  -5.836  -1.631  0.00  0.00    +0.004 A 
ATOM     16  C   UNL     1       5.173  -5.980  -2.906  0.00  0.00    +0.046 A 
ATOM     17  C   UNL     1       3.800  -5.961  -3.106  0.00  0.00    +0.127 A 
BRANCH  17  18
ATOM     18  O   UNL     1       3.292  -6.108  -4.358  0.00  0.00    -0.487 OA
BRANCH  18  19
ATOM     19  C   UNL     1       4.230  -6.282  -5.422  0.00  0.00    +0.266 C 
BRANCH  19  20
ATOM     20  C   UNL     1       3.489  -6.426  -6.726  0.00  0.00    +0.008 A 
ATOM     21  C   UNL     1       2.107  -6.373  -6.745  0.00  0.00    +0.010 A 
ATOM     22  C   UNL     1       1.427  -6.505  -7.941  0.00  0.00    +0.020 A 
ATOM     23  C   UNL     1       2.128  -6.691  -9.119  0.00  0.00    +0.042 A 
ATOM     24  C   UNL     1       3.510  -6.744  -9.101  0.00  0.00    +0.040 A 
ATOM     25  C   UNL     1       4.191  -6.607  -7.904  0.00  0.00    +0.049 A 
ATOM     26 CL   UNL     1       5.926  -6.667  -7.880  0.00  0.00    -0.083 Cl
ATOM     27 CL   UNL     1       1.273  -6.858 -10.621  0.00  0.00    -0.083 Cl
ENDBRANCH  19  20
ENDBRANCH  18  19
ENDBRANCH  17  18
ENDBRANCH   6  12
BRANCH   7  28
ATOM     28  C   UNL     1       0.990  -8.205  -1.905  0.00  0.00    +0.241 C 
ATOM     29  O   UNL     1       0.385  -8.600  -2.886  0.00  0.00    -0.271 OA
ATOM     30  N   UNL     1       1.826  -9.035  -1.250  0.00  0.00    -0.325 N 
ATOM     31  H   UNL     1       2.308  -8.720  -0.470  0.00  0.00    +0.145 HD
ATOM     32  H   UNL     1       1.946  -9.946  -1.560  0.00  0.00    +0.145 HD
ENDBRANCH   7  28
BRANCH   1  33
ATOM     33  S   UNL     1       0.232  -0.645  -1.831  0.00  0.00    -0.085 S 
BRANCH  33  35
ATOM     34  C   UNL     1      -0.971   1.430  -0.517  0.00  0.00    +0.016 C 
ATOM     35  C   UNL     1      -0.753  -0.081  -0.416  0.00  0.00    +0.074 C 
ENDBRANCH  33  35
ENDBRANCH   1  33
TORSDOF 7
