REMARK  Name = ZINC39994215
REMARK  9 active torsions:
REMARK  status: ('A' for Active; 'I' for Inactive)
REMARK    1  A    between atoms: C_1  and  C_2
REMARK    2  A    between atoms: C_9  and  N_27
REMARK    3  A    between atoms: C_10  and  C_13
REMARK    4  A    between atoms: C_14  and  C_15
REMARK    5  A    between atoms: C_14  and  C_17
REMARK    6  A    between atoms: N_19  and  C_20
REMARK    7  A    between atoms: N_30  and  C_33
REMARK    8  A    between atoms: C_33  and  C_34
REMARK    9  A    between atoms: C_34  and  O_35
REMARK                            x       y       z     vdW  Elec       q    Type
REMARK                         _______ _______ _______ _____ _____    ______ ____
ROOT
ATOM      1  C   UNL     1       0.910   1.275   0.004  0.00  0.00    +0.047 C 
ATOM      2  C   UNL     1       0.641  -0.208   0.024  0.00  0.00    -0.007 A 
ATOM      3  C   UNL     1       0.683  -0.929  -1.133  0.00  0.00    +0.008 A 
ATOM      4  C   UNL     1       0.430  -2.307  -1.098  0.00  0.00    +0.019 A 
ATOM      5  C   UNL     1       0.147  -2.914   0.077  0.00  0.00    +0.096 A 
ATOM      6  N   UNL     1       0.102  -2.202   1.238  0.00  0.00    -0.267 N 
ATOM      7  C   UNL     1       0.350  -0.858   1.236  0.00  0.00    +0.145 A 
ATOM      8  N   UNL     1       0.316  -0.143   2.363  0.00  0.00    -0.213 NA
ATOM      9  C   UNL     1       0.048  -0.701   3.533  0.00  0.00    +0.136 A 
ATOM     10  C   UNL     1      -0.211  -2.094   3.600  0.00  0.00    +0.081 A 
ATOM     11  C   UNL     1      -0.184  -2.841   2.393  0.00  0.00    +0.267 A 
ATOM     12  O   UNL     1      -0.400  -4.039   2.401  0.00  0.00    -0.267 OA
ENDROOT
BRANCH   9  13
ATOM     13  N   UNL     1       0.022   0.065   4.676  0.00  0.00    -0.312 N 
ATOM     14  C   UNL     1       0.573  -0.447   5.940  0.00  0.00    +0.122 C 
ATOM     15  C   UNL     1       1.543   0.596   6.506  0.00  0.00    +0.103 C 
ATOM     16  N   UNL     1       0.860   1.892   6.605  0.00  0.00    -0.297 NA
ATOM     17  C   UNL     1       0.457   2.386   5.282  0.00  0.00    +0.103 C 
ATOM     18  C   UNL     1      -0.552   1.419   4.664  0.00  0.00    +0.122 C 
BRANCH  16  19
ATOM     19  C   UNL     1       1.699   2.877   7.302  0.00  0.00    +0.112 C 
BRANCH  19  20
ATOM     20  C   UNL     1       0.871   4.127   7.607  0.00  0.00    +0.171 C 
BRANCH  20  21
ATOM     21  O   UNL     1      -0.169   3.796   8.530  0.00  0.00    -0.394 OA
ATOM     22  H   UNL     1      -0.735   4.543   8.769  0.00  0.00    +0.209 HD
ENDBRANCH  20  21
ENDBRANCH  19  20
ENDBRANCH  16  19
ENDBRANCH   9  13
BRANCH  10  23
ATOM     23  C   UNL     1      -0.499  -2.716   4.827  0.00  0.00    +0.040 C 
ATOM     24  C   UNL     1       0.367  -3.673   5.340  0.00  0.00    +0.114 C 
BRANCH  24  25
ATOM     25  C   UNL     1       0.009  -4.409   6.556  0.00  0.00    +0.259 C 
ATOM     26  O   UNL     1      -1.047  -4.181   7.116  0.00  0.00    -0.269 OA
ATOM     27  N   UNL     1       0.850  -5.337   7.054  0.00  0.00    -0.281 N 
ATOM     28  H   UNL     1       1.659  -5.567   6.572  0.00  0.00    +0.155 HD
BRANCH  27  29
ATOM     29  C   UNL     1       0.555  -5.970   8.267  0.00  0.00    +0.034 A 
ATOM     30  C   UNL     1       1.579  -6.307   9.143  0.00  0.00    +0.026 A 
ATOM     31  C   UNL     1       1.285  -6.931  10.339  0.00  0.00    +0.040 A 
ATOM     32  C   UNL     1      -0.029  -7.221  10.666  0.00  0.00    +0.124 A 
ATOM     33  C   UNL     1      -1.052  -6.886   9.794  0.00  0.00    +0.040 A 
ATOM     34  C   UNL     1      -0.763  -6.256   8.600  0.00  0.00    +0.026 A 
ATOM     35  F   UNL     1      -0.314  -7.832  11.837  0.00  0.00    -0.205 F 
ENDBRANCH  27  29
ENDBRANCH  24  25
BRANCH  24  36
ATOM     36  C   UNL     1       1.610  -3.940   4.681  0.00  0.00    +0.104 C 
ATOM     37  N   UNL     1       2.596  -4.152   4.158  0.00  0.00    -0.191 NA
ENDBRANCH  24  36
ENDBRANCH  10  23
TORSDOF 8
