REMARK  Name = ZINC20464064
REMARK  8 active torsions:
REMARK  status: ('A' for Active; 'I' for Inactive)
REMARK    1  A    between atoms: C_1  and  C_2
REMARK    2  A    between atoms: C_5  and  C_8
REMARK    3  A    between atoms: C_8  and  S_9
REMARK    4  A    between atoms: S_9  and  C_10
REMARK    5  A    between atoms: N_16  and  C_17
REMARK    6  A    between atoms: C_22  and  C_24
REMARK    7  A    between atoms: C_27  and  O_31
REMARK    8  A    between atoms: C_28  and  O_30
REMARK                            x       y       z     vdW  Elec       q    Type
REMARK                         _______ _______ _______ _____ _____    ______ ____
ROOT
ATOM      1  C   UNL     1       1.632  -6.614  -0.043  0.00  0.00    +0.174 A 
ATOM      2  N   UNL     1       0.435  -7.163  -0.045  0.00  0.00    -0.185 NA
ATOM      3  C   UNL     1       0.288  -8.497  -0.052  0.00  0.00    +0.279 A 
ATOM      4  O   UNL     1      -0.829  -8.994  -0.054  0.00  0.00    -0.265 OA
ATOM      5  C   UNL     1       1.432  -9.321  -0.058  0.00  0.00    +0.065 A 
ATOM      6  C   UNL     1       2.664  -8.744  -0.055  0.00  0.00    +0.116 A 
ATOM      7  N   UNL     1       2.760  -7.378  -0.053  0.00  0.00    -0.311 N 
ATOM      8  C   UNL     1       4.078  -6.736  -0.057  0.00  0.00    +0.152 C 
ATOM      9  N   UNL     1       3.802  -9.524  -0.060  0.00  0.00    -0.271 N 
ATOM     10  C   UNL     1       3.748 -10.820   0.300  0.00  0.00    +0.219 C 
ATOM     11  O   UNL     1       4.757 -11.492   0.280  0.00  0.00    -0.275 OA
ATOM     12  C   UNL     1       2.445 -11.442   0.727  0.00  0.00    +0.109 C 
ATOM     13  C   UNL     1       1.294 -10.819  -0.067  0.00  0.00    +0.066 C 
ATOM     14  H   UNL     1       4.649  -9.134  -0.325  0.00  0.00    +0.156 HD
ENDROOT
BRANCH  13  15
ATOM     15  C   UNL     1       1.336 -11.319  -1.488  0.00  0.00    -0.036 A 
ATOM     16  C   UNL     1       2.453 -11.086  -2.268  0.00  0.00    +0.008 A 
ATOM     17  C   UNL     1       2.496 -11.542  -3.573  0.00  0.00    +0.049 A 
ATOM     18  C   UNL     1       1.419 -12.236  -4.100  0.00  0.00    +0.158 A 
ATOM     19  C   UNL     1       0.295 -12.471  -3.314  0.00  0.00    +0.158 A 
ATOM     20  C   UNL     1       0.260 -12.015  -2.006  0.00  0.00    +0.053 A 
BRANCH  19  21
ATOM     21  O   UNL     1      -0.765 -13.152  -3.827  0.00  0.00    -0.503 OA
ATOM     22  H   UNL     1      -0.718 -14.109  -3.697  0.00  0.00    +0.292 HD
ENDBRANCH  19  21
BRANCH  18  23
ATOM     23  O   UNL     1       1.459 -12.685  -5.383  0.00  0.00    -0.503 OA
ATOM     24  H   UNL     1       1.825 -13.576  -5.476  0.00  0.00    +0.292 HD
ENDBRANCH  18  23
ENDBRANCH  13  15
BRANCH   1  25
ATOM     25  S   UNL     1       1.777  -4.858  -0.034  0.00  0.00    -0.083 S 
BRANCH  25  26
ATOM     26  C   UNL     1       0.059  -4.275  -0.021  0.00  0.00    +0.112 C 
BRANCH  26  31
ATOM     27  C   UNL     1      -0.018   1.503   0.010  0.00  0.00    +0.044 C 
ATOM     28  C   UNL     1       0.002  -0.004   0.002  0.00  0.00    -0.050 A 
ATOM     29  C   UNL     1       0.006  -0.689  -1.199  0.00  0.00    +0.003 A 
ATOM     30  C   UNL     1       0.025  -2.071  -1.206  0.00  0.00    +0.005 A 
ATOM     31  C   UNL     1       0.040  -2.768  -0.013  0.00  0.00    -0.037 A 
ATOM     32  C   UNL     1       0.037  -2.084   1.188  0.00  0.00    +0.005 A 
ATOM     33  C   UNL     1       0.023  -0.702   1.195  0.00  0.00    +0.003 A 
ENDBRANCH  26  31
ENDBRANCH  25  26
ENDBRANCH   1  25
TORSDOF 6
