REMARK  Name = ZINC36743175
REMARK  6 active torsions:
REMARK  status: ('A' for Active; 'I' for Inactive)
REMARK    1  A    between atoms: C_1  and  C_2
REMARK    2  A    between atoms: C_5  and  S_9
REMARK    3  A    between atoms: C_7  and  C_8
REMARK    4  A    between atoms: S_9  and  N_12
REMARK    5  A    between atoms: N_12  and  C_13
REMARK    6  A    between atoms: C_14  and  N_21
REMARK                            x       y       z     vdW  Elec       q    Type
REMARK                         _______ _______ _______ _____ _____    ______ ____
ROOT
ATOM      1  N   UNL     1       1.179  -4.357   0.302  0.00  0.00    -0.213 N 
ATOM      2  H   UNL     1       1.261  -4.496  -0.655  0.00  0.00    +0.174 HD
ENDROOT
BRANCH   1   3
ATOM      3  C   UNL     1       2.304  -4.484   1.127  0.00  0.00    +0.083 A 
ATOM      4  C   UNL     1       2.354  -5.490   2.091  0.00  0.00    +0.049 A 
ATOM      5  C   UNL     1       3.470  -5.612   2.905  0.00  0.00    +0.040 A 
ATOM      6  C   UNL     1       4.530  -4.734   2.760  0.00  0.00    +0.021 A 
ATOM      7  C   UNL     1       4.481  -3.736   1.804  0.00  0.00    +0.032 A 
ATOM      8  C   UNL     1       3.374  -3.613   0.984  0.00  0.00    +0.043 A 
ATOM      9 BR   UNL     1       3.315  -2.251  -0.327  0.00  0.00    -0.048 Br
ATOM     10 BR   UNL     1       6.051  -4.902   3.872  0.00  0.00    -0.050 Br
BRANCH   4  11
ATOM     11  N   UNL     1       1.280  -6.376   2.237  0.00  0.00    -0.356 N 
ATOM     12  H   UNL     1       0.620  -6.459   1.531  0.00  0.00    +0.142 HD
ATOM     13  H   UNL     1       1.195  -6.907   3.044  0.00  0.00    +0.142 HD
ENDBRANCH   4  11
ENDBRANCH   1   3
BRANCH   1  14
ATOM     14  S   UNL     1      -0.290  -3.969   0.959  0.00  0.00    +0.072 S 
ATOM     15  O   UNL     1      -0.477  -4.830   2.074  0.00  0.00    -0.150 OA
ATOM     16  O   UNL     1      -1.214  -3.907  -0.119  0.00  0.00    -0.150 OA
BRANCH  14  21
ATOM     17  C   UNL     1       0.160   1.630   3.163  0.00  0.00    +0.044 C 
ATOM     18  C   UNL     1       0.048   0.232   2.612  0.00  0.00    -0.047 A 
ATOM     19  C   UNL     1      -0.247   0.037   1.276  0.00  0.00    +0.005 A 
ATOM     20  C   UNL     1      -0.350  -1.246   0.771  0.00  0.00    +0.029 A 
ATOM     21  C   UNL     1      -0.158  -2.334   1.603  0.00  0.00    +0.109 A 
ATOM     22  C   UNL     1       0.137  -2.139   2.939  0.00  0.00    +0.032 A 
ATOM     23  C   UNL     1       0.245  -0.856   3.443  0.00  0.00    -0.046 A 
ATOM     24  C   UNL     1       0.572  -0.643   4.898  0.00  0.00    +0.044 C 
ENDBRANCH  14  21
ENDBRANCH   1  14
TORSDOF 4
