REMARK  Name = ZINC36529202
REMARK  12 active torsions:
REMARK  status: ('A' for Active; 'I' for Inactive)
REMARK    1  A    between atoms: C_1  and  C_2
REMARK    2  A    between atoms: C_2  and  C_3
REMARK    3  A    between atoms: C_2  and  C_4
REMARK    4  A    between atoms: C_2  and  N_5
REMARK    5  A    between atoms: C_6  and  C_8
REMARK    6  A    between atoms: C_8  and  C_10
REMARK    7  A    between atoms: C_8  and  N_19
REMARK    8  A    between atoms: C_11  and  O_18
REMARK    9  A    between atoms: C_13  and  O_17
REMARK   10  A    between atoms: C_15  and  O_16
REMARK   11  A    between atoms: N_19  and  C_20
REMARK   12  A    between atoms: C_21  and  C_23
REMARK                            x       y       z     vdW  Elec       q    Type
REMARK                         _______ _______ _______ _____ _____    ______ ____
ROOT
ATOM      1  C   UNL     1       2.704  -0.706  -2.611  0.00  0.00    +0.199 C 
ENDROOT
BRANCH   1   2
ATOM      2  C   UNL     1       1.754  -0.522  -3.765  0.00  0.00    +0.065 A 
ATOM      3  C   UNL     1       2.079  -1.022  -5.018  0.00  0.00    +0.129 A 
ATOM      4  C   UNL     1       1.204  -0.852  -6.080  0.00  0.00    +0.091 A 
ATOM      5  C   UNL     1       0.003  -0.184  -5.890  0.00  0.00    +0.124 A 
ATOM      6  C   UNL     1      -0.322   0.314  -4.638  0.00  0.00    +0.091 A 
ATOM      7  C   UNL     1       0.551   0.141  -3.574  0.00  0.00    +0.129 A 
BRANCH   7   8
ATOM      8  O   UNL     1       0.230   0.626  -2.346  0.00  0.00    -0.506 OA
ATOM      9  H   UNL     1       0.528   1.532  -2.190  0.00  0.00    +0.292 HD
ENDBRANCH   7   8
BRANCH   5  10
ATOM     10  O   UNL     1      -0.854  -0.018  -6.931  0.00  0.00    -0.507 OA
ATOM     11  H   UNL     1      -1.496  -0.734  -7.031  0.00  0.00    +0.292 HD
ENDBRANCH   5  10
BRANCH   3  12
ATOM     12  O   UNL     1       3.255  -1.677  -5.204  0.00  0.00    -0.506 OA
ATOM     13  H   UNL     1       3.220  -2.617  -4.982  0.00  0.00    +0.292 HD
ENDBRANCH   3  12
ENDBRANCH   1   2
BRANCH   1  15
ATOM     14  N   UNL     1       1.198  -1.789  -0.974  0.00  0.00    -0.309 N 
ATOM     15  C   UNL     1       1.930  -0.710  -1.318  0.00  0.00    +0.239 C 
ATOM     16  O   UNL     1       1.965   0.257  -0.587  0.00  0.00    -0.273 OA
ATOM     17  H   UNL     1       1.171  -2.562  -1.558  0.00  0.00    +0.149 HD
BRANCH  14  19
ATOM     18  C   UNL     1      -0.568  -0.646   0.274  0.00  0.00    +0.031 C 
ATOM     19  C   UNL     1       0.446  -1.793   0.283  0.00  0.00    +0.026 C 
ATOM     20  C   UNL     1       1.411  -1.611   1.456  0.00  0.00    +0.031 C 
ATOM     21  C   UNL     1      -0.292  -3.125   0.431  0.00  0.00    +0.031 C 
ENDBRANCH  14  19
ENDBRANCH   1  15
BRANCH   1  22
ATOM     22  N   UNL     1       3.673   0.392  -2.596  0.00  0.00    -0.282 N 
ATOM     23  C   UNL     1       3.212   1.773  -2.432  0.00  0.00    +0.133 C 
ATOM     24  C   UNL     1       4.989   0.133  -2.734  0.00  0.00    +0.283 C 
ATOM     25  O   UNL     1       5.364  -1.000  -2.973  0.00  0.00    -0.267 OA
BRANCH  24  26
ATOM     26  C   UNL     1       5.968   1.216  -2.596  0.00  0.00    +0.189 A 
ATOM     27  C   UNL     1       7.313   1.113  -2.808  0.00  0.00    +0.054 A 
ATOM     28  C   UNL     1       7.859   2.383  -2.563  0.00  0.00    +0.042 A 
ATOM     29  C   UNL     1       6.836   3.195  -2.217  0.00  0.00    +0.196 A 
ATOM     30  O   UNL     1       5.697   2.489  -2.242  0.00  0.00    -0.458 OA
ENDBRANCH  24  26
ENDBRANCH   1  22
TORSDOF 8
