REMARK  Name = ZINC02214838
REMARK  8 active torsions:
REMARK  status: ('A' for Active; 'I' for Inactive)
REMARK    1  A    between atoms: C_1  and  C_2
REMARK    2  A    between atoms: C_5  and  C_8
REMARK    3  A    between atoms: C_11  and  S_19
REMARK    4  A    between atoms: N_12  and  C_13
REMARK    5  A    between atoms: S_19  and  C_20
REMARK    6  A    between atoms: C_20  and  C_21
REMARK    7  A    between atoms: N_23  and  N_24
REMARK    8  A    between atoms: C_25  and  C_26
REMARK                            x       y       z     vdW  Elec       q    Type
REMARK                         _______ _______ _______ _____ _____    ______ ____
ROOT
ATOM      1  C   UNL     1       7.862  11.841  -0.014  0.00  0.00    +0.165 A 
ATOM      2  N   UNL     1       8.214  10.637  -0.399  0.00  0.00    -0.128 NA
ATOM      3  N   UNL     1       7.227   9.826  -0.259  0.00  0.00    -0.122 NA
ATOM      4  C   UNL     1       6.182  10.465   0.217  0.00  0.00    +0.193 A 
ATOM      5  N   UNL     1       6.550  11.768   0.393  0.00  0.00    -0.299 N 
ENDROOT
BRANCH   1  10
ATOM      6  C   UNL     1      11.184  16.541  -0.020  0.00  0.00    +0.044 C 
ATOM      7  C   UNL     1      10.314  15.310  -0.018  0.00  0.00    -0.050 A 
ATOM      8  C   UNL     1      10.881  14.066   0.193  0.00  0.00    +0.004 A 
ATOM      9  C   UNL     1      10.091  12.935   0.196  0.00  0.00    +0.012 A 
ATOM     10  C   UNL     1       8.716  13.049  -0.015  0.00  0.00    +0.019 A 
ATOM     11  C   UNL     1       8.151  14.306  -0.234  0.00  0.00    +0.012 A 
ATOM     12  C   UNL     1       8.952  15.429  -0.228  0.00  0.00    +0.004 A 
ENDBRANCH   1  10
BRANCH   5  13
ATOM     13  C   UNL     1       5.720  12.861   0.907  0.00  0.00    +0.091 C 
ATOM     14  C   UNL     1       5.143  12.466   2.267  0.00  0.00    +0.025 C 
ATOM     15  C   UNL     1       4.276  13.607   2.804  0.00  0.00    +0.002 C 
ATOM     16  C   UNL     1       3.133  13.883   1.826  0.00  0.00    +0.000 C 
ATOM     17  C   UNL     1       3.710  14.278   0.465  0.00  0.00    +0.002 C 
ATOM     18  C   UNL     1       4.577  13.137  -0.072  0.00  0.00    +0.025 C 
ENDBRANCH   5  13
BRANCH   4  19
ATOM     19  S   UNL     1       4.602   9.769   0.569  0.00  0.00    -0.077 S 
BRANCH  19  20
ATOM     20  C   UNL     1       4.901   8.051   0.084  0.00  0.00    +0.174 C 
BRANCH  20  21
ATOM     21  C   UNL     1       3.648   7.242   0.305  0.00  0.00    +0.242 C 
ATOM     22  O   UNL     1       2.652   7.774   0.747  0.00  0.00    -0.273 OA
ATOM     23  N   UNL     1       3.636   5.926   0.012  0.00  0.00    -0.206 N 
ATOM     24  H   UNL     1       4.433   5.500  -0.342  0.00  0.00    +0.177 HD
BRANCH  23  25
ATOM     25  N   UNL     1       2.472   5.174   0.217  0.00  0.00    -0.188 NA
ATOM     26  C   UNL     1       2.460   3.907  -0.065  0.00  0.00    +0.138 C 
BRANCH  26  27
ATOM     27  C   UNL     1       1.234   3.115   0.151  0.00  0.00    -0.004 A 
ATOM     28  C   UNL     1       1.218   1.752  -0.152  0.00  0.00    +0.009 A 
ATOM     29  C   UNL     1       0.069   1.017   0.052  0.00  0.00    +0.002 A 
ATOM     30  C   UNL     1      -1.068   1.628   0.550  0.00  0.00    +0.015 A 
ATOM     31  C   UNL     1      -1.058   2.978   0.858  0.00  0.00    +0.018 A 
ATOM     32  C   UNL     1       0.085   3.725   0.658  0.00  0.00    +0.024 A 
ATOM     33 BR   UNL     1      -2.616   3.801   1.545  0.00  0.00    -0.050 Br
ENDBRANCH  26  27
ENDBRANCH  23  25
ENDBRANCH  20  21
ENDBRANCH  19  20
ENDBRANCH   4  19
TORSDOF 7
