REMARK  Name = ZINC04781874
REMARK  7 active torsions:
REMARK  status: ('A' for Active; 'I' for Inactive)
REMARK    1  A    between atoms: C_1  and  C_2
REMARK    2  A    between atoms: C_2  and  C_3
REMARK    3  A    between atoms: C_3  and  C_4
REMARK    4  A    between atoms: C_4  and  N_5
REMARK    5  A    between atoms: N_8  and  N_9
REMARK    6  A    between atoms: C_10  and  C_12
REMARK    7  A    between atoms: C_12  and  C_13
REMARK                            x       y       z     vdW  Elec       q    Type
REMARK                         _______ _______ _______ _____ _____    ______ ____
ROOT
ATOM      1  N   UNL     1      -0.288   1.272  -2.443  0.00  0.00    -0.233 N 
ATOM      2  C   UNL     1      -0.742   1.585  -1.213  0.00  0.00    +0.231 C 
ATOM      3  O   UNL     1      -1.736   2.268  -1.088  0.00  0.00    -0.274 OA
ATOM      4  H   UNL     1       0.507   0.726  -2.543  0.00  0.00    +0.173 HD
ENDROOT
BRANCH   1   8
ATOM      5  N   UNL     1       0.592   0.664  -4.947  0.00  0.00    -0.298 N 
ATOM      6  C   UNL     1      -0.513   1.424  -4.808  0.00  0.00    +0.316 C 
ATOM      7  O   UNL     1      -1.101   1.827  -5.793  0.00  0.00    -0.251 OA
ATOM      8  N   UNL     1      -0.966   1.736  -3.578  0.00  0.00    -0.218 N 
ATOM      9  H   UNL     1       1.061   0.343  -4.161  0.00  0.00    +0.150 HD
ATOM     10  H   UNL     1      -1.761   2.283  -3.479  0.00  0.00    +0.174 HD
BRANCH   5  11
ATOM     11  C   UNL     1       1.085   0.325  -6.284  0.00  0.00    +0.106 C 
BRANCH  11  12
ATOM     12  C   UNL     1       2.342  -0.539  -6.160  0.00  0.00    +0.018 C 
BRANCH  12  14
ATOM     13  C   UNL     1       4.113  -1.757  -7.433  0.00  0.00    +0.004 C 
ATOM     14  C   UNL     1       2.856  -0.894  -7.556  0.00  0.00    -0.002 C 
ENDBRANCH  12  14
ENDBRANCH  11  12
ENDBRANCH   5  11
ENDBRANCH   1   8
BRANCH   2  15
ATOM     15  C   UNL     1      -0.013   1.086   0.008  0.00  0.00    +0.121 C 
BRANCH  15  16
ATOM     16  C   UNL     1      -0.729   1.579   1.267  0.00  0.00    +0.146 C 
ATOM     17  C   UNL     1       0.063   1.187   2.487  0.00  0.00    +0.231 C 
ATOM     18  O   UNL     1       0.794   2.013   2.991  0.00  0.00    -0.274 OA
ATOM     19  N   UNL     1      -0.001  -0.021   3.038  0.00  0.00    -0.284 N 
ATOM     20  C   UNL     1      -0.856  -1.057   2.675  0.00  0.00    +0.047 A 
ATOM     21  C   UNL     1      -0.588  -2.348   3.117  0.00  0.00    +0.024 A 
ATOM     22  C   UNL     1      -1.419  -3.393   2.764  0.00  0.00    +0.002 A 
ATOM     23  C   UNL     1      -2.532  -3.167   1.975  0.00  0.00    +0.001 A 
ATOM     24  C   UNL     1      -2.821  -1.885   1.543  0.00  0.00    +0.016 A 
ATOM     25  C   UNL     1      -1.993  -0.833   1.898  0.00  0.00    +0.030 A 
ATOM     26  S   UNL     1      -2.374   0.810   1.377  0.00  0.00    -0.110 S 
ATOM     27  H   UNL     1       0.611  -0.198   3.770  0.00  0.00    +0.155 HD
ENDBRANCH  15  16
ENDBRANCH   2  15
TORSDOF 6
