REMARK  Name = ZINC57589859
REMARK  7 active torsions:
REMARK  status: ('A' for Active; 'I' for Inactive)
REMARK    1  A    between atoms: C_1  and  C_2
REMARK    2  A    between atoms: C_5  and  C_34
REMARK    3  A    between atoms: C_9  and  C_14
REMARK    4  A    between atoms: C_14  and  C_16
REMARK    5  A    between atoms: C_14  and  N_27
REMARK    6  A    between atoms: N_20  and  C_21
REMARK    7  A    between atoms: C_30  and  O_33
REMARK                            x       y       z     vdW  Elec       q    Type
REMARK                         _______ _______ _______ _____ _____    ______ ____
ROOT
ATOM      1  C   UNL     1       0.048  -0.071   4.974  0.00  0.00    +0.162 C 
ENDROOT
BRANCH   1  10
ATOM      2  C   UNL     1      -0.018   1.503   0.010  0.00  0.00    +0.044 C 
ATOM      3  C   UNL     1       0.002  -0.004   0.002  0.00  0.00    -0.041 A 
ATOM      4  C   UNL     1       0.006  -0.684  -1.183  0.00  0.00    +0.004 A 
ATOM      5  C   UNL     1       0.025  -2.071  -1.202  0.00  0.00    +0.005 A 
ATOM      6  C   UNL     1       0.041  -2.791  -0.026  0.00  0.00    -0.026 A 
ATOM      7  C   UNL     1       0.037  -2.120   1.193  0.00  0.00    +0.052 A 
ATOM      8  C   UNL     1       0.023  -0.713   1.208  0.00  0.00    +0.002 A 
ATOM      9  C   UNL     1       0.025  -0.017   2.495  0.00  0.00    +0.021 A 
ATOM     10  C   UNL     1       0.045  -0.756   3.632  0.00  0.00    +0.042 A 
ATOM     11  C   UNL     1       0.065  -2.166   3.562  0.00  0.00    +0.254 A 
ATOM     12  O   UNL     1       0.083  -2.812   4.595  0.00  0.00    -0.268 OA
ATOM     13  N   UNL     1       0.053  -2.814   2.384  0.00  0.00    -0.322 N 
ATOM     14  H   UNL     1       0.066  -3.784   2.372  0.00  0.00    +0.169 HD
ATOM     15  C   UNL     1       0.061  -4.297  -0.061  0.00  0.00    +0.046 C 
ENDBRANCH   1  10
BRANCH   1  16
ATOM     16  N   UNL     1       1.196  -0.540   5.761  0.00  0.00    -0.289 NA
ATOM     17  C   UNL     1       2.454  -0.331   5.033  0.00  0.00    +0.088 C 
ATOM     18  C   UNL     1       3.609  -0.960   5.816  0.00  0.00    +0.047 C 
ATOM     19  C   UNL     1       3.688  -0.318   7.204  0.00  0.00    +0.117 C 
ATOM     20  C   UNL     1       2.349  -0.508   7.922  0.00  0.00    +0.047 C 
ATOM     21  C   UNL     1       1.231   0.108   7.078  0.00  0.00    +0.088 C 
BRANCH  19  22
ATOM     22  O   UNL     1       4.728  -0.941   7.959  0.00  0.00    -0.392 OA
ATOM     23  H   UNL     1       4.835  -0.583   8.851  0.00  0.00    +0.210 HD
ENDBRANCH  19  22
ENDBRANCH   1  16
BRANCH   1  24
ATOM     24  C   UNL     1      -1.229  -0.395   5.706  0.00  0.00    +0.173 A 
ATOM     25  N   UNL     1      -1.528  -1.528   6.295  0.00  0.00    -0.111 NA
ATOM     26  N   UNL     1      -2.705  -1.412   6.806  0.00  0.00    -0.023 NA
ATOM     27  N   UNL     1      -3.165  -0.235   6.558  0.00  0.00    -0.044 NA
ATOM     28  N   UNL     1      -2.282   0.423   5.886  0.00  0.00    -0.224 N 
BRANCH  28  29
ATOM     29  C   UNL     1      -2.405   1.802   5.406  0.00  0.00    +0.111 C 
ATOM     30  C   UNL     1      -2.599   2.741   6.598  0.00  0.00    +0.027 C 
ATOM     31  C   UNL     1      -2.727   4.181   6.098  0.00  0.00    +0.002 C 
ATOM     32  C   UNL     1      -3.932   4.290   5.161  0.00  0.00    +0.000 C 
ATOM     33  C   UNL     1      -3.737   3.351   3.969  0.00  0.00    +0.002 C 
ATOM     34  C   UNL     1      -3.609   1.911   4.470  0.00  0.00    +0.027 C 
ENDBRANCH  28  29
ENDBRANCH   1  24
TORSDOF 5
