REMARK  Name = ZINC63502896
REMARK  8 active torsions:
REMARK  status: ('A' for Active; 'I' for Inactive)
REMARK    1  A    between atoms: C_1  and  C_2
REMARK    2  A    between atoms: N_4  and  S_9
REMARK    3  A    between atoms: C_6  and  C_8
REMARK    4  A    between atoms: S_9  and  C_12
REMARK    5  A    between atoms: C_12  and  C_13
REMARK    6  A    between atoms: C_13  and  N_14
REMARK    7  A    between atoms: C_15  and  C_17
REMARK    8  A    between atoms: C_22  and  N_23
REMARK                            x       y       z     vdW  Elec       q    Type
REMARK                         _______ _______ _______ _____ _____    ______ ____
ROOT
ATOM      1  N   UNL     1       3.057   4.714  -3.687  0.00  0.00    -0.310 N 
ATOM      2  C   UNL     1       3.783   5.752  -4.149  0.00  0.00    +0.246 C 
ATOM      3  O   UNL     1       4.626   5.570  -5.005  0.00  0.00    -0.270 OA
ATOM      4  H   UNL     1       2.384   4.859  -3.004  0.00  0.00    +0.149 HD
ENDROOT
BRANCH   2   5
ATOM      5  C   UNL     1       3.554   7.111  -3.613  0.00  0.00    +0.070 A 
ATOM      6  C   UNL     1       2.274   7.667  -3.639  0.00  0.00    +0.053 A 
ATOM      7  C   UNL     1       2.067   8.938  -3.136  0.00  0.00    +0.124 A 
ATOM      8  C   UNL     1       3.127   9.657  -2.607  0.00  0.00    +0.040 A 
ATOM      9  C   UNL     1       4.397   9.109  -2.580  0.00  0.00    +0.036 A 
ATOM     10  C   UNL     1       4.615   7.839  -3.074  0.00  0.00    +0.138 A 
ATOM     11  F   UNL     1       0.830   9.479  -3.160  0.00  0.00    -0.205 F 
BRANCH  10  12
ATOM     12  N   UNL     1       5.974   7.253  -3.037  0.00  0.00    +0.057 N 
ATOM     13  O   UNL     1       6.914   7.927  -2.685  0.00  0.00    -0.126 OA
ATOM     14  O   UNL     1       6.144   6.100  -3.360  0.00  0.00    -0.126 OA
ENDBRANCH  10  12
ENDBRANCH   2   5
BRANCH   1  15
ATOM     15  C   UNL     1       3.284   3.368  -4.218  0.00  0.00    +0.128 C 
BRANCH  15  16
ATOM     16  C   UNL     1       2.337   2.382  -3.531  0.00  0.00    +0.204 C 
BRANCH  16  17
ATOM     17  S   UNL     1       2.618   0.715  -4.189  0.00  0.00    +0.033 S 
ATOM     18  O   UNL     1       3.899   0.243  -3.795  0.00  0.00    -0.158 OA
ATOM     19  O   UNL     1       2.207   0.649  -5.548  0.00  0.00    -0.158 OA
BRANCH  17  23
ATOM     20  C   UNL     1      -0.812   1.288  -2.444  0.00  0.00    +0.039 C 
ATOM     21  C   UNL     1      -0.817  -0.206  -2.777  0.00  0.00    +0.131 C 
ATOM     22  C   UNL     1       0.190  -0.484  -3.899  0.00  0.00    +0.140 C 
ATOM     23  N   UNL     1       1.545  -0.250  -3.376  0.00  0.00    -0.176 NA
ATOM     24  C   UNL     1       1.918  -0.897  -2.108  0.00  0.00    +0.140 C 
ATOM     25  C   UNL     1       0.828  -0.600  -1.073  0.00  0.00    +0.131 C 
ATOM     26  O   UNL     1      -0.446  -0.954  -1.616  0.00  0.00    -0.371 OA
ATOM     27  C   UNL     1       1.089  -1.417   0.194  0.00  0.00    +0.039 C 
ENDBRANCH  17  23
ENDBRANCH  16  17
ENDBRANCH  15  16
ENDBRANCH   1  15
TORSDOF 6
