REMARK  Name = ZINC39467220
REMARK  6 active torsions:
REMARK  status: ('A' for Active; 'I' for Inactive)
REMARK    1  A    between atoms: C_1  and  S_2
REMARK    2  A    between atoms: S_2  and  C_3
REMARK    3  A    between atoms: P_12  and  C_28
REMARK    4  A    between atoms: C_20  and  C_21
REMARK    5  A    between atoms: C_21  and  C_22
REMARK    6  A    between atoms: C_33  and  O_34
REMARK                            x       y       z     vdW  Elec       q    Type
REMARK                         _______ _______ _______ _____ _____    ______ ____
ROOT
ATOM      1  C   UNL     1       0.877  -0.427   1.472  0.00  0.00    +0.007 C 
ATOM      2  C   UNL     1       1.333   0.535   2.284  0.00  0.00    -0.008 C 
ATOM      3  C   UNL     1       2.072   0.155   3.545  0.00  0.00    +0.017 C 
ATOM      4  C   UNL     1       3.525  -0.160   3.187  0.00  0.00    -0.003 C 
ATOM      5  C   UNL     1       4.282  -0.677   4.416  0.00  0.00    -0.020 C 
ATOM      6  C   UNL     1       5.720  -0.968   3.970  0.00  0.00    +0.157 C 
ATOM      7  O   UNL     1       6.495  -1.410   5.099  0.00  0.00    -0.316 OA
ATOM      8  P   UNL     1       5.881  -2.607   6.014  0.00  0.00    +0.291 P 
ATOM      9  O   UNL     1       6.476  -2.575   7.368  0.00  0.00    -0.269 OA
ATOM     10  N   UNL     1       4.261  -2.305   6.093  0.00  0.00    -0.288 NA
ATOM     11  N   UNL     1       3.633  -1.881   4.940  0.00  0.00    +0.398 N 
ATOM     12  C   UNL     1       2.243  -1.588   5.325  0.00  0.00    -0.046 C 
ATOM     13  C   UNL     1       1.418  -1.095   4.141  0.00  0.00    +0.005 C 
ATOM     14  C   UNL     1       1.343  -2.172   3.093  0.00  0.00    -0.020 C 
ATOM     15  C   UNL     1       1.105  -1.844   1.819  0.00  0.00    -0.034 C 
ATOM     16  H   UNL     1       3.769  -2.424   6.920  0.00  0.00    +0.111 HD
ATOM     17  H   UNL     1       3.660  -2.612   4.245  0.00  0.00    -0.055 HD
ENDROOT
BRANCH   8  18
ATOM     18  C   UNL     1       6.187  -4.216   5.232  0.00  0.00    +0.091 A 
ATOM     19  C   UNL     1       5.266  -4.740   4.345  0.00  0.00    +0.018 A 
ATOM     20  C   UNL     1       5.499  -5.965   3.750  0.00  0.00    +0.001 A 
ATOM     21  C   UNL     1       6.653  -6.670   4.039  0.00  0.00    +0.004 A 
ATOM     22  C   UNL     1       7.577  -6.150   4.925  0.00  0.00    +0.046 A 
ATOM     23  C   UNL     1       7.348  -4.918   5.520  0.00  0.00    +0.131 A 
BRANCH  23  24
ATOM     24  O   UNL     1       8.259  -4.402   6.387  0.00  0.00    -0.506 OA
ATOM     25  H   UNL     1       8.112  -4.655   7.309  0.00  0.00    +0.292 HD
ENDBRANCH  23  24
ENDBRANCH   8  18
BRANCH   1  27
ATOM     26  C   UNL     1      -0.022   1.810   0.012  0.00  0.00    +0.090 C 
ATOM     27  S   UNL     1       0.002  -0.004   0.002  0.00  0.00    -0.129 S 
ENDBRANCH   1  27
BRANCH  15  28
ATOM     28  C   UNL     1       1.046  -2.906   0.751  0.00  0.00    +0.071 C 
BRANCH  28  29
ATOM     29  C   UNL     1      -0.383  -3.338   0.550  0.00  0.00    -0.043 A 
ATOM     30  C   UNL     1      -0.902  -4.379   1.297  0.00  0.00    +0.004 A 
ATOM     31  C   UNL     1      -2.214  -4.775   1.113  0.00  0.00    +0.000 A 
ATOM     32  C   UNL     1      -3.006  -4.130   0.182  0.00  0.00    +0.000 A 
ATOM     33  C   UNL     1      -2.488  -3.088  -0.564  0.00  0.00    +0.000 A 
ATOM     34  C   UNL     1      -1.178  -2.689  -0.377  0.00  0.00    +0.004 A 
ENDBRANCH  28  29
ENDBRANCH  15  28
TORSDOF 5
