REMARK  Name = ZINC40895135
REMARK  9 active torsions:
REMARK  status: ('A' for Active; 'I' for Inactive)
REMARK    1  A    between atoms: C_4  and  C_7
REMARK    2  A    between atoms: C_7  and  C_8
REMARK    3  A    between atoms: C_8  and  N_9
REMARK    4  A    between atoms: C_10  and  C_12
REMARK    5  A    between atoms: C_17  and  O_23
REMARK    6  A    between atoms: O_23  and  C_24
REMARK    7  A    between atoms: C_24  and  C_26
REMARK    8  A    between atoms: C_26  and  O_27
REMARK    9  A    between atoms: O_27  and  C_28
REMARK                            x       y       z     vdW  Elec       q    Type
REMARK                         _______ _______ _______ _____ _____    ______ ____
ROOT
ATOM      1  C   UNL     1       7.285  -2.838   2.465  0.00  0.00    +0.122 A 
ATOM      2  C   UNL     1       7.964  -3.107   3.648  0.00  0.00    +0.031 A 
ATOM      3  C   UNL     1       9.215  -3.765   3.564  0.00  0.00    +0.019 A 
ATOM      4  C   UNL     1       9.848  -4.240   4.724  0.00  0.00    +0.015 A 
ATOM      5  C   UNL     1      11.032  -4.909   4.625  0.00  0.00    +0.047 A 
ATOM      6  C   UNL     1      11.625  -5.119   3.381  0.00  0.00    +0.135 A 
ATOM      7  C   UNL     1      11.026  -4.640   2.227  0.00  0.00    +0.093 A 
ATOM      8  C   UNL     1       9.826  -3.952   2.308  0.00  0.00    +0.143 A 
ATOM      9  O   UNL     1       9.253  -3.442   1.191  0.00  0.00    -0.422 OA
ATOM     10  C   UNL     1       7.905  -3.294   1.209  0.00  0.00    +0.350 A 
ATOM     11  O   UNL     1       7.231  -3.527   0.223  0.00  0.00    -0.244 OA
ENDROOT
BRANCH   1  13
ATOM     12  N   UNL     1       5.357  -1.886   1.306  0.00  0.00    -0.311 N 
ATOM     13  C   UNL     1       5.995  -2.129   2.468  0.00  0.00    +0.251 C 
ATOM     14  O   UNL     1       5.505  -1.763   3.519  0.00  0.00    -0.270 OA
ATOM     15  H   UNL     1       5.748  -2.179   0.467  0.00  0.00    +0.149 HD
BRANCH  12  16
ATOM     16  C   UNL     1       4.073  -1.181   1.308  0.00  0.00    +0.109 C 
BRANCH  16  17
ATOM     17  C   UNL     1       3.568  -1.037  -0.129  0.00  0.00    +0.054 C 
BRANCH  17  21
ATOM     18  C   UNL     1      -0.177   1.020  -0.123  0.00  0.00    +0.000 A 
ATOM     19  C   UNL     1       1.004   1.733  -0.220  0.00  0.00    +0.000 A 
ATOM     20  C   UNL     1       2.215   1.067  -0.222  0.00  0.00    +0.004 A 
ATOM     21  C   UNL     1       2.247  -0.311  -0.126  0.00  0.00    -0.046 A 
ATOM     22  C   UNL     1       1.067  -1.024  -0.028  0.00  0.00    +0.004 A 
ATOM     23  C   UNL     1      -0.145  -0.359  -0.028  0.00  0.00    +0.000 A 
ENDBRANCH  17  21
ENDBRANCH  16  17
ENDBRANCH  12  16
ENDBRANCH   1  13
BRANCH   6  24
ATOM     24  O   UNL     1      12.799  -5.796   3.300  0.00  0.00    -0.423 OA
BRANCH  24  25
ATOM     25  C   UNL     1      13.899  -5.111   2.950  0.00  0.00    +0.350 C 
ATOM     26  O   UNL     1      13.848  -3.910   2.820  0.00  0.00    -0.247 OA
BRANCH  25  27
ATOM     27  C   UNL     1      15.199  -5.838   2.720  0.00  0.00    +0.349 C 
BRANCH  27  28
ATOM     28  O   UNL     1      16.214  -4.899   2.360  0.00  0.00    -0.479 OA
BRANCH  28  29
ATOM     29  C   UNL     1      17.456  -5.395   2.116  0.00  0.00    +0.140 A 
ATOM     30  C   UNL     1      17.690  -6.759   2.215  0.00  0.00    +0.048 A 
ATOM     31  C   UNL     1      18.953  -7.261   1.967  0.00  0.00    +0.023 A 
ATOM     32  C   UNL     1      19.984  -6.406   1.620  0.00  0.00    +0.043 A 
ATOM     33  C   UNL     1      19.753  -5.045   1.520  0.00  0.00    +0.043 A 
ATOM     34  C   UNL     1      18.489  -4.539   1.762  0.00  0.00    +0.084 A 
ATOM     35 CL   UNL     1      18.197  -2.833   1.630  0.00  0.00    -0.080 Cl
ATOM     36 CL   UNL     1      21.570  -7.040   1.309  0.00  0.00    -0.083 Cl
ENDBRANCH  28  29
ENDBRANCH  27  28
ENDBRANCH  25  27
ENDBRANCH  24  25
ENDBRANCH   6  24
TORSDOF 9
