REMARK  Name = ZINC40984866
REMARK  14 active torsions:
REMARK  status: ('A' for Active; 'I' for Inactive)
REMARK    1  A    between atoms: C_1  and  C_2
REMARK    2  A    between atoms: C_2  and  O_3
REMARK    3  A    between atoms: O_3  and  C_4
REMARK    4  A    between atoms: C_9  and  C_10
REMARK    5  A    between atoms: C_12  and  C_16
REMARK    6  A    between atoms: C_13  and  C_15
REMARK    7  A    between atoms: C_16  and  N_17
REMARK    8  A    between atoms: C_20  and  C_23
REMARK    9  A    between atoms: N_25  and  C_26
REMARK   10  A    between atoms: C_26  and  C_28
REMARK   11  A    between atoms: C_26  and  C_29
REMARK   12  A    between atoms: C_29  and  C_30
REMARK   13  A    between atoms: C_30  and  C_31
REMARK   14  A    between atoms: C_30  and  C_32
REMARK                            x       y       z     vdW  Elec       q    Type
REMARK                         _______ _______ _______ _____ _____    ______ ____
ROOT
ATOM      1  N   UNL     1       5.360  -0.947   6.862  0.00  0.00    +0.383 N 
ATOM      2  C   UNL     1       5.578   0.317   6.148  0.00  0.00    -0.078 C 
ATOM      3  C   UNL     1       7.014   0.368   5.622  0.00  0.00    -0.006 C 
ATOM      4  C   UNL     1       7.987   0.272   6.801  0.00  0.00    +0.071 C 
ATOM      5  C   UNL     1       7.701  -1.013   7.582  0.00  0.00    -0.006 C 
ATOM      6  C   UNL     1       6.240  -1.014   8.035  0.00  0.00    -0.078 C 
ATOM      7  H   UNL     1       5.564  -1.719   6.246  0.00  0.00    -0.081 HD
ENDROOT
BRANCH   4   8
ATOM      8  C   UNL     1       9.402   0.244   6.284  0.00  0.00    +0.216 C 
ATOM      9  O   UNL     1       9.614   0.295   5.091  0.00  0.00    -0.276 OA
ATOM     10  N   UNL     1      10.433   0.161   7.149  0.00  0.00    -0.312 N 
ATOM     11  H   UNL     1      10.264   0.120   8.103  0.00  0.00    +0.149 HD
BRANCH  10  12
ATOM     12  C   UNL     1      11.809   0.134   6.647  0.00  0.00    +0.070 C 
ATOM     13  C   UNL     1      12.191  -1.302   6.282  0.00  0.00    +0.028 C 
BRANCH  12  14
ATOM     14  C   UNL     1      12.758   0.654   7.729  0.00  0.00    +0.025 C 
BRANCH  14  15
ATOM     15  C   UNL     1      12.430   2.118   8.033  0.00  0.00    -0.015 C 
ATOM     16  C   UNL     1      13.278   2.595   9.213  0.00  0.00    +0.007 C 
ATOM     17  C   UNL     1      12.739   2.975   6.804  0.00  0.00    +0.007 C 
ENDBRANCH  14  15
ENDBRANCH  12  14
ENDBRANCH  10  12
ENDBRANCH   4   8
BRANCH   1  18
ATOM     18  C   UNL     1       3.959  -1.026   7.298  0.00  0.00    -0.019 C 
BRANCH  18  21
ATOM     19  C   UNL     1       1.880  -1.846   4.454  0.00  0.00    +0.231 A 
ATOM     20  N   UNL     1       2.650  -2.193   5.459  0.00  0.00    -0.216 NA
ATOM     21  C   UNL     1       3.060  -1.081   6.089  0.00  0.00    +0.066 A 
ATOM     22  C   UNL     1       2.525  -0.025   5.452  0.00  0.00    +0.124 A 
ATOM     23  O   UNL     1       1.792  -0.505   4.426  0.00  0.00    -0.440 OA
ATOM     24  C   UNL     1       2.713   1.426   5.812  0.00  0.00    +0.088 C 
BRANCH  19  30
ATOM     25  C   UNL     1       0.429  -2.274   2.471  0.00  0.00    +0.133 A 
ATOM     26  C   UNL     1      -0.176  -3.152   1.586  0.00  0.00    +0.046 A 
ATOM     27  C   UNL     1       0.001  -4.515   1.732  0.00  0.00    +0.004 A 
ATOM     28  C   UNL     1       0.783  -5.012   2.760  0.00  0.00    +0.001 A 
ATOM     29  C   UNL     1       1.393  -4.152   3.649  0.00  0.00    +0.017 A 
ATOM     30  C   UNL     1       1.225  -2.773   3.509  0.00  0.00    +0.078 A 
BRANCH  25  31
ATOM     31  O   UNL     1       0.256  -0.935   2.328  0.00  0.00    -0.491 OA
BRANCH  31  33
ATOM     32  C   UNL     1      -0.646   1.029   1.247  0.00  0.00    +0.048 C 
ATOM     33  C   UNL     1      -0.570  -0.499   1.246  0.00  0.00    +0.226 C 
ENDBRANCH  31  33
ENDBRANCH  25  31
ENDBRANCH  19  30
ENDBRANCH  18  21
ENDBRANCH   1  18
TORSDOF 9
