REMARK  Name = ZINC05077801
REMARK  7 active torsions:
REMARK  status: ('A' for Active; 'I' for Inactive)
REMARK    1  A    between atoms: C_1  and  C_2
REMARK    2  A    between atoms: C_5  and  O_8
REMARK    3  A    between atoms: O_8  and  C_9
REMARK    4  A    between atoms: C_9  and  C_10
REMARK    5  A    between atoms: N_12  and  C_13
REMARK    6  A    between atoms: N_17  and  C_18
REMARK    7  A    between atoms: C_21  and  N_24
REMARK                            x       y       z     vdW  Elec       q    Type
REMARK                         _______ _______ _______ _____ _____    ______ ____
ROOT
ATOM      1  C   UNL     1       3.031   7.807   0.327  0.00  0.00    +0.133 A 
ATOM      2  C   UNL     1       3.978   8.802   0.251  0.00  0.00    +0.026 A 
ATOM      3  C   UNL     1       3.315  10.008   0.094  0.00  0.00    +0.079 A 
ATOM      4  N   UNL     1       2.012   9.767   0.083  0.00  0.00    -0.168 NA
ATOM      5  N   UNL     1       1.812   8.393   0.227  0.00  0.00    -0.218 N 
ATOM      6  C   UNL     1       4.183  11.260  -0.017  0.00  0.00    +0.127 C 
ATOM      7  S   UNL     1       5.838  10.541  -0.376  0.00  0.00    -0.150 S 
ATOM      8  C   UNL     1       5.504   8.856   0.284  0.00  0.00    +0.110 C 
ENDROOT
BRANCH   5   9
ATOM      9  C   UNL     1       0.574   7.738   0.264  0.00  0.00    +0.068 A 
ATOM     10  C   UNL     1       0.402   6.537  -0.411  0.00  0.00    +0.030 A 
ATOM     11  C   UNL     1      -0.818   5.891  -0.369  0.00  0.00    +0.035 A 
ATOM     12  C   UNL     1      -1.871   6.444   0.336  0.00  0.00    +0.126 A 
ATOM     13  C   UNL     1      -1.704   7.642   1.005  0.00  0.00    +0.035 A 
ATOM     14  C   UNL     1      -0.485   8.291   0.971  0.00  0.00    +0.030 A 
BRANCH  12  15
ATOM     15  N   UNL     1      -3.179   5.752   0.374  0.00  0.00    +0.056 N 
ATOM     16  O   UNL     1      -4.107   6.238   0.994  0.00  0.00    -0.126 OA
ATOM     17  O   UNL     1      -3.326   4.696  -0.215  0.00  0.00    -0.126 OA
ENDBRANCH  12  15
ENDBRANCH   5   9
BRANCH   1  20
ATOM     18  C   UNL     1       4.399   6.031   1.109  0.00  0.00    +0.256 C 
ATOM     19  O   UNL     1       5.224   6.841   1.474  0.00  0.00    -0.272 OA
ATOM     20  N   UNL     1       3.279   6.444   0.484  0.00  0.00    -0.267 N 
ATOM     21  H   UNL     1       2.645   5.793   0.143  0.00  0.00    +0.156 HD
BRANCH  18  22
ATOM     22  C   UNL     1       4.625   4.561   1.355  0.00  0.00    +0.324 C 
BRANCH  22  23
ATOM     23  O   UNL     1       5.873   4.378   2.028  0.00  0.00    -0.483 OA
BRANCH  23  28
ATOM     24  C   UNL     1       7.359  -0.913   3.264  0.00  0.00    +0.044 C 
ATOM     25  C   UNL     1       6.961   0.503   2.933  0.00  0.00    -0.050 A 
ATOM     26  C   UNL     1       7.791   1.552   3.281  0.00  0.00    +0.007 A 
ATOM     27  C   UNL     1       7.429   2.851   2.979  0.00  0.00    +0.046 A 
ATOM     28  C   UNL     1       6.231   3.102   2.326  0.00  0.00    +0.121 A 
ATOM     29  C   UNL     1       5.400   2.047   1.978  0.00  0.00    +0.046 A 
ATOM     30  C   UNL     1       5.766   0.750   2.283  0.00  0.00    +0.007 A 
ENDBRANCH  23  28
ENDBRANCH  22  23
ENDBRANCH  18  22
ENDBRANCH   1  20
TORSDOF 6
