REMARK  Name = ZINC38963691
REMARK  7 active torsions:
REMARK  status: ('A' for Active; 'I' for Inactive)
REMARK    1  A    between atoms: C_1  and  C_2
REMARK    2  A    between atoms: C_9  and  C_14
REMARK    3  A    between atoms: C_14  and  N_15
REMARK    4  A    between atoms: N_15  and  C_16
REMARK    5  A    between atoms: C_21  and  O_22
REMARK    6  A    between atoms: O_22  and  C_23
REMARK    7  A    between atoms: C_24  and  C_26
REMARK                            x       y       z     vdW  Elec       q    Type
REMARK                         _______ _______ _______ _____ _____    ______ ____
ROOT
ATOM      1  N   UNL     1      -1.014  -6.357   3.119  0.00  0.00    -0.261 N 
ATOM      2  C   UNL     1      -1.578  -7.199   2.230  0.00  0.00    +0.286 C 
ATOM      3  O   UNL     1      -2.122  -6.758   1.234  0.00  0.00    -0.266 OA
ENDROOT
BRANCH   1   4
ATOM      4  C   UNL     1      -0.310  -6.867   4.216  0.00  0.00    +0.079 A 
ATOM      5  C   UNL     1      -0.972  -7.131   5.406  0.00  0.00    +0.027 A 
ATOM      6  C   UNL     1      -0.275  -7.634   6.488  0.00  0.00    +0.002 A 
ATOM      7  C   UNL     1       1.083  -7.875   6.388  0.00  0.00    +0.004 A 
ATOM      8  C   UNL     1       1.750  -7.614   5.206  0.00  0.00    +0.047 A 
ATOM      9  C   UNL     1       1.057  -7.115   4.115  0.00  0.00    +0.141 A 
BRANCH   9  10
ATOM     10  O   UNL     1       1.711  -6.864   2.949  0.00  0.00    -0.493 OA
ATOM     11  C   UNL     1       3.112  -7.143   2.918  0.00  0.00    +0.277 C 
ENDBRANCH   9  10
ENDBRANCH   1   4
BRANCH   2  12
ATOM     12  C   UNL     1      -1.535  -8.646   2.461  0.00  0.00    +0.190 A 
ATOM     13  C   UNL     1      -1.973  -9.610   1.599  0.00  0.00    +0.054 A 
ATOM     14  C   UNL     1      -1.740 -10.845   2.223  0.00  0.00    +0.042 A 
ATOM     15  C   UNL     1      -1.177 -10.585   3.424  0.00  0.00    +0.196 A 
ATOM     16  O   UNL     1      -1.051  -9.259   3.562  0.00  0.00    -0.458 OA
ENDBRANCH   2  12
BRANCH   1  17
ATOM     17  C   UNL     1      -1.139  -4.909   2.937  0.00  0.00    +0.131 C 
BRANCH  17  26
ATOM     18  C   UNL     1       0.139   1.493   0.041  0.00  0.00    +0.044 C 
ATOM     19  C   UNL     1       0.154  -0.013   0.036  0.00  0.00    -0.050 A 
ATOM     20  C   UNL     1       0.207  -0.692  -1.182  0.00  0.00    +0.005 A 
ATOM     21  C   UNL     1       0.224  -2.048  -1.265  0.00  0.00    +0.024 A 
ATOM     22  C   UNL     1       0.189  -2.836  -0.100  0.00  0.00    +0.040 A 
ATOM     23  N   UNL     1       0.207  -4.165  -0.194  0.00  0.00    -0.284 N 
ATOM     24  C   UNL     1       0.176  -4.964   0.860  0.00  0.00    +0.226 C 
ATOM     25  O   UNL     1       0.194  -6.171   0.711  0.00  0.00    -0.275 OA
ATOM     26  C   UNL     1       0.118  -4.371   2.249  0.00  0.00    +0.116 C 
ATOM     27  C   UNL     1       0.098  -2.859   2.362  0.00  0.00    -0.003 C 
ATOM     28  C   UNL     1       0.134  -2.146   1.200  0.00  0.00    -0.007 A 
ATOM     29  C   UNL     1       0.123  -0.682   1.218  0.00  0.00    +0.012 A 
ATOM     30  H   UNL     1       0.244  -4.566  -1.077  0.00  0.00    +0.155 HD
ENDBRANCH  17  26
ENDBRANCH   1  17
TORSDOF 5
