REMARK  Name = ZINC50744846
REMARK  8 active torsions:
REMARK  status: ('A' for Active; 'I' for Inactive)
REMARK    1  A    between atoms: C_4  and  C_7
REMARK    2  A    between atoms: C_8  and  C_9
REMARK    3  A    between atoms: N_11  and  C_12
REMARK    4  A    between atoms: C_12  and  C_21
REMARK    5  A    between atoms: C_13  and  C_14
REMARK    6  A    between atoms: N_23  and  C_24
REMARK    7  A    between atoms: C_24  and  C_25
REMARK    8  A    between atoms: C_25  and  C_26
REMARK                            x       y       z     vdW  Elec       q    Type
REMARK                         _______ _______ _______ _____ _____    ______ ____
ROOT
ATOM      1  C   UNL     1       6.193  -4.735  -0.060  0.00  0.00    +0.097 C 
ATOM      2  C   UNL     1       7.330  -4.011  -0.170  0.00  0.00    +0.036 C 
ENDROOT
BRANCH   2   3
ATOM      3  C   UNL     1       8.597  -4.678  -0.510  0.00  0.00    -0.023 A 
ATOM      4  C   UNL     1       8.595  -5.816  -1.323  0.00  0.00    +0.009 A 
ATOM      5  C   UNL     1       9.786  -6.435  -1.638  0.00  0.00    +0.020 A 
ATOM      6  C   UNL     1      10.982  -5.934  -1.150  0.00  0.00    +0.041 A 
ATOM      7  C   UNL     1      10.991  -4.807  -0.343  0.00  0.00    +0.020 A 
ATOM      8  C   UNL     1       9.809  -4.173  -0.026  0.00  0.00    +0.009 A 
ATOM      9 CL   UNL     1      12.476  -6.721  -1.551  0.00  0.00    -0.084 Cl
ENDBRANCH   2   3
BRANCH   1  12
ATOM     10  C   UNL     1       3.849  -4.811   0.334  0.00  0.00    +0.241 C 
ATOM     11  O   UNL     1       3.889  -6.026   0.276  0.00  0.00    -0.270 OA
ATOM     12  N   UNL     1       4.968  -4.088   0.124  0.00  0.00    -0.278 N 
ATOM     13  H   UNL     1       4.922  -3.120   0.101  0.00  0.00    +0.155 HD
BRANCH  10  15
ATOM     14  C   UNL     1       1.467  -4.856   0.842  0.00  0.00    +0.013 C 
ATOM     15  C   UNL     1       2.586  -4.133   0.632  0.00  0.00    +0.068 C 
BRANCH  14  19
ATOM     16  C   UNL     1      -2.193  -2.894   1.706  0.00  0.00    +0.000 A 
ATOM     17  C   UNL     1      -2.152  -4.276   1.640  0.00  0.00    +0.001 A 
ATOM     18  C   UNL     1      -0.966  -4.921   1.360  0.00  0.00    +0.008 A 
ATOM     19  C   UNL     1       0.197  -4.175   1.142  0.00  0.00    -0.025 A 
ATOM     20  C   UNL     1       0.146  -2.779   1.210  0.00  0.00    +0.008 A 
ATOM     21  C   UNL     1      -1.047  -2.149   1.491  0.00  0.00    +0.001 A 
ENDBRANCH  14  19
ENDBRANCH  10  15
ENDBRANCH   1  12
BRANCH   1  22
ATOM     22  C   UNL     1       6.245  -6.203  -0.134  0.00  0.00    +0.258 C 
ATOM     23  O   UNL     1       5.771  -6.780  -1.094  0.00  0.00    -0.269 OA
ATOM     24  N   UNL     1       6.819  -6.908   0.861  0.00  0.00    -0.310 N 
ATOM     25  H   UNL     1       7.131  -6.454   1.659  0.00  0.00    +0.149 HD
BRANCH  24  26
ATOM     26  C   UNL     1       6.970  -8.360   0.737  0.00  0.00    +0.112 C 
BRANCH  26  27
ATOM     27  C   UNL     1       7.532  -8.927   2.042  0.00  0.00    +0.093 C 
BRANCH  27  28
ATOM     28  C   UNL     1       7.801 -10.400   1.875  0.00  0.00    +0.110 A 
ATOM     29  N   UNL     1       8.996 -11.006   2.113  0.00  0.00    -0.342 N 
ATOM     30  H   UNL     1       9.810 -10.573   2.416  0.00  0.00    +0.167 HD
ATOM     31  C   UNL     1       8.835 -12.351   1.844  0.00  0.00    +0.066 A 
ATOM     32  C   UNL     1       9.675 -13.455   1.900  0.00  0.00    +0.028 A 
ATOM     33  C   UNL     1       9.191 -14.699   1.556  0.00  0.00    +0.002 A 
ATOM     34  C   UNL     1       7.871 -14.854   1.156  0.00  0.00    +0.002 A 
ATOM     35  C   UNL     1       7.030 -13.779   1.096  0.00  0.00    +0.030 A 
ATOM     36  C   UNL     1       7.499 -12.508   1.440  0.00  0.00    +0.089 A 
ATOM     37  N   UNL     1       6.924 -11.279   1.486  0.00  0.00    -0.232 NA
ENDBRANCH  27  28
ENDBRANCH  26  27
ENDBRANCH  24  26
ENDBRANCH   1  22
TORSDOF 8
