REMARK  Name = ZINC06678314
REMARK  5 active torsions:
REMARK  status: ('A' for Active; 'I' for Inactive)
REMARK    1  A    between atoms: C_1  and  C_2
REMARK    2  A    between atoms: N_10  and  C_12
REMARK    3  A    between atoms: N_18  and  C_28
REMARK    4  A    between atoms: N_21  and  C_24
REMARK    5  A    between atoms: C_24  and  C_25
REMARK                            x       y       z     vdW  Elec       q    Type
REMARK                         _______ _______ _______ _____ _____    ______ ____
ROOT
ATOM      1  C   UNL     1       1.703  -4.597   3.814  0.00  0.00    +0.011 C 
ATOM      2  C   UNL     1       1.372  -4.032   2.432  0.00  0.00    +0.023 C 
ATOM      3  C   UNL     1       2.497  -4.385   1.448  0.00  0.00    +0.130 C 
ATOM      4  N   UNL     1       2.322  -3.558   0.249  0.00  0.00    -0.306 N 
ATOM      5  C   UNL     1       2.897  -3.706  -0.987  0.00  0.00    +0.153 A 
ATOM      6  C   UNL     1       2.402  -2.659  -1.779  0.00  0.00    +0.170 A 
ATOM      7  N   UNL     1       1.581  -1.943  -1.031  0.00  0.00    -0.196 NA
ATOM      8  C   UNL     1       1.515  -2.458   0.184  0.00  0.00    +0.201 A 
ATOM      9  N   UNL     1       0.762  -1.980   1.234  0.00  0.00    -0.298 N 
ATOM     10  C   UNL     1       1.252  -2.507   2.515  0.00  0.00    +0.113 C 
ATOM     11  N   UNL     1       2.806  -2.537  -3.101  0.00  0.00    -0.279 N 
ATOM     12  C   UNL     1       3.679  -3.459  -3.568  0.00  0.00    +0.334 A 
ATOM     13  O   UNL     1       4.048  -3.373  -4.724  0.00  0.00    -0.246 OA
ATOM     14  N   UNL     1       4.157  -4.465  -2.820  0.00  0.00    -0.248 N 
ATOM     15  C   UNL     1       3.804  -4.641  -1.523  0.00  0.00    +0.283 A 
ATOM     16  O   UNL     1       4.247  -5.560  -0.857  0.00  0.00    -0.265 OA
ATOM     17  C   UNL     1       2.309  -1.455  -3.955  0.00  0.00    +0.155 C 
ENDROOT
BRANCH   9  18
ATOM     18  C   UNL     1       0.742  -0.511   1.242  0.00  0.00    +0.076 C 
ATOM     19  C   UNL     1       0.002  -0.004   0.002  0.00  0.00    +0.022 C 
ATOM     20  C   UNL     1      -0.019   1.526   0.010  0.00  0.00    +0.002 C 
ATOM     21  C   UNL     1       1.417   2.055  -0.000  0.00  0.00    +0.000 C 
ATOM     22  C   UNL     1       2.157   1.548   1.239  0.00  0.00    +0.002 C 
ATOM     23  C   UNL     1       2.178   0.019   1.231  0.00  0.00    +0.022 C 
ENDBRANCH   9  18
BRANCH  14  24
ATOM     24  C   UNL     1       5.099  -5.408  -3.428  0.00  0.00    +0.255 C 
BRANCH  24  25
ATOM     25  C   UNL     1       6.508  -4.911  -3.228  0.00  0.00    +0.376 C 
ATOM     26  O   UNL     1       6.705  -3.875  -2.638  0.00  0.00    -0.244 OA
ATOM     27  O   UNL     1       7.543  -5.620  -3.705  0.00  0.00    -0.244 OA
ENDBRANCH  24  25
ENDBRANCH  14  24
TORSDOF 3
