REMARK  Name = ZINC56748346
REMARK  10 active torsions:
REMARK  status: ('A' for Active; 'I' for Inactive)
REMARK    1  A    between atoms: C_1  and  N_2
REMARK    2  A    between atoms: N_2  and  C_3
REMARK    3  A    between atoms: N_2  and  C_4
REMARK    4  A    between atoms: C_4  and  C_6
REMARK    5  A    between atoms: C_4  and  C_25
REMARK    6  A    between atoms: C_6  and  N_7
REMARK    7  A    between atoms: N_10  and  C_11
REMARK    8  A    between atoms: C_16  and  C_17
REMARK    9  A    between atoms: C_17  and  O_18
REMARK   10  A    between atoms: O_18  and  C_19
REMARK                            x       y       z     vdW  Elec       q    Type
REMARK                         _______ _______ _______ _____ _____    ______ ____
ROOT
ATOM      1  N   UNL     1      -1.400  -2.457   1.085  0.00  0.00    -0.300 N 
ATOM      2  C   UNL     1      -1.609  -3.748   1.411  0.00  0.00    +0.304 C 
ATOM      3  O   UNL     1      -2.385  -4.421   0.760  0.00  0.00    -0.253 OA
ATOM      4  N   UNL     1      -0.959  -4.292   2.458  0.00  0.00    -0.269 N 
ATOM      5  H   UNL     1      -0.781  -1.920   1.605  0.00  0.00    +0.150 HD
ATOM      6  H   UNL     1      -0.393  -3.739   3.019  0.00  0.00    +0.156 HD
ENDROOT
BRANCH   4   7
ATOM      7  C   UNL     1      -1.100  -5.657   2.737  0.00  0.00    +0.041 A 
ATOM      8  C   UNL     1      -2.250  -6.331   2.349  0.00  0.00    +0.024 A 
ATOM      9  C   UNL     1      -2.386  -7.677   2.624  0.00  0.00    +0.002 A 
ATOM     10  C   UNL     1      -1.378  -8.354   3.286  0.00  0.00    +0.000 A 
ATOM     11  C   UNL     1      -0.232  -7.686   3.674  0.00  0.00    +0.009 A 
ATOM     12  C   UNL     1      -0.087  -6.340   3.396  0.00  0.00    +0.011 A 
BRANCH  12  13
ATOM     13  C   UNL     1       1.165  -5.614   3.814  0.00  0.00    +0.266 C 
BRANCH  13  14
ATOM     14  O   UNL     1       2.049  -6.526   4.469  0.00  0.00    -0.487 OA
BRANCH  14  15
ATOM     15  C   UNL     1       3.233  -6.028   4.912  0.00  0.00    +0.121 A 
ATOM     16  C   UNL     1       3.536  -4.687   4.724  0.00  0.00    +0.045 A 
ATOM     17  C   UNL     1       4.740  -4.183   5.176  0.00  0.00    +0.004 A 
ATOM     18  C   UNL     1       5.644  -5.013   5.813  0.00  0.00    +0.000 A 
ATOM     19  C   UNL     1       5.344  -6.350   6.001  0.00  0.00    +0.004 A 
ATOM     20  C   UNL     1       4.139  -6.857   5.557  0.00  0.00    +0.045 A 
ENDBRANCH  14  15
ENDBRANCH  13  14
ENDBRANCH  12  13
ENDBRANCH   4   7
BRANCH   1  21
ATOM     21  C   UNL     1      -2.107  -1.864  -0.053  0.00  0.00    +0.098 C 
BRANCH  21  22
ATOM     22  C   UNL     1      -1.790  -0.369  -0.128  0.00  0.00    +0.016 C 
BRANCH  22  23
ATOM     23  C   UNL     1      -0.327  -0.181  -0.438  0.00  0.00    +0.093 A 
ATOM     24  C   UNL     1       0.190   0.105  -1.647  0.00  0.00    +0.043 A 
ATOM     25  C   UNL     1       1.591   0.194  -1.482  0.00  0.00    +0.041 A 
ATOM     26  C   UNL     1       1.847  -0.043  -0.183  0.00  0.00    +0.195 A 
ATOM     27  O   UNL     1       0.680  -0.264   0.446  0.00  0.00    -0.469 OA
ENDBRANCH  22  23
BRANCH  22  29
ATOM     28  C   UNL     1      -1.890   1.713   1.059  0.00  0.00    -0.096 C 
ATOM     29  N   UNL     1      -2.103   0.263   1.161  0.00  0.00    +0.384 N 
ATOM     30  C   UNL     1      -3.505  -0.004   1.509  0.00  0.00    -0.096 C 
ATOM     31  H   UNL     1      -1.500  -0.116   1.876  0.00  0.00    -0.082 HD
ENDBRANCH  22  29
ENDBRANCH  21  22
ENDBRANCH   1  21
TORSDOF 8
