REMARK  Name = ZINC09993485
REMARK  4 active torsions:
REMARK  status: ('A' for Active; 'I' for Inactive)
REMARK    1  A    between atoms: C_4  and  C_7
REMARK    2  A    between atoms: C_12  and  C_26
REMARK    3  A    between atoms: C_14  and  C_24
REMARK    4  A    between atoms: C_15  and  N_23
REMARK                            x       y       z     vdW  Elec       q    Type
REMARK                         _______ _______ _______ _____ _____    ______ ____
ROOT
ATOM      1  C   UNL     1       3.659  -0.749  -0.028  0.00  0.00    +0.032 C 
ATOM      2  C   UNL     1       3.789  -1.636   1.213  0.00  0.00    +0.060 C 
ATOM      3  C   UNL     1       5.096  -2.389   1.161  0.00  0.00    +0.028 C 
ATOM      4  C   UNL     1       5.649  -2.741  -0.019  0.00  0.00    +0.025 C 
ATOM      5  C   UNL     1       6.955  -3.494  -0.069  0.00  0.00    +0.097 C 
ATOM      6  C   UNL     1       7.267  -4.126   1.255  0.00  0.00    +0.077 C 
ATOM      7  C   UNL     1       6.647  -3.718   2.392  0.00  0.00    +0.109 C 
ATOM      8  N   UNL     1       5.708  -2.712   2.344  0.00  0.00    -0.228 N 
ATOM      9  C   UNL     1       5.377  -2.014   3.510  0.00  0.00    +0.246 A 
ATOM     10  N   UNL     1       5.817  -2.300   4.739  0.00  0.00    -0.202 NA
ATOM     11  C   UNL     1       5.314  -1.451   5.598  0.00  0.00    +0.217 A 
ATOM     12  N   UNL     1       4.530  -0.590   4.928  0.00  0.00    -0.264 N 
ATOM     13  H   UNL     1       4.026   0.149   5.303  0.00  0.00    +0.190 HD
ATOM     14  N   UNL     1       4.588  -0.969   3.577  0.00  0.00    -0.136 NA
ATOM     15  C   UNL     1       5.028  -2.414  -1.237  0.00  0.00    +0.162 C 
ATOM     16  O   UNL     1       5.542  -2.762  -2.281  0.00  0.00    -0.292 OA
ATOM     17  C   UNL     1       3.740  -1.636  -1.274  0.00  0.00    +0.088 C 
ENDROOT
BRANCH   5  18
ATOM     18  C   UNL     1       8.062  -2.538  -0.432  0.00  0.00    -0.035 A 
ATOM     19  C   UNL     1       8.332  -1.453   0.381  0.00  0.00    +0.007 A 
ATOM     20  C   UNL     1       9.347  -0.576   0.049  0.00  0.00    +0.038 A 
ATOM     21  C   UNL     1      10.094  -0.785  -1.098  0.00  0.00    +0.123 A 
ATOM     22  C   UNL     1       9.823  -1.872  -1.911  0.00  0.00    +0.038 A 
ATOM     23  C   UNL     1       8.811  -2.751  -1.575  0.00  0.00    +0.007 A 
ATOM     24  F   UNL     1      11.087   0.072  -1.424  0.00  0.00    -0.205 F 
ENDBRANCH   5  18
BRANCH   1  28
ATOM     25  C   UNL     1      -0.101   1.279   0.045  0.00  0.00    +0.000 A 
ATOM     26  C   UNL     1       1.076   2.005   0.024  0.00  0.00    +0.000 A 
ATOM     27  C   UNL     1       2.292   1.348   0.000  0.00  0.00    +0.004 A 
ATOM     28  C   UNL     1       2.332  -0.034  -0.001  0.00  0.00    -0.044 A 
ATOM     29  C   UNL     1       1.156  -0.759   0.021  0.00  0.00    +0.004 A 
ATOM     30  C   UNL     1      -0.060  -0.103   0.043  0.00  0.00    +0.000 A 
ENDBRANCH   1  28
BRANCH   7  31
ATOM     31  N   UNL     1       6.958  -4.309   3.593  0.00  0.00    -0.345 N 
ATOM     32  H   UNL     1       7.619  -5.018   3.628  0.00  0.00    +0.144 HD
ATOM     33  H   UNL     1       6.516  -4.018   4.406  0.00  0.00    +0.144 HD
ENDBRANCH   7  31
BRANCH   6  34
ATOM     34  C   UNL     1       8.236  -5.179   1.321  0.00  0.00    +0.099 C 
ATOM     35  N   UNL     1       9.004  -6.015   1.373  0.00  0.00    -0.191 NA
ENDBRANCH   6  34
TORSDOF 4
