REMARK  Name = ZINC26559842
REMARK  13 active torsions:
REMARK  status: ('A' for Active; 'I' for Inactive)
REMARK    1  A    between atoms: C_1  and  C_2
REMARK    2  A    between atoms: C_3  and  C_29
REMARK    3  A    between atoms: C_4  and  C_28
REMARK    4  A    between atoms: C_7  and  C_8
REMARK    5  A    between atoms: C_8  and  O_10
REMARK    6  A    between atoms: O_10  and  C_11
REMARK    7  A    between atoms: C_11  and  C_12
REMARK    8  A    between atoms: N_14  and  C_15
REMARK    9  A    between atoms: N_14  and  C_23
REMARK   10  A    between atoms: C_29  and  O_31
REMARK   11  A    between atoms: O_31  and  C_32
REMARK   12  A    between atoms: C_32  and  C_33
REMARK   13  A    between atoms: C_32  and  C_34
REMARK                            x       y       z     vdW  Elec       q    Type
REMARK                         _______ _______ _______ _____ _____    ______ ____
ROOT
ATOM      1  O   UNL     1       0.054  -1.298   3.486  0.00  0.00    -0.451 OA
ENDROOT
BRANCH   1   2
ATOM      2  C   UNL     1       0.033  -0.385   2.494  0.00  0.00    +0.356 C 
ATOM      3  O   UNL     1       0.020   0.802   2.760  0.00  0.00    -0.243 OA
BRANCH   2  10
ATOM      4  C   UNL     1      -0.016   1.502   0.010  0.00  0.00    +0.047 C 
ATOM      5  C   UNL     1       0.004  -0.004   0.002  0.00  0.00    -0.005 A 
ATOM      6  C   UNL     1       0.009  -0.839  -1.139  0.00  0.00    +0.083 A 
ATOM      7  C   UNL     1       0.029  -2.146  -0.685  0.00  0.00    +0.028 A 
ATOM      8  N   UNL     1       0.035  -2.129   0.656  0.00  0.00    -0.352 N 
ATOM      9  H   UNL     1       0.047  -2.912   1.228  0.00  0.00    +0.166 HD
ATOM     10  C   UNL     1       0.025  -0.822   1.094  0.00  0.00    +0.128 A 
ATOM     11  C   UNL     1       0.040  -3.379  -1.552  0.00  0.00    +0.064 C 
BRANCH   6  12
ATOM     12  C   UNL     1      -0.004  -0.400  -2.544  0.00  0.00    +0.341 C 
ATOM     13  O   UNL     1       1.044  -0.205  -3.129  0.00  0.00    -0.245 OA
BRANCH  12  14
ATOM     14  O   UNL     1      -1.176  -0.215  -3.182  0.00  0.00    -0.458 OA
BRANCH  14  15
ATOM     15  C   UNL     1      -1.114   0.211  -4.544  0.00  0.00    +0.171 C 
ATOM     16  C   UNL     1      -1.075  -1.013  -5.460  0.00  0.00    +0.052 C 
ATOM     17  C   UNL     1      -2.348   1.055  -4.872  0.00  0.00    +0.052 C 
ENDBRANCH  14  15
ENDBRANCH  12  14
ENDBRANCH   6  12
ENDBRANCH   2  10
ENDBRANCH   1   2
BRANCH   1  18
ATOM     18  C   UNL     1       0.061  -0.801   4.825  0.00  0.00    +0.328 C 
BRANCH  18  19
ATOM     19  C   UNL     1       0.085  -1.959   5.790  0.00  0.00    +0.254 C 
ATOM     20  O   UNL     1       0.004  -3.096   5.375  0.00  0.00    -0.272 OA
ATOM     21  N   UNL     1       0.197  -1.731   7.114  0.00  0.00    -0.291 N 
BRANCH  21  22
ATOM     22  C   UNL     1       0.332  -2.856   8.042  0.00  0.00    +0.099 C 
ATOM     23  C   UNL     1       1.578  -3.681   7.680  0.00  0.00    +0.047 C 
ATOM     24  C   UNL     1       1.554  -5.032   8.435  0.00  0.00    +0.168 C 
ATOM     25  S   UNL     1      -0.245  -5.333   8.667  0.00  0.00    -0.029 S 
ATOM     26  O   UNL     1      -0.536  -5.347  10.058  0.00  0.00    -0.174 OA
ATOM     27  O   UNL     1      -0.637  -6.435   7.860  0.00  0.00    -0.174 OA
ATOM     28  C   UNL     1      -0.912  -3.782   7.930  0.00  0.00    +0.188 C 
ENDBRANCH  21  22
BRANCH  21  29
ATOM     29  C   UNL     1       0.183  -0.357   7.624  0.00  0.00    +0.077 C 
ATOM     30  C   UNL     1       1.521  -0.040   8.322  0.00  0.00    +0.022 C 
ATOM     31  C   UNL     1       1.120   0.848   9.527  0.00  0.00    +0.002 C 
ATOM     32  C   UNL     1      -0.208   0.205   9.998  0.00  0.00    +0.002 C 
ATOM     33  C   UNL     1      -0.916  -0.202   8.689  0.00  0.00    +0.022 C 
ENDBRANCH  21  29
ENDBRANCH  18  19
ENDBRANCH   1  18
TORSDOF 9
