REMARK  Name = ZINC09347490
REMARK  17 active torsions:
REMARK  status: ('A' for Active; 'I' for Inactive)
REMARK    1  A    between atoms: C_1  and  C_2
REMARK    2  A    between atoms: C_2  and  C_3
REMARK    3  A    between atoms: C_3  and  C_4
REMARK    4  A    between atoms: C_10  and  S_12
REMARK    5  A    between atoms: S_12  and  C_13
REMARK    6  A    between atoms: C_13  and  C_15
REMARK    7  A    between atoms: C_13  and  C_16
REMARK    8  A    between atoms: N_18  and  C_19
REMARK    9  A    between atoms: C_20  and  C_30
REMARK   10  A    between atoms: C_21  and  C_29
REMARK   11  A    between atoms: C_22  and  C_24
REMARK   12  A    between atoms: C_24  and  O_26
REMARK   13  A    between atoms: O_26  and  C_27
REMARK   14  A    between atoms: C_27  and  C_28
REMARK   15  A    between atoms: C_30  and  O_32
REMARK   16  A    between atoms: O_32  and  C_33
REMARK   17  A    between atoms: C_33  and  C_34
REMARK                            x       y       z     vdW  Elec       q    Type
REMARK                         _______ _______ _______ _____ _____    ______ ____
ROOT
ATOM      1  C   UNL     1       1.291   4.628   3.545  0.00  0.00    +0.231 C 
ATOM      2  O   UNL     1       1.337   5.823   3.347  0.00  0.00    -0.274 OA
ATOM      3  N   UNL     1       1.253   3.773   2.503  0.00  0.00    -0.278 N 
ATOM      4  H   UNL     1       1.216   2.817   2.662  0.00  0.00    +0.155 HD
ENDROOT
BRANCH   3   5
ATOM      5  C   UNL     1       1.266   4.259   1.211  0.00  0.00    +0.087 A 
ATOM      6  C   UNL     1       1.232   3.542   0.009  0.00  0.00    +0.091 A 
ATOM      7  C   UNL     1       1.249   4.265  -1.174  0.00  0.00    -0.014 A 
ATOM      8  C   UNL     1       1.303   5.630  -1.084  0.00  0.00    +0.102 A 
ATOM      9  S   UNL     1       1.331   5.907   0.677  0.00  0.00    -0.066 S 
ATOM     10  C   UNL     1       1.209   3.572  -2.511  0.00  0.00    +0.046 C 
BRANCH   8  11
ATOM     11  C   UNL     1       1.330   6.616  -2.164  0.00  0.00    +0.346 C 
ATOM     12  O   UNL     1       1.304   6.249  -3.323  0.00  0.00    -0.244 OA
BRANCH  11  13
ATOM     13  O   UNL     1       1.384   7.933  -1.874  0.00  0.00    -0.461 OA
BRANCH  13  14
ATOM     14  C   UNL     1       1.408   8.839  -2.978  0.00  0.00    +0.229 C 
ATOM     15  C   UNL     1       1.469  10.277  -2.457  0.00  0.00    +0.048 C 
ENDBRANCH  13  14
ENDBRANCH  11  13
ENDBRANCH   8  11
BRANCH   6  16
ATOM     16  C   UNL     1       1.175   2.076   0.002  0.00  0.00    +0.342 C 
ATOM     17  O   UNL     1       2.204   1.428  -0.011  0.00  0.00    -0.245 OA
BRANCH  16  18
ATOM     18  O   UNL     1      -0.018   1.448   0.010  0.00  0.00    -0.461 OA
BRANCH  18  19
ATOM     19  C   UNL     1       0.002  -0.004   0.002  0.00  0.00    +0.229 C 
ATOM     20  C   UNL     1      -1.433  -0.534   0.013  0.00  0.00    +0.048 C 
ENDBRANCH  18  19
ENDBRANCH  16  18
ENDBRANCH   6  16
ENDBRANCH   3   5
BRANCH   1  21
ATOM     21  C   UNL     1       1.276   4.097   4.955  0.00  0.00    +0.136 C 
ATOM     22  C   UNL     1       2.703   3.744   5.382  0.00  0.00    +0.029 C 
BRANCH  21  23
ATOM     23  S   UNL     1       0.608   5.363   6.070  0.00  0.00    -0.084 S 
BRANCH  23  30
ATOM     24  C   UNL     1       0.331   2.124  11.941  0.00  0.00    +0.219 C 
ATOM     25  O   UNL     1       0.778   1.277  11.196  0.00  0.00    -0.275 OA
ATOM     26  N   UNL     1       0.037   3.351  11.466  0.00  0.00    -0.263 N 
ATOM     27  C   UNL     1       0.247   3.646  10.121  0.00  0.00    +0.189 A 
ATOM     28  N   UNL     1       0.718   2.885   9.147  0.00  0.00    -0.125 NA
ATOM     29  N   UNL     1       0.842   3.310   7.966  0.00  0.00    -0.133 NA
ATOM     30  C   UNL     1       0.518   4.551   7.631  0.00  0.00    +0.161 A 
ATOM     31  S   UNL     1      -0.044   5.164   9.217  0.00  0.00    -0.024 S 
ATOM     32  H   UNL     1      -0.320   4.028  12.061  0.00  0.00    +0.157 HD
BRANCH  24  33
ATOM     33  C   UNL     1       0.104   1.805  13.396  0.00  0.00    +0.096 C 
BRANCH  33  35
ATOM     34  C   UNL     1       0.285   0.033  15.148  0.00  0.00    +0.004 C 
ATOM     35  C   UNL     1       0.516   0.357  13.671  0.00  0.00    +0.006 C 
ENDBRANCH  33  35
ENDBRANCH  24  33
ENDBRANCH  23  30
ENDBRANCH  21  23
ENDBRANCH   1  21
TORSDOF 12
