REMARK  Name = ZINC16880548
REMARK  10 active torsions:
REMARK  status: ('A' for Active; 'I' for Inactive)
REMARK    1  A    between atoms: C_1  and  C_2
REMARK    2  A    between atoms: C_2  and  C_3
REMARK    3  A    between atoms: C_3  and  C_4
REMARK    4  A    between atoms: C_4  and  C_5
REMARK    5  A    between atoms: C_6  and  C_22
REMARK    6  A    between atoms: C_8  and  O_21
REMARK    7  A    between atoms: N_9  and  C_12
REMARK    8  A    between atoms: C_12  and  C_13
REMARK    9  A    between atoms: C_15  and  C_20
REMARK   10  A    between atoms: C_18  and  C_19
REMARK                            x       y       z     vdW  Elec       q    Type
REMARK                         _______ _______ _______ _____ _____    ______ ____
ROOT
ATOM      1  C   UNL     1      -5.231   5.811   1.606  0.00  0.00    +0.038 A 
ATOM      2  C   UNL     1      -5.061   6.535   2.749  0.00  0.00    +0.052 A 
ATOM      3  N   UNL     1      -4.636   5.937   3.861  0.00  0.00    -0.201 NA
ATOM      4  C   UNL     1      -4.375   4.648   3.889  0.00  0.00    +0.299 A 
ATOM      5  N   UNL     1      -4.519   3.877   2.780  0.00  0.00    -0.258 N 
ATOM      6  C   UNL     1      -4.948   4.433   1.627  0.00  0.00    +0.260 A 
ATOM      7  O   UNL     1      -5.089   3.754   0.624  0.00  0.00    -0.267 OA
ATOM      8  C   UNL     1      -5.356   8.013   2.755  0.00  0.00    +0.066 C 
ENDROOT
BRANCH   4   9
ATOM      9  O   UNL     1      -3.951   4.083   5.038  0.00  0.00    -0.479 OA
ATOM     10  H   UNL     1      -3.860   4.665   5.805  0.00  0.00    +0.295 HD
ENDBRANCH   4   9
BRANCH   1  11
ATOM     11  C   UNL     1      -5.711   6.476   0.342  0.00  0.00    +0.042 C 
BRANCH  11  12
ATOM     12  C   UNL     1      -4.508   6.863  -0.520  0.00  0.00    +0.005 C 
BRANCH  12  14
ATOM     13  C   UNL     1      -3.793   7.926  -2.666  0.00  0.00    +0.004 C 
ATOM     14  C   UNL     1      -4.996   7.538  -1.804  0.00  0.00    -0.003 C 
ENDBRANCH  12  14
ENDBRANCH  11  12
ENDBRANCH   1  11
BRANCH   5  15
ATOM     15  C   UNL     1      -4.217   2.445   2.837  0.00  0.00    +0.165 C 
BRANCH  15  16
ATOM     16  C   UNL     1      -2.754   2.228   2.547  0.00  0.00    -0.024 A 
ATOM     17  C   UNL     1      -1.959   3.295   2.170  0.00  0.00    +0.009 A 
ATOM     18  C   UNL     1      -0.619   3.095   1.898  0.00  0.00    -0.050 A 
ATOM     19  C   UNL     1      -0.071   1.831   2.013  0.00  0.00    +0.003 A 
ATOM     20  C   UNL     1      -0.864   0.766   2.394  0.00  0.00    +0.004 A 
ATOM     21  C   UNL     1      -2.206   0.964   2.661  0.00  0.00    -0.046 A 
ATOM     22  C   UNL     1      -3.072  -0.197   3.077  0.00  0.00    +0.044 C 
ATOM     23  C   UNL     1       0.247   4.256   1.482  0.00  0.00    +0.044 C 
ENDBRANCH  15  16
ENDBRANCH   5  15
TORSDOF 6
