REMARK  Name = ZINC12297663
REMARK  7 active torsions:
REMARK  status: ('A' for Active; 'I' for Inactive)
REMARK    1  A    between atoms: C_1  and  C_2
REMARK    2  A    between atoms: C_2  and  O_3
REMARK    3  A    between atoms: O_3  and  C_4
REMARK    4  A    between atoms: C_12  and  C_14
REMARK    5  A    between atoms: C_14  and  C_15
REMARK    6  A    between atoms: C_22  and  C_23
REMARK    7  A    between atoms: C_22  and  N_62
REMARK                            x       y       z     vdW  Elec       q    Type
REMARK                         _______ _______ _______ _____ _____    ______ ____
ROOT
ATOM      1  C   UNL     1       5.048   1.691  -1.348  0.00  0.00    +0.028 C 
ATOM      2  C   UNL     1       5.522   1.237  -2.700  0.00  0.00    +0.200 C 
ATOM      3  O   UNL     1       6.231   0.255  -2.767  0.00  0.00    -0.278 OA
ATOM      4  N   UNL     1       5.195   1.870  -3.831  0.00  0.00    -0.318 N 
ATOM      5  C   UNL     1       4.320   3.038  -3.862  0.00  0.00    +0.085 C 
ATOM      6  C   UNL     1       4.229   3.663  -2.469  0.00  0.00    -0.058 C 
ATOM      7  H   UNL     1       5.556   1.539  -4.668  0.00  0.00    +0.149 HD
ATOM      8  N   UNL     1       3.892   2.592  -1.509  0.00  0.00    +0.391 N 
ATOM      9  H   UNL     1       3.095   2.055  -1.871  0.00  0.00    -0.080 HD
ENDROOT
BRANCH   1  10
ATOM     10  C   UNL     1       4.620   0.474  -0.525  0.00  0.00    +0.090 C 
BRANCH  10  19
ATOM     11  C   UNL     1       0.974  -4.266   1.065  0.00  0.00    +0.403 C 
ATOM     12  O   UNL     1       0.198  -4.935   0.411  0.00  0.00    -0.226 OA
ATOM     13  N   UNL     1       1.414  -3.085   0.588  0.00  0.00    -0.264 N 
ATOM     14  C   UNL     1       0.963  -2.593  -0.721  0.00  0.00    +0.130 C 
ATOM     15  C   UNL     1       2.196  -2.303  -1.586  0.00  0.00    +0.127 C 
ATOM     16  N   UNL     1       3.135  -1.484  -0.806  0.00  0.00    -0.299 N 
ATOM     17  C   UNL     1       3.590  -1.979   0.501  0.00  0.00    +0.127 C 
ATOM     18  C   UNL     1       2.352  -2.266   1.368  0.00  0.00    +0.130 C 
ATOM     19  C   UNL     1       3.575  -0.303  -1.284  0.00  0.00    +0.215 C 
ATOM     20  O   UNL     1       3.131   0.135  -2.324  0.00  0.00    -0.276 OA
BRANCH  11  21
ATOM     21  O   UNL     1       1.394  -4.706   2.267  0.00  0.00    -0.451 OA
BRANCH  21  23
ATOM     22  C   UNL     1       1.465  -6.316   4.092  0.00  0.00    +0.048 C 
ATOM     23  C   UNL     1       0.880  -5.987   2.717  0.00  0.00    +0.230 C 
ENDBRANCH  21  23
ENDBRANCH  11  21
ENDBRANCH  10  19
ENDBRANCH   1  10
BRANCH   8  24
ATOM     24  C   UNL     1       3.522   3.180  -0.202  0.00  0.00    -0.041 C 
BRANCH  24  25
ATOM     25  C   UNL     1       2.243   3.962  -0.360  0.00  0.00    -0.056 A 
ATOM     26  C   UNL     1       2.276   5.322  -0.421  0.00  0.00    +0.002 A 
ATOM     27  C   UNL     1       1.104   6.061  -0.569  0.00  0.00    +0.001 A 
ATOM     28  C   UNL     1      -0.107   5.446  -0.654  0.00  0.00    +0.008 A 
ATOM     29  C   UNL     1      -0.181   4.044  -0.595  0.00  0.00    -0.018 A 
ATOM     30  C   UNL     1       1.011   3.292  -0.446  0.00  0.00    -0.017 A 
ATOM     31  C   UNL     1       0.938   1.889  -0.385  0.00  0.00    +0.009 A 
ATOM     32  C   UNL     1      -0.274   1.274  -0.471  0.00  0.00    +0.001 A 
ATOM     33  C   UNL     1      -1.445   2.014  -0.623  0.00  0.00    +0.001 A 
ATOM     34  C   UNL     1      -1.413   3.373  -0.680  0.00  0.00    +0.008 A 
ENDBRANCH  24  25
ENDBRANCH   8  24
TORSDOF 6
