REMARK  Name = ZINC67462394
REMARK  6 active torsions:
REMARK  status: ('A' for Active; 'I' for Inactive)
REMARK    1  A    between atoms: C_2  and  C_3
REMARK    2  A    between atoms: C_3  and  N_4
REMARK    3  A    between atoms: N_7  and  C_8
REMARK    4  A    between atoms: C_8  and  C_9
REMARK    5  A    between atoms: C_9  and  C_11
REMARK    6  A    between atoms: C_9  and  O_21
REMARK                            x       y       z     vdW  Elec       q    Type
REMARK                         _______ _______ _______ _____ _____    ______ ____
ROOT
ATOM      1  C   UNL     1       3.832  -4.411   4.181  0.00  0.00    +0.162 C 
ENDROOT
BRANCH   1   2
ATOM      2  C   UNL     1       5.121  -5.138   4.468  0.00  0.00    -0.017 A 
ATOM      3  C   UNL     1       5.349  -6.385   3.889  0.00  0.00    +0.007 A 
ATOM      4  C   UNL     1       6.502  -7.067   4.128  0.00  0.00    +0.009 A 
ATOM      5  C   UNL     1       7.480  -6.509   4.969  0.00  0.00    -0.018 A 
ATOM      6  C   UNL     1       8.683  -7.183   5.238  0.00  0.00    +0.008 A 
ATOM      7  C   UNL     1       9.607  -6.611   6.057  0.00  0.00    +0.001 A 
ATOM      8  C   UNL     1       9.379  -5.363   6.635  0.00  0.00    +0.001 A 
ATOM      9  C   UNL     1       8.226  -4.681   6.397  0.00  0.00    +0.008 A 
ATOM     10  C   UNL     1       7.248  -5.240   5.556  0.00  0.00    -0.018 A 
ATOM     11  C   UNL     1       6.047  -4.563   5.283  0.00  0.00    +0.014 A 
ENDBRANCH   1   2
BRANCH   1  12
ATOM     12  O   UNL     1       2.750  -5.345   4.177  0.00  0.00    -0.386 OA
ATOM     13  H   UNL     1       2.837  -6.045   3.515  0.00  0.00    +0.210 HD
ENDBRANCH   1  12
BRANCH   1  14
ATOM     14  C   UNL     1       3.923  -3.731   2.814  0.00  0.00    +0.141 C 
BRANCH  14  18
ATOM     15  N   UNL     1       1.470  -1.494   1.232  0.00  0.00    -0.295 N 
ATOM     16  C   UNL     1       2.578  -2.233   1.440  0.00  0.00    +0.300 C 
ATOM     17  O   UNL     1       3.450  -2.273   0.594  0.00  0.00    -0.253 OA
ATOM     18  N   UNL     1       2.719  -2.927   2.587  0.00  0.00    -0.297 N 
ATOM     19  H   UNL     1       0.774  -1.462   1.907  0.00  0.00    +0.151 HD
ATOM     20  H   UNL     1       2.023  -2.895   3.262  0.00  0.00    +0.150 HD
BRANCH  15  21
ATOM     21  C   UNL     1       1.317  -0.740  -0.015  0.00  0.00    +0.148 C 
BRANCH  21  23
ATOM     22  C   UNL     1      -0.016   1.307   0.009  0.00  0.00    +0.021 C 
ATOM     23  C   UNL     1       0.002  -0.004   0.002  0.00  0.00    +0.006 C 
ATOM     24 BR   UNL     1      -1.623  -0.972   0.012  0.00  0.00    -0.054 Br
ENDBRANCH  21  23
ENDBRANCH  15  21
ENDBRANCH  14  18
ENDBRANCH   1  14
TORSDOF 6
