REMARK  Name = ZINC09287217
REMARK  7 active torsions:
REMARK  status: ('A' for Active; 'I' for Inactive)
REMARK    1  A    between atoms: C_1  and  C_2
REMARK    2  A    between atoms: C_2  and  C_3
REMARK    3  A    between atoms: C_2  and  C_4
REMARK    4  A    between atoms: C_4  and  N_5
REMARK    5  A    between atoms: C_13  and  C_18
REMARK    6  A    between atoms: C_13  and  C_22
REMARK    7  A    between atoms: C_15  and  O_17
REMARK                            x       y       z     vdW  Elec       q    Type
REMARK                         _______ _______ _______ _____ _____    ______ ____
ROOT
ATOM      1  N   UNL     1      -0.357  -0.301   2.005  0.00  0.00    -0.279 N 
ATOM      2  C   UNL     1      -1.190  -1.139   2.720  0.00  0.00    +0.130 A 
ATOM      3  C   UNL     1      -1.784  -0.660   3.877  0.00  0.00    +0.098 A 
ATOM      4  C   UNL     1      -1.551   0.658   4.275  0.00  0.00    +0.262 A 
ATOM      5  N   UNL     1      -0.743   1.440   3.531  0.00  0.00    -0.275 N 
ATOM      6  C   UNL     1      -0.151   0.962   2.422  0.00  0.00    +0.331 A 
ATOM      7  O   UNL     1       0.584   1.687   1.781  0.00  0.00    -0.246 OA
ATOM      8  O   UNL     1      -2.073   1.097   5.287  0.00  0.00    -0.267 OA
ATOM      9  C   UNL     1      -2.660  -1.576   4.695  0.00  0.00    +0.260 C 
ATOM     10  N   UNL     1      -3.199  -2.607   3.792  0.00  0.00    -0.276 N 
ATOM     11  C   UNL     1      -2.373  -3.130   2.836  0.00  0.00    +0.260 C 
ATOM     12  N   UNL     1      -1.414  -2.396   2.312  0.00  0.00    -0.299 N 
ATOM     13  H   UNL     1      -0.856  -2.773   1.614  0.00  0.00    +0.171 HD
ATOM     14  H   UNL     1      -0.585   2.358   3.800  0.00  0.00    +0.173 HD
ATOM     15  H   UNL     1      -4.117  -2.908   3.874  0.00  0.00    +0.152 HD
ENDROOT
BRANCH   9  16
ATOM     16  C   UNL     1      -1.831  -2.237   5.798  0.00  0.00    +0.424 C 
ATOM     17  F   UNL     1      -1.290  -1.249   6.630  0.00  0.00    -0.168 F 
ATOM     18  F   UNL     1      -2.649  -3.084   6.553  0.00  0.00    -0.168 F 
ATOM     19  F   UNL     1      -0.794  -2.979   5.222  0.00  0.00    -0.168 F 
ENDBRANCH   9  16
BRANCH   9  20
ATOM     20  C   UNL     1      -3.808  -0.778   5.315  0.00  0.00    +0.424 C 
ATOM     21  F   UNL     1      -4.347   0.086   4.356  0.00  0.00    -0.168 F 
ATOM     22  F   UNL     1      -4.801  -1.658   5.760  0.00  0.00    -0.168 F 
ATOM     23  F   UNL     1      -3.327  -0.033   6.397  0.00  0.00    -0.168 F 
ENDBRANCH   9  20
BRANCH  11  24
ATOM     24  O   UNL     1      -2.541  -4.403   2.429  0.00  0.00    -0.483 OA
ATOM     25  H   UNL     1      -1.911  -4.685   1.751  0.00  0.00    +0.295 HD
ENDBRANCH  11  24
BRANCH   1  26
ATOM     26  C   UNL     1       0.306  -0.790   0.794  0.00  0.00    +0.131 C 
BRANCH  26  28
ATOM     27  C   UNL     1      -0.732   0.989  -0.620  0.00  0.00    +0.009 C 
ATOM     28  C   UNL     1      -0.585  -0.521  -0.420  0.00  0.00    +0.003 C 
ATOM     29  C   UNL     1       0.050  -1.141  -1.666  0.00  0.00    +0.009 C 
ENDBRANCH  26  28
ENDBRANCH   1  26
TORSDOF 5
