REMARK  Name = ZINC14579041
REMARK  11 active torsions:
REMARK  status: ('A' for Active; 'I' for Inactive)
REMARK    1  A    between atoms: C_1  and  C_2
REMARK    2  A    between atoms: C_2  and  C_3
REMARK    3  A    between atoms: C_2  and  C_4
REMARK    4  A    between atoms: C_4  and  C_5
REMARK    5  A    between atoms: C_5  and  N_6
REMARK    6  A    between atoms: N_6  and  C_7
REMARK    7  A    between atoms: C_8  and  N_23
REMARK    8  A    between atoms: N_9  and  C_16
REMARK    9  A    between atoms: C_16  and  C_17
REMARK   10  A    between atoms: C_24  and  C_26
REMARK   11  A    between atoms: C_26  and  C_27
REMARK                            x       y       z     vdW  Elec       q    Type
REMARK                         _______ _______ _______ _____ _____    ______ ____
ROOT
ATOM      1  N   UNL     1       4.059   2.951   2.311  0.00  0.00    -0.264 N 
ATOM      2  C   UNL     1       3.410   2.840   3.489  0.00  0.00    +0.224 C 
ATOM      3  O   UNL     1       2.261   2.449   3.514  0.00  0.00    -0.275 OA
ENDROOT
BRANCH   1   4
ATOM      4  C   UNL     1       3.372   2.713   1.101  0.00  0.00    +0.140 A 
ATOM      5  C   UNL     1       3.709   1.639   0.303  0.00  0.00    +0.128 A 
ATOM      6  N   UNL     1       3.025   1.436  -0.873  0.00  0.00    -0.276 N 
ATOM      7  C   UNL     1       2.032   2.269  -1.235  0.00  0.00    +0.331 A 
ATOM      8  O   UNL     1       1.436   2.070  -2.277  0.00  0.00    -0.246 OA
ATOM      9  N   UNL     1       1.687   3.317  -0.467  0.00  0.00    -0.273 N 
ATOM     10  H   UNL     1       0.945   3.921  -0.759  0.00  0.00    +0.173 HD
ATOM     11  C   UNL     1       2.329   3.564   0.692  0.00  0.00    +0.277 A 
ATOM     12  O   UNL     1       2.008   4.517   1.380  0.00  0.00    -0.266 OA
BRANCH   5  13
ATOM     13  N   UNL     1       4.719   0.785   0.676  0.00  0.00    -0.343 N 
ATOM     14  H   UNL     1       4.919   0.005   0.135  0.00  0.00    +0.144 HD
ATOM     15  H   UNL     1       5.232   0.962   1.480  0.00  0.00    +0.144 HD
ENDBRANCH   5  13
BRANCH   6  16
ATOM     16  C   UNL     1       3.375   0.304  -1.734  0.00  0.00    +0.163 C 
BRANCH  16  17
ATOM     17  C   UNL     1       4.432   0.730  -2.720  0.00  0.00    -0.028 A 
ATOM     18  C   UNL     1       4.062   1.244  -3.949  0.00  0.00    +0.005 A 
ATOM     19  C   UNL     1       5.031   1.640  -4.852  0.00  0.00    +0.000 A 
ATOM     20  C   UNL     1       6.369   1.512  -4.531  0.00  0.00    +0.000 A 
ATOM     21  C   UNL     1       6.739   0.993  -3.304  0.00  0.00    +0.000 A 
ATOM     22  C   UNL     1       5.770   0.602  -2.399  0.00  0.00    +0.005 A 
ENDBRANCH  16  17
ENDBRANCH   6  16
ENDBRANCH   1   4
BRANCH   1  23
ATOM     23  C   UNL     1       5.477   3.318   2.288  0.00  0.00    +0.114 C 
BRANCH  23  24
ATOM     24  C   UNL     1       5.610   4.841   2.344  0.00  0.00    +0.022 C 
BRANCH  24  26
ATOM     25  C   UNL     1       7.222   6.748   2.250  0.00  0.00    +0.007 C 
ATOM     26  C   UNL     1       7.091   5.225   2.320  0.00  0.00    -0.016 C 
ATOM     27  C   UNL     1       7.771   4.713   3.591  0.00  0.00    +0.007 C 
ENDBRANCH  24  26
ENDBRANCH  23  24
ENDBRANCH   1  23
BRANCH   2  28
ATOM     28  C   UNL     1       4.111   3.202   4.772  0.00  0.00    +0.131 C 
BRANCH  28  29
ATOM     29  C   UNL     1       3.173   2.990   5.933  0.00  0.00    -0.038 A 
ATOM     30  C   UNL     1       2.359   4.039   6.357  0.00  0.00    +0.005 A 
ATOM     31  C   UNL     1       1.497   3.880   7.399  0.00  0.00    +0.009 A 
ATOM     32  C   UNL     1       1.434   2.644   8.066  0.00  0.00    -0.018 A 
ATOM     33  C   UNL     1       0.562   2.445   9.150  0.00  0.00    +0.008 A 
ATOM     34  C   UNL     1       0.527   1.235   9.772  0.00  0.00    +0.001 A 
ATOM     35  C   UNL     1       1.346   0.188   9.352  0.00  0.00    +0.001 A 
ATOM     36  C   UNL     1       2.203   0.345   8.306  0.00  0.00    +0.008 A 
ATOM     37  C   UNL     1       2.266   1.580   7.639  0.00  0.00    -0.018 A 
ATOM     38  C   UNL     1       3.139   1.780   6.555  0.00  0.00    +0.012 A 
ENDBRANCH  28  29
ENDBRANCH   2  28
TORSDOF 9
