REMARK  Name = ZINC32797267
REMARK  6 active torsions:
REMARK  status: ('A' for Active; 'I' for Inactive)
REMARK    1  A    between atoms: C_1  and  C_2
REMARK    2  A    between atoms: C_2  and  C_4
REMARK    3  A    between atoms: C_2  and  N_16
REMARK    4  A    between atoms: N_6  and  C_7
REMARK    5  A    between atoms: N_6  and  C_8
REMARK    6  A    between atoms: C_22  and  C_24
REMARK                            x       y       z     vdW  Elec       q    Type
REMARK                         _______ _______ _______ _____ _____    ______ ____
ROOT
ATOM      1  N   UNL     1      -8.112   2.740   0.830  0.00  0.00    +0.389 N 
ATOM      2  C   UNL     1      -7.932   1.306   0.567  0.00  0.00    -0.058 C 
ATOM      3  C   UNL     1      -6.635   0.829   1.230  0.00  0.00    +0.089 C 
ATOM      4  N   UNL     1      -5.533   1.689   0.773  0.00  0.00    -0.302 N 
ATOM      5  C   UNL     1      -5.695   3.146   0.883  0.00  0.00    +0.089 C 
ATOM      6  C   UNL     1      -7.031   3.533   0.229  0.00  0.00    -0.058 C 
ATOM      7  C   UNL     1      -4.401   1.155   0.271  0.00  0.00    +0.260 C 
ATOM      8  O   UNL     1      -4.336  -0.037   0.057  0.00  0.00    -0.271 OA
ATOM      9  H   UNL     1      -8.070   2.889   1.919  0.00  0.00    -0.081 HD
ENDROOT
BRANCH   7  10
ATOM     10  C   UNL     1      -3.217   2.039  -0.023  0.00  0.00    +0.296 C 
ATOM     11  C   UNL     1      -3.390   2.695  -1.400  0.00  0.00    +0.283 C 
ATOM     12  O   UNL     1      -2.244   3.515  -1.653  0.00  0.00    -0.484 OA
ATOM     13  C   UNL     1      -1.027   2.964  -1.391  0.00  0.00    +0.162 A 
ATOM     14  C   UNL     1       0.112   3.539  -1.935  0.00  0.00    +0.049 A 
ATOM     15  C   UNL     1       1.355   2.994  -1.673  0.00  0.00    +0.004 A 
ATOM     16  C   UNL     1       1.466   1.874  -0.870  0.00  0.00    +0.004 A 
ATOM     17  C   UNL     1       0.335   1.296  -0.327  0.00  0.00    +0.049 A 
ATOM     18  C   UNL     1      -0.916   1.833  -0.591  0.00  0.00    +0.163 A 
ATOM     19  O   UNL     1      -2.021   1.252  -0.049  0.00  0.00    -0.473 OA
ENDBRANCH   7  10
BRANCH   1  21
ATOM     20  C   UNL     1      -9.401   3.344  -1.163  0.00  0.00    -0.004 C 
ATOM     21  C   UNL     1      -9.426   3.200   0.360  0.00  0.00    +0.016 C 
BRANCH  21  22
ATOM     22  C   UNL     1      -9.745   4.534   0.985  0.00  0.00    +0.202 C 
ATOM     23  O   UNL     1      -8.915   5.418   0.983  0.00  0.00    -0.277 OA
ATOM     24  N   UNL     1     -10.952   4.744   1.547  0.00  0.00    -0.301 N 
ATOM     25  C   UNL     1     -11.908   3.639   1.663  0.00  0.00    +0.132 C 
BRANCH  24  26
ATOM     26  C   UNL     1     -11.308   6.076   2.041  0.00  0.00    +0.098 C 
ATOM     27  C   UNL     1     -11.585   6.003   3.552  0.00  0.00    +0.046 C 
ATOM     28  C   UNL     1     -12.257   7.337   3.986  0.00  0.00    +0.168 C 
ATOM     29  S   UNL     1     -13.401   7.615   2.569  0.00  0.00    -0.029 S 
ATOM     30  O   UNL     1     -14.665   7.042   2.876  0.00  0.00    -0.174 OA
ATOM     31  O   UNL     1     -13.328   8.979   2.177  0.00  0.00    -0.174 OA
ATOM     32  C   UNL     1     -12.570   6.579   1.299  0.00  0.00    +0.188 C 
ENDBRANCH  24  26
ENDBRANCH  21  22
ENDBRANCH   1  21
TORSDOF 4
