REMARK  Name = ZINC37793795
REMARK  3 active torsions:
REMARK  status: ('A' for Active; 'I' for Inactive)
REMARK    1  A    between atoms: C_7  and  N_10
REMARK    2  A    between atoms: C_11  and  C_13
REMARK    3  A    between atoms: C_19  and  C_21
REMARK                            x       y       z     vdW  Elec       q    Type
REMARK                         _______ _______ _______ _____ _____    ______ ____
ROOT
ATOM      1  N   UNL     1       0.191   0.136  -2.437  0.00  0.00    -0.304 N 
ATOM      2  C   UNL     1       0.256  -0.222  -3.734  0.00  0.00    +0.218 C 
ATOM      3  O   UNL     1       0.661  -1.324  -4.040  0.00  0.00    -0.275 OA
ATOM      4  H   UNL     1      -0.133   1.017  -2.192  0.00  0.00    +0.149 HD
ENDROOT
BRANCH   1  11
ATOM      5  C   UNL     1       0.073   1.172   0.052  0.00  0.00    +0.004 C 
ATOM      6  C   UNL     1       1.459   1.793   0.049  0.00  0.00    +0.019 C 
ATOM      7  C   UNL     1       2.148   1.583  -1.301  0.00  0.00    +0.104 C 
ATOM      8  N   UNL     1       2.829   0.278  -1.284  0.00  0.00    -0.314 N 
ATOM      9  C   UNL     1       2.123  -0.853  -1.331  0.00  0.00    +0.233 C 
ATOM     10  O   UNL     1       2.694  -1.923  -1.322  0.00  0.00    -0.274 OA
ATOM     11  C   UNL     1       0.611  -0.805  -1.395  0.00  0.00    +0.159 C 
ATOM     12  C   UNL     1       0.081  -0.343  -0.036  0.00  0.00    +0.032 C 
ATOM     13  H   UNL     1       3.797   0.240  -1.239  0.00  0.00    +0.149 HD
ENDBRANCH   1  11
BRANCH   2  14
ATOM     14  C   UNL     1      -0.175   0.746  -4.806  0.00  0.00    +0.093 C 
ATOM     15  C   UNL     1       1.056   1.411  -5.423  0.00  0.00    +0.040 C 
ATOM     16  C   UNL     1       0.668   2.171  -6.658  0.00  0.00    -0.030 C 
ATOM     17  C   UNL     1      -0.443   1.996  -7.298  0.00  0.00    -0.030 C 
ATOM     18  C   UNL     1      -1.503   1.015  -6.890  0.00  0.00    +0.042 C 
ATOM     19  C   UNL     1      -0.930  -0.008  -5.908  0.00  0.00    +0.118 C 
BRANCH  19  20
ATOM     20  C   UNL     1      -2.049  -0.812  -5.298  0.00  0.00    +0.360 C 
ATOM     21  O   UNL     1      -2.993  -1.162  -5.985  0.00  0.00    -0.246 OA
ATOM     22  O   UNL     1      -2.009  -1.113  -4.117  0.00  0.00    -0.246 OA
ENDBRANCH  19  20
ENDBRANCH   2  14
TORSDOF 3
