REMARK  Name = ZINC38234107
REMARK  3 active torsions:
REMARK  status: ('A' for Active; 'I' for Inactive)
REMARK    1  A    between atoms: C_4  and  C_7
REMARK    2  A    between atoms: C_7  and  C_9
REMARK    3  A    between atoms: C_7  and  N_15
REMARK                            x       y       z     vdW  Elec       q    Type
REMARK                         _______ _______ _______ _____ _____    ______ ____
ROOT
ATOM      1  C   UNL     1       3.686  -0.691  -0.018  0.00  0.00    +0.174 C 
ENDROOT
BRANCH   1   2
ATOM      2  N   UNL     1       3.617  -1.868   0.858  0.00  0.00    -0.285 NA
ATOM      3  C   UNL     1       3.208  -1.490   2.217  0.00  0.00    +0.104 C 
ATOM      4  C   UNL     1       2.972  -2.757   3.047  0.00  0.00    +0.122 C 
ATOM      5  N   UNL     1       4.178  -3.596   2.971  0.00  0.00    -0.314 N 
ATOM      6  C   UNL     1       4.729  -3.904   1.643  0.00  0.00    +0.122 C 
ATOM      7  C   UNL     1       4.896  -2.592   0.869  0.00  0.00    +0.104 C 
ATOM      8  C   UNL     1       4.781  -4.084   4.125  0.00  0.00    +0.099 A 
ATOM      9  C   UNL     1       4.312  -3.681   5.371  0.00  0.00    +0.042 A 
ATOM     10  C   UNL     1       4.921  -4.175   6.510  0.00  0.00    +0.005 A 
ATOM     11  C   UNL     1       5.982  -5.059   6.365  0.00  0.00    +0.018 A 
ATOM     12  C   UNL     1       6.395  -5.417   5.097  0.00  0.00    +0.084 A 
ATOM     13  N   UNL     1       5.792  -4.934   4.027  0.00  0.00    -0.350 N 
ATOM     14  H   UNL     1       6.099  -5.204   3.148  0.00  0.00    +0.166 HD
ENDBRANCH   1   2
BRANCH   1  15
ATOM     15  C   UNL     1       4.005  -1.128  -1.424  0.00  0.00    +0.242 C 
ATOM     16  O   UNL     1       4.160  -2.305  -1.672  0.00  0.00    -0.273 OA
ATOM     17  N   UNL     1       4.119  -0.212  -2.405  0.00  0.00    -0.239 N 
ATOM     18  C   UNL     1       4.404  -0.603  -3.663  0.00  0.00    +0.303 C 
ATOM     19  O   UNL     1       4.559  -1.782  -3.912  0.00  0.00    -0.253 OA
ATOM     20  N   UNL     1       4.518   0.314  -4.645  0.00  0.00    -0.313 N 
ATOM     21  H   UNL     1       3.995   0.730  -2.207  0.00  0.00    +0.159 HD
ATOM     22  H   UNL     1       4.394   1.255  -4.446  0.00  0.00    +0.146 HD
ATOM     23  H   UNL     1       4.723   0.032  -5.550  0.00  0.00    +0.146 HD
ENDBRANCH   1  15
BRANCH   1  27
ATOM     24  C   UNL     1      -0.073   1.337   0.022  0.00  0.00    +0.000 A 
ATOM     25  C   UNL     1       1.104   2.063   0.028  0.00  0.00    +0.000 A 
ATOM     26  C   UNL     1       2.320   1.407   0.015  0.00  0.00    +0.005 A 
ATOM     27  C   UNL     1       2.360   0.025  -0.003  0.00  0.00    -0.021 A 
ATOM     28  C   UNL     1       1.183  -0.701  -0.008  0.00  0.00    +0.005 A 
ATOM     29  C   UNL     1      -0.033  -0.044   0.003  0.00  0.00    +0.000 A 
ENDBRANCH   1  27
TORSDOF 3
