REMARK  Name = ZINC22718732
REMARK  13 active torsions:
REMARK  status: ('A' for Active; 'I' for Inactive)
REMARK    1  A    between atoms: C_1  and  C_2
REMARK    2  A    between atoms: C_2  and  C_4
REMARK    3  A    between atoms: C_2  and  N_31
REMARK    4  A    between atoms: C_7  and  S_16
REMARK    5  A    between atoms: N_8  and  C_9
REMARK    6  A    between atoms: S_16  and  C_17
REMARK    7  A    between atoms: C_17  and  C_19
REMARK    8  A    between atoms: C_17  and  C_20
REMARK    9  A    between atoms: N_22  and  C_23
REMARK   10  A    between atoms: C_28  and  S_29
REMARK   11  A    between atoms: S_29  and  C_30
REMARK   12  A    between atoms: N_31  and  C_32
REMARK   13  A    between atoms: N_31  and  C_33
REMARK                            x       y       z     vdW  Elec       q    Type
REMARK                         _______ _______ _______ _____ _____    ______ ____
ROOT
ATOM      1  C   UNL     1      -9.443   0.924  -1.397  0.00  0.00    +0.125 A 
ATOM      2  N   UNL     1      -8.638   1.823  -0.905  0.00  0.00    -0.135 NA
ATOM      3  N   UNL     1      -7.488   1.301  -0.663  0.00  0.00    -0.122 NA
ATOM      4  C   UNL     1      -7.493   0.032  -1.000  0.00  0.00    +0.197 A 
ATOM      5  N   UNL     1      -8.744  -0.251  -1.476  0.00  0.00    -0.275 N 
ENDROOT
BRANCH   5   6
ATOM      6  C   UNL     1      -9.213  -1.486  -1.947  0.00  0.00    +0.050 A 
ATOM      7  C   UNL     1      -9.581  -1.629  -3.278  0.00  0.00    +0.028 A 
ATOM      8  C   UNL     1     -10.037  -2.847  -3.740  0.00  0.00    +0.022 A 
ATOM      9  C   UNL     1     -10.138  -3.923  -2.875  0.00  0.00    +0.041 A 
ATOM     10  C   UNL     1      -9.776  -3.782  -1.547  0.00  0.00    +0.022 A 
ATOM     11  C   UNL     1      -9.314  -2.567  -1.081  0.00  0.00    +0.028 A 
ATOM     12 CL   UNL     1     -10.718  -5.452  -3.458  0.00  0.00    -0.084 Cl
ENDBRANCH   5   6
BRANCH   1  14
ATOM     13  C   UNL     1     -11.754   1.236  -0.553  0.00  0.00    -0.005 C 
ATOM     14  C   UNL     1     -10.878   1.139  -1.804  0.00  0.00    -0.003 C 
BRANCH  14  15
ATOM     15  N   UNL     1     -10.988   2.384  -2.576  0.00  0.00    +0.382 N 
ATOM     16  C   UNL     1     -12.351   2.566  -3.092  0.00  0.00    -0.096 C 
ATOM     17  C   UNL     1     -10.570   3.540  -1.773  0.00  0.00    -0.096 C 
ATOM     18  H   UNL     1     -10.308   2.308  -3.438  0.00  0.00    -0.082 HD
ENDBRANCH  14  15
ENDBRANCH   1  14
BRANCH   4  19
ATOM     19  S   UNL     1      -6.146  -1.095  -0.858  0.00  0.00    -0.073 S 
BRANCH  19  20
ATOM     20  C   UNL     1      -4.886   0.006  -0.168  0.00  0.00    +0.137 C 
ATOM     21  C   UNL     1      -5.319   0.465   1.226  0.00  0.00    +0.029 C 
BRANCH  20  22
ATOM     22  C   UNL     1      -3.575  -0.730  -0.070  0.00  0.00    +0.230 C 
ATOM     23  O   UNL     1      -3.558  -1.943  -0.076  0.00  0.00    -0.274 OA
ATOM     24  N   UNL     1      -2.421  -0.040   0.024  0.00  0.00    -0.284 N 
ATOM     25  H   UNL     1      -2.441   1.055   0.122  0.00  0.00    +0.155 HD
BRANCH  24  26
ATOM     26  C   UNL     1      -1.195  -0.719  -0.002  0.00  0.00    +0.047 A 
ATOM     27  C   UNL     1      -1.099  -1.959  -0.615  0.00  0.00    +0.024 A 
ATOM     28  C   UNL     1       0.111  -2.627  -0.640  0.00  0.00    +0.002 A 
ATOM     29  C   UNL     1       1.229  -2.062  -0.054  0.00  0.00    +0.001 A 
ATOM     30  C   UNL     1       1.145  -0.825   0.555  0.00  0.00    +0.016 A 
ATOM     31  C   UNL     1      -0.067  -0.150   0.590  0.00  0.00    +0.029 A 
BRANCH  31  32
ATOM     32  S   UNL     1      -0.179   1.425   1.372  0.00  0.00    -0.127 S 
ATOM     33  C   UNL     1       1.503   1.736   1.976  0.00  0.00    +0.090 C 
ENDBRANCH  31  32
ENDBRANCH  24  26
ENDBRANCH  20  22
ENDBRANCH  19  20
ENDBRANCH   4  19
TORSDOF 8
