REMARK  Name = ZINC06938697
REMARK  4 active torsions:
REMARK  status: ('A' for Active; 'I' for Inactive)
REMARK    1  A    between atoms: C_1  and  C_2
REMARK    2  A    between atoms: C_9  and  N_14
REMARK    3  A    between atoms: C_10  and  C_11
REMARK    4  A    between atoms: C_15  and  C_17
REMARK                            x       y       z     vdW  Elec       q    Type
REMARK                         _______ _______ _______ _____ _____    ______ ____
ROOT
ATOM      1  C   UNL     1      -1.434   3.622   2.530  0.00  0.00    +0.008 C 
ATOM      2  C   UNL     1      -0.937   3.098   1.180  0.00  0.00    -0.009 C 
ATOM      3  C   UNL     1      -0.734   1.582   1.262  0.00  0.00    +0.008 C 
ATOM      4  C   UNL     1      -0.013   1.086   0.008  0.00  0.00    +0.037 C 
ATOM      5  C   UNL     1      -0.755   1.593  -1.222  0.00  0.00    -0.023 A 
ATOM      6  C   UNL     1      -1.621   2.627  -1.135  0.00  0.00    -0.004 A 
ATOM      7  S   UNL     1      -2.225   2.851  -2.784  0.00  0.00    -0.077 S 
ATOM      8  C   UNL     1      -1.341   1.592  -3.580  0.00  0.00    +0.085 A 
ATOM      9  C   UNL     1      -0.600   1.027  -2.551  0.00  0.00    +0.068 A 
ATOM     10  C   UNL     1      -1.979   3.403   0.095  0.00  0.00    +0.046 C 
ENDROOT
BRANCH   9  11
ATOM     11  C   UNL     1       0.307  -0.099  -2.796  0.00  0.00    +0.244 C 
ATOM     12  O   UNL     1      -0.102  -1.241  -2.702  0.00  0.00    -0.270 OA
ATOM     13  N   UNL     1       1.593   0.132  -3.126  0.00  0.00    -0.325 N 
ATOM     14  H   UNL     1       1.919   1.042  -3.201  0.00  0.00    +0.145 HD
ATOM     15  H   UNL     1       2.193  -0.613  -3.288  0.00  0.00    +0.145 HD
ENDBRANCH   9  11
BRANCH   8  16
ATOM     16  N   UNL     1      -1.368   1.235  -4.918  0.00  0.00    -0.275 N 
ATOM     17  C   UNL     1      -2.158   1.906  -5.779  0.00  0.00    +0.255 C 
ATOM     18  O   UNL     1      -2.849   2.826  -5.380  0.00  0.00    -0.269 OA
ATOM     19  H   UNL     1      -0.818   0.502  -5.235  0.00  0.00    +0.156 HD
BRANCH  17  20
ATOM     20  C   UNL     1      -2.187   1.528  -7.194  0.00  0.00    +0.075 A 
ATOM     21  C   UNL     1      -2.919   2.081  -8.231  0.00  0.00    +0.024 A 
ATOM     22  C   UNL     1      -2.762   1.541  -9.502  0.00  0.00    -0.036 A 
ATOM     23  C   UNL     1      -1.919   0.489  -9.613  0.00  0.00    -0.006 A 
ATOM     24  S   UNL     1      -1.280   0.240  -8.035  0.00  0.00    -0.088 S 
ATOM     25  C   UNL     1      -1.620  -0.300 -10.868  0.00  0.00    +0.043 C 
ATOM     26  C   UNL     1      -0.845   0.629 -11.816  0.00  0.00    +0.005 C 
ATOM     27  C   UNL     1      -1.793   1.577 -12.512  0.00  0.00    +0.001 C 
ATOM     28  C   UNL     1      -2.391   2.670 -11.665  0.00  0.00    +0.005 C 
ATOM     29  C   UNL     1      -3.472   2.139 -10.722  0.00  0.00    +0.036 C 
ENDBRANCH  17  20
ENDBRANCH   8  16
TORSDOF 3
