REMARK  Name = ZINC63745743
REMARK  5 active torsions:
REMARK  status: ('A' for Active; 'I' for Inactive)
REMARK    1  A    between atoms: C_1  and  C_2
REMARK    2  A    between atoms: C_2  and  C_4
REMARK    3  A    between atoms: C_2  and  S_16
REMARK    4  A    between atoms: C_8  and  C_10
REMARK    5  A    between atoms: S_16  and  C_17
REMARK                            x       y       z     vdW  Elec       q    Type
REMARK                         _______ _______ _______ _____ _____    ______ ____
ROOT
ATOM      1  C   UNL     1      -0.019   1.526   0.010  0.00  0.00    +0.024 C 
ATOM      2  C   UNL     1       0.002  -0.004   0.002  0.00  0.00    +0.108 C 
ENDROOT
BRANCH   2   3
ATOM      3  C   UNL     1       0.742  -0.511   1.242  0.00  0.00    +0.290 C 
ATOM      4  N   UNL     1       2.072   0.115   1.340  0.00  0.00    -0.227 N 
ATOM      5  N   UNL     1       2.061   0.826   2.548  0.00  0.00    -0.146 NA
ATOM      6  C   UNL     1       0.921   0.690   3.140  0.00  0.00    +0.239 C 
ATOM      7  O   UNL     1       0.065  -0.094   2.436  0.00  0.00    -0.451 OA
ATOM      8  H   UNL     1       2.801   0.049   0.703  0.00  0.00    +0.172 HD
BRANCH   6   9
ATOM      9  C   UNL     1       0.586   1.314   4.436  0.00  0.00    +0.038 A 
ATOM     10  C   UNL     1      -0.670   1.110   5.010  0.00  0.00    +0.013 A 
ATOM     11  C   UNL     1      -0.976   1.696   6.220  0.00  0.00    +0.001 A 
ATOM     12  C   UNL     1      -0.041   2.486   6.866  0.00  0.00    +0.000 A 
ATOM     13  C   UNL     1       1.206   2.692   6.303  0.00  0.00    +0.001 A 
ATOM     14  C   UNL     1       1.527   2.107   5.096  0.00  0.00    +0.013 A 
ENDBRANCH   6   9
ENDBRANCH   2   3
BRANCH   2  15
ATOM     15  S   UNL     1      -1.700  -0.632   0.015  0.00  0.00    -0.106 S 
BRANCH  15  16
ATOM     16  C   UNL     1      -2.384  -0.077  -1.571  0.00  0.00    +0.236 C 
ATOM     17  N   UNL     1      -1.572  -0.595  -2.679  0.00  0.00    -0.355 N 
ATOM     18  C   UNL     1      -1.100   0.429  -3.329  0.00  0.00    +0.061 A 
ATOM     19  C   UNL     1      -0.235   0.549  -4.511  0.00  0.00    +0.029 A 
ATOM     20  C   UNL     1       0.097   1.772  -4.971  0.00  0.00    +0.022 A 
ATOM     21  C   UNL     1      -0.353   2.959  -4.363  0.00  0.00    +0.043 A 
ATOM     22  C   UNL     1      -1.151   2.960  -3.274  0.00  0.00    +0.047 A 
ATOM     23  C   UNL     1      -1.576   1.684  -2.685  0.00  0.00    +0.062 A 
ATOM     24  N   UNL     1      -2.325   1.387  -1.661  0.00  0.00    -0.355 N 
ATOM     25 CL   UNL     1       0.136   4.481  -5.040  0.00  0.00    -0.083 Cl
ATOM     26  H   UNL     1      -1.415  -1.529  -2.888  0.00  0.00    +0.162 HD
ATOM     27  H   UNL     1      -2.763   2.017  -1.067  0.00  0.00    +0.162 HD
ENDBRANCH  15  16
ENDBRANCH   2  15
TORSDOF 4
