REMARK  Name = ZINC40447527
REMARK  10 active torsions:
REMARK  status: ('A' for Active; 'I' for Inactive)
REMARK    1  A    between atoms: C_1  and  C_2
REMARK    2  A    between atoms: C_2  and  N_3
REMARK    3  A    between atoms: C_7  and  C_9
REMARK    4  A    between atoms: C_9  and  C_11
REMARK    5  A    between atoms: C_9  and  N_12
REMARK    6  A    between atoms: N_12  and  C_13
REMARK    7  A    between atoms: C_13  and  C_15
REMARK    8  A    between atoms: C_13  and  C_16
REMARK    9  A    between atoms: C_17  and  C_22
REMARK   10  A    between atoms: C_19  and  C_21
REMARK                            x       y       z     vdW  Elec       q    Type
REMARK                         _______ _______ _______ _____ _____    ______ ____
ROOT
ATOM      1  C   UNL     1      -4.405  -4.081  -0.118  0.00  0.00    +0.014 C 
ATOM      2  C   UNL     1      -4.745  -3.778  -1.578  0.00  0.00    -0.004 C 
ENDROOT
BRANCH   1   7
ATOM      3  N   UNL     1      -1.321  -0.410   0.238  0.00  0.00    -0.299 N 
ATOM      4  C   UNL     1      -1.567  -1.729   0.363  0.00  0.00    +0.306 C 
ATOM      5  O   UNL     1      -0.686  -2.479   0.734  0.00  0.00    -0.252 OA
ATOM      6  N   UNL     1      -2.791  -2.216   0.077  0.00  0.00    -0.242 N 
ATOM      7  C   UNL     1      -3.037  -3.535   0.202  0.00  0.00    +0.206 C 
ATOM      8  O   UNL     1      -2.158  -4.284   0.573  0.00  0.00    -0.277 OA
ATOM      9  H   UNL     1      -2.025   0.189  -0.059  0.00  0.00    +0.150 HD
ATOM     10  H   UNL     1      -3.494  -1.618  -0.219  0.00  0.00    +0.159 HD
BRANCH   3  12
ATOM     11  C   UNL     1       0.020   1.634   0.325  0.00  0.00    +0.024 C 
ATOM     12  C   UNL     1       0.009   0.120   0.549  0.00  0.00    +0.102 C 
ENDBRANCH   3  12
ENDBRANCH   1   7
BRANCH   1  13
ATOM     13  N   UNL     1      -4.415  -5.534   0.097  0.00  0.00    +0.391 N 
ATOM     14  H   UNL     1      -3.803  -5.977  -0.572  0.00  0.00    -0.084 HD
ATOM     15  H   UNL     1      -4.096  -5.738   1.032  0.00  0.00    -0.084 HD
BRANCH  13  16
ATOM     16  C   UNL     1      -5.782  -6.044  -0.077  0.00  0.00    -0.034 C 
ATOM     17  C   UNL     1      -5.770  -7.572   0.008  0.00  0.00    -0.008 C 
BRANCH  16  18
ATOM     18  C   UNL     1      -6.668  -5.488   1.009  0.00  0.00    -0.002 A 
ATOM     19  C   UNL     1      -7.917  -4.963   0.924  0.00  0.00    +0.047 A 
ATOM     20  N   UNL     1      -8.466  -4.546   2.047  0.00  0.00    -0.249 NA
ATOM     21  C   UNL     1      -7.833  -4.636   3.190  0.00  0.00    +0.076 A 
ATOM     22  S   UNL     1      -6.368  -5.345   2.763  0.00  0.00    -0.079 S 
ATOM     23  C   UNL     1      -8.305  -4.212   4.558  0.00  0.00    +0.073 C 
ATOM     24  C   UNL     1      -8.641  -4.861  -0.393  0.00  0.00    +0.066 C 
ENDBRANCH  16  18
ENDBRANCH  13  16
ENDBRANCH   1  13
TORSDOF 5
