REMARK  Name = ZINC08218866
REMARK  6 active torsions:
REMARK  status: ('A' for Active; 'I' for Inactive)
REMARK    1  A    between atoms: C_1  and  C_2
REMARK    2  A    between atoms: C_9  and  C_11
REMARK    3  A    between atoms: N_16  and  C_18
REMARK    4  A    between atoms: C_18  and  C_19
REMARK    5  A    between atoms: C_18  and  C_20
REMARK    6  A    between atoms: C_18  and  C_21
REMARK                            x       y       z     vdW  Elec       q    Type
REMARK                         _______ _______ _______ _____ _____    ______ ____
ROOT
ATOM      1  C   UNL     1       1.187  -1.826   3.164  0.00  0.00    +0.101 C 
ATOM      2  C   UNL     1       1.462  -0.674   4.158  0.00  0.00    +0.110 C 
ATOM      3  C   UNL     1       0.369  -0.811   5.195  0.00  0.00    +0.217 C 
ATOM      4  O   UNL     1       0.054   0.050   5.990  0.00  0.00    -0.276 OA
ATOM      5  N   UNL     1      -0.201  -2.025   5.109  0.00  0.00    -0.296 N 
ATOM      6  C   UNL     1       0.419  -2.831   4.051  0.00  0.00    +0.121 C 
ENDROOT
BRANCH   1  14
ATOM      7  C   UNL     1      -0.757   2.035  -1.230  0.00  0.00    +0.009 C 
ATOM      8  C   UNL     1      -0.019   1.528   0.010  0.00  0.00    +0.003 C 
ATOM      9  C   UNL     1       1.419   2.053  -0.001  0.00  0.00    +0.006 C 
ATOM     10  C   UNL     1       2.149   1.573   1.256  0.00  0.00    +0.019 C 
ATOM     11  C   UNL     1       2.194   0.042   1.262  0.00  0.00    +0.108 C 
ATOM     12  N   UNL     1       0.824  -0.472   1.126  0.00  0.00    -0.301 N 
ATOM     13  C   UNL     1       0.002  -0.004   0.002  0.00  0.00    +0.111 C 
ATOM     14  C   UNL     1       0.331  -1.356   2.016  0.00  0.00    +0.221 C 
ATOM     15  O   UNL     1      -0.801  -1.772   1.894  0.00  0.00    -0.275 OA
ENDBRANCH   1  14
BRANCH   5  16
ATOM     16  C   UNL     1      -1.299  -2.485   5.963  0.00  0.00    +0.029 C 
ATOM     17  C   UNL     1      -0.856  -3.726   6.740  0.00  0.00    +0.031 C 
ATOM     18  C   UNL     1      -1.680  -1.376   6.945  0.00  0.00    +0.031 C 
ATOM     19  C   UNL     1      -2.509  -2.834   5.093  0.00  0.00    +0.031 C 
ENDBRANCH   5  16
TORSDOF 2
