REMARK  Name = ZINC54238910
REMARK  7 active torsions:
REMARK  status: ('A' for Active; 'I' for Inactive)
REMARK    1  A    between atoms: C_1  and  C_2
REMARK    2  A    between atoms: C_2  and  C_3
REMARK    3  A    between atoms: C_2  and  C_4
REMARK    4  A    between atoms: C_4  and  N_5
REMARK    5  A    between atoms: C_9  and  C_11
REMARK    6  A    between atoms: C_11  and  N_12
REMARK    7  A    between atoms: C_15  and  C_18
REMARK                            x       y       z     vdW  Elec       q    Type
REMARK                         _______ _______ _______ _____ _____    ______ ____
ROOT
ATOM      1  N   UNL     1      -1.416  -1.993  -0.116  0.00  0.00    -0.299 N 
ATOM      2  C   UNL     1      -2.575  -2.682  -0.130  0.00  0.00    +0.306 C 
ATOM      3  O   UNL     1      -3.634  -2.092  -0.036  0.00  0.00    -0.252 OA
ATOM      4  N   UNL     1      -2.559  -4.024  -0.248  0.00  0.00    -0.242 N 
ATOM      5  C   UNL     1      -3.718  -4.713  -0.262  0.00  0.00    +0.204 C 
ATOM      6  O   UNL     1      -4.774  -4.125  -0.168  0.00  0.00    -0.277 OA
ATOM      7  H   UNL     1      -0.572  -2.463  -0.190  0.00  0.00    +0.150 HD
ATOM      8  H   UNL     1      -1.714  -4.495  -0.323  0.00  0.00    +0.159 HD
ENDROOT
BRANCH   1   9
ATOM      9  C   UNL     1      -1.433  -0.534   0.013  0.00  0.00    +0.108 C 
BRANCH   9  11
ATOM     10  C   UNL     1      -0.019   1.526   0.010  0.00  0.00    +0.009 C 
ATOM     11  C   UNL     1       0.002  -0.004   0.002  0.00  0.00    -0.000 C 
ATOM     12  C   UNL     1       0.742  -0.511   1.242  0.00  0.00    +0.009 C 
ENDBRANCH   9  11
ENDBRANCH   1   9
BRANCH   5  13
ATOM     13  C   UNL     1      -3.700  -6.214  -0.394  0.00  0.00    +0.019 C 
BRANCH  13  14
ATOM     14  N   UNL     1      -5.079  -6.722  -0.384  0.00  0.00    +0.385 N 
ATOM     15  C   UNL     1      -5.790  -6.228  -1.569  0.00  0.00    -0.078 C 
ATOM     16  C   UNL     1      -7.248  -6.688  -1.521  0.00  0.00    -0.008 C 
ATOM     17  C   UNL     1      -7.295  -8.219  -1.497  0.00  0.00    +0.048 C 
ATOM     18  C   UNL     1      -6.487  -8.725  -0.299  0.00  0.00    -0.008 C 
ATOM     19  C   UNL     1      -5.057  -8.190  -0.392  0.00  0.00    -0.078 C 
ATOM     20  H   UNL     1      -5.549  -6.399   0.448  0.00  0.00    -0.081 HD
BRANCH  17  21
ATOM     21  C   UNL     1      -8.725  -8.677  -1.372  0.00  0.00    +0.226 C 
ATOM     22  O   UNL     1      -9.214  -9.371  -2.231  0.00  0.00    -0.301 OA
ENDBRANCH  17  21
ENDBRANCH  13  14
ENDBRANCH   5  13
TORSDOF 5
