REMARK  Name = ZINC03365972
REMARK  17 active torsions:
REMARK  status: ('A' for Active; 'I' for Inactive)
REMARK    1  A    between atoms: C_1  and  C_2
REMARK    2  A    between atoms: C_2  and  C_3
REMARK    3  A    between atoms: C_2  and  C_4
REMARK    4  A    between atoms: C_2  and  C_10
REMARK    5  A    between atoms: C_13  and  O_16
REMARK    6  A    between atoms: O_16  and  C_17
REMARK    7  A    between atoms: C_17  and  C_18
REMARK    8  A    between atoms: C_18  and  C_20
REMARK    9  A    between atoms: C_18  and  O_35
REMARK   10  A    between atoms: C_20  and  N_68
REMARK   11  A    between atoms: C_21  and  N_68
REMARK   12  A    between atoms: C_22  and  C_23
REMARK   13  A    between atoms: C_22  and  N_68
REMARK   14  A    between atoms: C_26  and  O_31
REMARK   15  A    between atoms: C_27  and  O_29
REMARK   16  A    between atoms: O_29  and  C_30
REMARK   17  A    between atoms: O_31  and  C_32
REMARK                            x       y       z     vdW  Elec       q    Type
REMARK                         _______ _______ _______ _____ _____    ______ ____
ROOT
ATOM      1  C   UNL     1       7.263   7.377  -0.072  0.00  0.00    +0.135 C 
ENDROOT
BRANCH   1   2
ATOM      2  O   UNL     1       8.261   7.394   0.950  0.00  0.00    -0.390 OA
ATOM      3  H   UNL     1       7.943   7.717   1.804  0.00  0.00    +0.210 HD
ENDBRANCH   1   2
BRANCH   1   4
ATOM      4  C   UNL     1       6.110   6.466   0.355  0.00  0.00    +0.258 C 
BRANCH   4   5
ATOM      5  O   UNL     1       6.577   5.119   0.450  0.00  0.00    -0.489 OA
BRANCH   5   9
ATOM      6  C   UNL     1       3.827   2.258   1.578  0.00  0.00    -0.037 A 
ATOM      7  C   UNL     1       3.439   3.580   1.462  0.00  0.00    +0.008 A 
ATOM      8  C   UNL     1       4.359   4.541   1.089  0.00  0.00    +0.046 A 
ATOM      9  C   UNL     1       5.671   4.177   0.821  0.00  0.00    +0.121 A 
ATOM     10  C   UNL     1       6.056   2.849   0.933  0.00  0.00    +0.046 A 
ATOM     11  C   UNL     1       5.133   1.893   1.312  0.00  0.00    +0.008 A 
BRANCH   6  13
ATOM     12  C   UNL     1       3.448  -0.176   1.857  0.00  0.00    +0.021 C 
ATOM     13  C   UNL     1       2.822   1.214   1.991  0.00  0.00    +0.015 C 
ATOM     14  C   UNL     1       1.590   1.307   1.089  0.00  0.00    +0.021 C 
BRANCH  13  15
ATOM     15  C   UNL     1       2.415   1.446   3.423  0.00  0.00    -0.037 A 
ATOM     16  C   UNL     1       1.457   0.639   4.009  0.00  0.00    +0.004 A 
ATOM     17  C   UNL     1       1.080   0.856   5.321  0.00  0.00    +0.000 A 
ATOM     18  C   UNL     1       1.668   1.871   6.051  0.00  0.00    +0.000 A 
ATOM     19  C   UNL     1       2.626   2.678   5.465  0.00  0.00    +0.000 A 
ATOM     20  C   UNL     1       3.000   2.465   4.151  0.00  0.00    +0.004 A 
ENDBRANCH  13  15
ENDBRANCH   6  13
ENDBRANCH   5   9
ENDBRANCH   4   5
ENDBRANCH   1   4
BRANCH   1  21
ATOM     21  C   UNL     1       6.736   8.796  -0.295  0.00  0.00    -0.044 C 
BRANCH  21  23
ATOM     22  C   UNL     1       7.472  11.091  -0.529  0.00  0.00    -0.096 C 
ATOM     23  N   UNL     1       7.871   9.673  -0.652  0.00  0.00    +0.382 N 
ATOM     24  H   UNL     1       8.650   9.489  -0.009  0.00  0.00    -0.082 HD
BRANCH  23  25
ATOM     25  C   UNL     1       8.313   9.390  -2.034  0.00  0.00    -0.043 C 
BRANCH  25  26
ATOM     26  C   UNL     1       9.598  10.132  -2.295  0.00  0.00    -0.060 A 
ATOM     27  C   UNL     1       9.562  11.407  -2.829  0.00  0.00    +0.005 A 
ATOM     28  C   UNL     1      10.738  12.094  -3.065  0.00  0.00    +0.050 A 
ATOM     29  C   UNL     1      11.957  11.501  -2.776  0.00  0.00    +0.168 A 
ATOM     30  C   UNL     1      11.993  10.216  -2.244  0.00  0.00    +0.162 A 
ATOM     31  C   UNL     1      10.811   9.535  -2.004  0.00  0.00    +0.051 A 
BRANCH  30  32
ATOM     32  O   UNL     1      13.187   9.630  -1.958  0.00  0.00    -0.491 OA
ATOM     33  C   UNL     1      13.147   8.310  -1.413  0.00  0.00    +0.277 C 
ENDBRANCH  30  32
BRANCH  29  34
ATOM     34  O   UNL     1      13.115  12.174  -3.013  0.00  0.00    -0.431 OA
BRANCH  34  35
ATOM     35  C   UNL     1      13.002  13.488  -3.561  0.00  0.00    +0.541 C 
ATOM     36  F   UNL     1      12.346  13.424  -4.795  0.00  0.00    -0.166 F 
ATOM     37  F   UNL     1      12.269  14.297  -2.685  0.00  0.00    -0.166 F 
ENDBRANCH  34  35
ENDBRANCH  29  34
ENDBRANCH  25  26
ENDBRANCH  23  25
ENDBRANCH  21  23
ENDBRANCH   1  21
TORSDOF 13
