REMARK  Name = ZINC33487017
REMARK  5 active torsions:
REMARK  status: ('A' for Active; 'I' for Inactive)
REMARK    1  A    between atoms: C_1  and  C_2
REMARK    2  A    between atoms: C_5  and  N_19
REMARK    3  A    between atoms: C_7  and  N_8
REMARK    4  A    between atoms: N_8  and  C_9
REMARK    5  A    between atoms: C_16  and  O_18
REMARK                            x       y       z     vdW  Elec       q    Type
REMARK                         _______ _______ _______ _____ _____    ______ ____
ROOT
ATOM      1  N   UNL     1      -0.190   2.853  -1.673  0.00  0.00    -0.337 N 
ATOM      2  H   UNL     1      -0.505   3.837  -1.297  0.00  0.00    +0.147 HD
ENDROOT
BRANCH   1   9
ATOM      3  C   UNL     1       1.005   5.264  -2.590  0.00  0.00    +0.045 C 
ATOM      4  C   UNL     1       1.440   3.915  -3.101  0.00  0.00    -0.029 A 
ATOM      5  C   UNL     1       2.451   3.825  -4.038  0.00  0.00    +0.007 A 
ATOM      6  C   UNL     1       2.850   2.591  -4.513  0.00  0.00    +0.023 A 
ATOM      7  C   UNL     1       2.239   1.434  -4.045  0.00  0.00    +0.026 A 
ATOM      8  C   UNL     1       1.227   1.520  -3.099  0.00  0.00    +0.046 A 
ATOM      9  C   UNL     1       0.829   2.761  -2.624  0.00  0.00    +0.032 A 
BRANCH   7  10
ATOM     10  N   UNL     1       2.643   0.186  -4.525  0.00  0.00    -0.358 N 
ATOM     11  H   UNL     1       2.159  -0.729  -4.154  0.00  0.00    +0.142 HD
ATOM     12  H   UNL     1       3.446   0.119  -5.274  0.00  0.00    +0.142 HD
ENDBRANCH   7  10
ENDBRANCH   1   9
BRANCH   1  13
ATOM     13  C   UNL     1      -0.839   1.637  -1.176  0.00  0.00    +0.121 C 
ATOM     14  C   UNL     1      -0.013   1.086   0.008  0.00  0.00    +0.190 C 
ATOM     15  S   UNL     1      -0.972   1.728   1.448  0.00  0.00    -0.027 S 
ATOM     16  O   UNL     1      -0.928   0.779   2.505  0.00  0.00    -0.174 OA
ATOM     17  O   UNL     1      -0.603   3.078   1.695  0.00  0.00    -0.174 OA
ATOM     18  C   UNL     1      -2.641   1.687   0.656  0.00  0.00    +0.199 C 
ATOM     19  C   UNL     1      -2.281   1.966  -0.820  0.00  0.00    +0.157 C 
BRANCH  19  20
ATOM     20  O   UNL     1      -3.145   1.189  -1.652  0.00  0.00    -0.388 OA
ATOM     21  H   UNL     1      -4.236   1.282  -1.550  0.00  0.00    +0.210 HD
ENDBRANCH  19  20
ENDBRANCH   1  13
TORSDOF 4
