REMARK  Name = ZINC19732984
REMARK  6 active torsions:
REMARK  status: ('A' for Active; 'I' for Inactive)
REMARK    1  A    between atoms: C_1  and  C_2
REMARK    2  A    between atoms: C_5  and  C_7
REMARK    3  A    between atoms: C_16  and  C_24
REMARK    4  A    between atoms: C_17  and  N_23
REMARK    5  A    between atoms: C_18  and  C_19
REMARK    6  A    between atoms: C_18  and  C_21
REMARK                            x       y       z     vdW  Elec       q    Type
REMARK                         _______ _______ _______ _____ _____    ______ ____
ROOT
ATOM      1  C   UNL     1      -0.680   1.543  -1.291  0.00  0.00    +0.073 C 
ATOM      2  C   UNL     1      -0.013   1.086   0.008  0.00  0.00    +0.031 C 
ATOM      3  C   UNL     1      -0.809   1.525   1.214  0.00  0.00    +0.009 C 
ATOM      4  C   UNL     1      -0.231   2.768   1.868  0.00  0.00    +0.005 C 
ATOM      5  C   UNL     1       1.225   2.490   2.267  0.00  0.00    +0.027 C 
ATOM      6  C   UNL     1       1.992   2.167   1.011  0.00  0.00    -0.022 C 
ATOM      7  C   UNL     1       1.411   1.557  -0.003  0.00  0.00    -0.029 C 
ATOM      8  C   UNL     1       2.176   1.356  -1.262  0.00  0.00    +0.074 C 
ATOM      9  C   UNL     1       1.509   1.049  -2.403  0.00  0.00    +0.054 C 
ATOM     10  C   UNL     1       0.022   0.873  -2.471  0.00  0.00    +0.189 C 
ENDROOT
BRANCH   1  15
ATOM     11  C   UNL     1       0.731   7.010  -1.748  0.00  0.00    +0.051 C 
ATOM     12  C   UNL     1       0.107   5.643  -1.636  0.00  0.00    -0.013 A 
ATOM     13  C   UNL     1      -1.205   5.301  -1.619  0.00  0.00    +0.011 A 
ATOM     14  C   UNL     1      -1.549   3.967  -1.512  0.00  0.00    +0.012 A 
ATOM     15  C   UNL     1      -0.565   3.040  -1.418  0.00  0.00    -0.003 A 
ATOM     16  S   UNL     1       0.904   4.052  -1.492  0.00  0.00    -0.098 S 
ENDBRANCH   1  15
BRANCH   9  17
ATOM     17  N   UNL     1       2.232   0.893  -3.552  0.00  0.00    -0.358 N 
ATOM     18  H   UNL     1       1.722   0.644  -4.494  0.00  0.00    +0.142 HD
ATOM     19  H   UNL     1       3.325   1.016  -3.535  0.00  0.00    +0.142 HD
ENDBRANCH   9  17
BRANCH  10  20
ATOM     20  C   UNL     1      -0.474   1.464  -3.725  0.00  0.00    +0.091 C 
ATOM     21  N   UNL     1      -0.858   1.920  -4.692  0.00  0.00    -0.194 NA
ENDBRANCH  10  20
BRANCH  10  22
ATOM     22  C   UNL     1      -0.291  -0.566  -2.464  0.00  0.00    +0.091 C 
ATOM     23  N   UNL     1      -0.533  -1.676  -2.458  0.00  0.00    -0.194 NA
ENDBRANCH  10  22
BRANCH   8  24
ATOM     24  C   UNL     1       3.602   1.486  -1.270  0.00  0.00    +0.101 C 
ATOM     25  N   UNL     1       4.734   1.588  -1.277  0.00  0.00    -0.191 NA
ENDBRANCH   8  24
TORSDOF 5
