REMARK  Name = ZINC02216863
REMARK  9 active torsions:
REMARK  status: ('A' for Active; 'I' for Inactive)
REMARK    1  A    between atoms: C_1  and  C_2
REMARK    2  A    between atoms: C_5  and  N_8
REMARK    3  A    between atoms: C_13  and  C_14
REMARK    4  A    between atoms: C_13  and  N_63
REMARK    5  A    between atoms: C_14  and  C_16
REMARK    6  A    between atoms: C_14  and  O_34
REMARK    7  A    between atoms: C_16  and  N_17
REMARK    8  A    between atoms: C_26  and  C_32
REMARK    9  A    between atoms: C_27  and  C_31
REMARK                            x       y       z     vdW  Elec       q    Type
REMARK                         _______ _______ _______ _____ _____    ______ ____
ROOT
ATOM      1  C   UNL     1       1.190   8.057  -2.392  0.00  0.00    +0.118 C 
ENDROOT
BRANCH   1   2
ATOM      2  O   UNL     1      -0.201   7.766  -2.542  0.00  0.00    -0.392 OA
ATOM      3  H   UNL     1      -0.762   8.172  -1.868  0.00  0.00    +0.210 HD
ENDBRANCH   1   2
BRANCH   1   4
ATOM      4  C   UNL     1       1.674   7.544  -1.033  0.00  0.00    -0.045 C 
BRANCH   4  10
ATOM      5  N   UNL     1       2.352   3.429  -0.363  0.00  0.00    -0.333 N 
ATOM      6  C   UNL     1       1.300   4.090   0.422  0.00  0.00    +0.086 C 
ATOM      7  C   UNL     1       1.532   5.603   0.408  0.00  0.00    -0.060 C 
ATOM      8  C   UNL     1       2.582   5.422  -1.766  0.00  0.00    -0.060 C 
ATOM      9  C   UNL     1       2.350   3.909  -1.752  0.00  0.00    +0.086 C 
ATOM     10  N   UNL     1       1.505   6.076  -0.992  0.00  0.00    +0.383 N 
ATOM     11  H   UNL     1       0.599   5.833  -1.410  0.00  0.00    -0.082 HD
BRANCH   5  16
ATOM     12  C   UNL     1       1.796  -2.211  -0.162  0.00  0.00    +0.044 C 
ATOM     13  C   UNL     1       1.944  -0.712  -0.216  0.00  0.00    -0.050 A 
ATOM     14  C   UNL     1       2.059   0.012   0.957  0.00  0.00    +0.005 A 
ATOM     15  C   UNL     1       2.194   1.386   0.912  0.00  0.00    +0.023 A 
ATOM     16  C   UNL     1       2.215   2.040  -0.314  0.00  0.00    +0.030 A 
ATOM     17  C   UNL     1       2.101   1.310  -1.490  0.00  0.00    +0.023 A 
ATOM     18  C   UNL     1       1.965  -0.064  -1.437  0.00  0.00    +0.005 A 
ENDBRANCH   5  16
ENDBRANCH   4  10
ENDBRANCH   1   4
BRANCH   1  19
ATOM     19  C   UNL     1       1.408   9.569  -2.473  0.00  0.00    +0.153 C 
BRANCH  19  20
ATOM     20  N   UNL     1       0.945  10.059  -3.774  0.00  0.00    -0.322 N 
ATOM     21  C   UNL     1      -0.338  10.503  -4.066  0.00  0.00    +0.068 A 
ATOM     22  C   UNL     1      -1.496  10.621  -3.307  0.00  0.00    +0.028 A 
ATOM     23  C   UNL     1      -2.650  11.107  -3.885  0.00  0.00    +0.002 A 
ATOM     24  C   UNL     1      -2.660  11.479  -5.219  0.00  0.00    +0.002 A 
ATOM     25  C   UNL     1      -1.515  11.366  -5.982  0.00  0.00    +0.028 A 
ATOM     26  C   UNL     1      -0.349  10.877  -5.410  0.00  0.00    +0.075 A 
ATOM     27  N   UNL     1       0.932  10.654  -5.912  0.00  0.00    -0.260 N 
ATOM     28  C   UNL     1       1.703  10.164  -4.905  0.00  0.00    +0.140 A 
ATOM     29  C   UNL     1       3.051   9.856  -5.140  0.00  0.00    +0.096 A 
ATOM     30  C   UNL     1       3.593  10.063  -6.423  0.00  0.00    -0.024 A 
ATOM     31  C   UNL     1       2.793  10.560  -7.410  0.00  0.00    +0.075 A 
ATOM     32  C   UNL     1       1.450  10.848  -7.141  0.00  0.00    +0.258 A 
ATOM     33  O   UNL     1       0.741  11.293  -8.029  0.00  0.00    -0.267 OA
ATOM     34  C   UNL     1       5.039   9.741  -6.701  0.00  0.00    +0.045 C 
BRANCH  29  35
ATOM     35  C   UNL     1       3.868   9.337  -4.085  0.00  0.00    +0.103 C 
ATOM     36  N   UNL     1       4.516   8.924  -3.248  0.00  0.00    -0.191 NA
ENDBRANCH  29  35
ENDBRANCH  19  20
ENDBRANCH   1  19
TORSDOF 7
