REMARK  Name = ZINC00854650
REMARK  6 active torsions:
REMARK  status: ('A' for Active; 'I' for Inactive)
REMARK    1  A    between atoms: C_1  and  C_2
REMARK    2  A    between atoms: C_2  and  C_4
REMARK    3  A    between atoms: N_24  and  C_27
REMARK    4  A    between atoms: C_32  and  C_33
REMARK    5  A    between atoms: C_33  and  O_35
REMARK    6  A    between atoms: O_35  and  C_36
REMARK                            x       y       z     vdW  Elec       q    Type
REMARK                         _______ _______ _______ _____ _____    ______ ____
ROOT
ATOM      1  C   UNL     1       2.549   1.164  -0.162  0.00  0.00    +0.091 C 
ATOM      2  C   UNL     1       1.146   1.788   0.001  0.00  0.00    -0.025 A 
ATOM      3  C   UNL     1      -0.013   1.076   0.008  0.00  0.00    +0.005 A 
ATOM      4  C   UNL     1      -1.217   1.772   0.017  0.00  0.00    +0.000 A 
ATOM      5  C   UNL     1      -1.217   3.155   0.031  0.00  0.00    +0.000 A 
ATOM      6  C   UNL     1      -0.027   3.867   0.046  0.00  0.00    +0.004 A 
ATOM      7  C   UNL     1       1.161   3.178   0.052  0.00  0.00    -0.035 A 
ATOM      8  C   UNL     1       2.517   3.889   0.148  0.00  0.00    +0.062 C 
ATOM      9  C   UNL     1       3.140   3.087   1.329  0.00  0.00    -0.035 A 
ATOM     10  C   UNL     1       3.245   1.723   1.074  0.00  0.00    -0.025 A 
ATOM     11  C   UNL     1       3.870   0.917   1.994  0.00  0.00    +0.005 A 
ATOM     12  C   UNL     1       4.325   1.476   3.179  0.00  0.00    +0.000 A 
ATOM     13  C   UNL     1       4.161   2.824   3.440  0.00  0.00    +0.000 A 
ATOM     14  C   UNL     1       3.559   3.647   2.492  0.00  0.00    +0.004 A 
ATOM     15  C   UNL     1       3.451   3.318  -0.883  0.00  0.00    +0.101 C 
ATOM     16  C   UNL     1       2.959   1.949  -1.411  0.00  0.00    +0.111 C 
ATOM     17  C   UNL     1       4.186   1.576  -2.190  0.00  0.00    +0.232 C 
ATOM     18  O   UNL     1       4.649   0.468  -2.349  0.00  0.00    -0.274 OA
ATOM     19  N   UNL     1       4.668   2.761  -2.683  0.00  0.00    -0.209 N 
ATOM     20  C   UNL     1       4.135   3.866  -2.059  0.00  0.00    +0.231 C 
ATOM     21  O   UNL     1       4.194   5.026  -2.405  0.00  0.00    -0.274 OA
ENDROOT
BRANCH  19  22
ATOM     22  C   UNL     1       5.605   2.839  -3.715  0.00  0.00    +0.058 A 
ATOM     23  C   UNL     1       5.185   2.899  -5.036  0.00  0.00    +0.025 A 
ATOM     24  C   UNL     1       6.113   2.982  -6.055  0.00  0.00    +0.002 A 
ATOM     25  C   UNL     1       7.468   2.995  -5.769  0.00  0.00    +0.001 A 
ATOM     26  C   UNL     1       7.905   2.930  -4.463  0.00  0.00    +0.017 A 
ATOM     27  C   UNL     1       6.977   2.852  -3.422  0.00  0.00    +0.081 A 
BRANCH  27  28
ATOM     28  C   UNL     1       7.436   2.783  -2.022  0.00  0.00    +0.341 C 
ATOM     29  O   UNL     1       6.626   2.716  -1.119  0.00  0.00    -0.245 OA
BRANCH  28  30
ATOM     30  O   UNL     1       8.755   2.796  -1.745  0.00  0.00    -0.464 OA
ATOM     31  C   UNL     1       9.135   2.726  -0.345  0.00  0.00    +0.280 C 
ENDBRANCH  28  30
ENDBRANCH  27  28
ENDBRANCH  19  22
BRANCH   1  33
ATOM     32  C   UNL     1       2.052  -1.204   0.817  0.00  0.00    +0.087 C 
ATOM     33  C   UNL     1       2.592  -0.337  -0.291  0.00  0.00    +0.146 C 
ATOM     34  O   UNL     1       3.059  -0.845  -1.282  0.00  0.00    -0.296 OA
ENDBRANCH   1  33
TORSDOF 4
