REMARK  Name = ZINC33384112
REMARK  5 active torsions:
REMARK  status: ('A' for Active; 'I' for Inactive)
REMARK    1  A    between atoms: C_1  and  C_2
REMARK    2  A    between atoms: N_8  and  C_12
REMARK    3  A    between atoms: N_18  and  N_19
REMARK    4  A    between atoms: C_20  and  C_21
REMARK    5  A    between atoms: C_24  and  N_27
REMARK                            x       y       z     vdW  Elec       q    Type
REMARK                         _______ _______ _______ _____ _____    ______ ____
ROOT
ATOM      1  C   UNL     1       1.423   0.965   0.418  0.00  0.00    +0.088 C 
ATOM      2  C   UNL     1       1.801  -0.443   0.035  0.00  0.00    +0.130 A 
ATOM      3  N   UNL     1       1.385  -0.908  -1.126  0.00  0.00    -0.215 NA
ATOM      4  C   UNL     1       1.704  -2.152  -1.493  0.00  0.00    +0.158 A 
ATOM      5  C   UNL     1       2.467  -2.913  -0.631  0.00  0.00    +0.099 A 
ATOM      6  C   UNL     1       2.903  -2.406   0.601  0.00  0.00    +0.158 A 
ATOM      7  N   UNL     1       2.531  -1.139   0.873  0.00  0.00    -0.214 NA
ATOM      8  N   UNL     1       3.656  -3.260   1.373  0.00  0.00    -0.282 N 
ATOM      9  C   UNL     1       3.942  -4.506   0.943  0.00  0.00    +0.132 A 
ATOM     10  S   UNL     1       4.851  -5.729   1.724  0.00  0.00    -0.024 S 
ATOM     11  S   UNL     1       3.132  -4.557  -0.649  0.00  0.00    -0.056 S 
ATOM     12  N   UNL     1       1.278  -2.666  -2.709  0.00  0.00    -0.220 N 
ATOM     13  H   UNL     1       1.517  -3.571  -2.963  0.00  0.00    +0.176 HD
ENDROOT
BRANCH   8  14
ATOM     14  C   UNL     1       4.131  -2.831   2.619  0.00  0.00    +0.050 A 
ATOM     15  C   UNL     1       5.492  -2.863   2.893  0.00  0.00    +0.026 A 
ATOM     16  C   UNL     1       5.958  -2.439   4.122  0.00  0.00    +0.002 A 
ATOM     17  C   UNL     1       5.070  -1.984   5.080  0.00  0.00    +0.000 A 
ATOM     18  C   UNL     1       3.714  -1.950   4.810  0.00  0.00    +0.002 A 
ATOM     19  C   UNL     1       3.243  -2.368   3.580  0.00  0.00    +0.026 A 
ENDBRANCH   8  14
BRANCH  12  20
ATOM     20  N   UNL     1       0.504  -1.878  -3.571  0.00  0.00    -0.189 NA
ATOM     21  C   UNL     1       0.001  -2.397  -4.649  0.00  0.00    +0.138 C 
BRANCH  21  22
ATOM     22  C   UNL     1      -0.265  -3.846  -4.715  0.00  0.00    -0.005 A 
ATOM     23  C   UNL     1      -0.503  -4.460  -5.947  0.00  0.00    +0.012 A 
ATOM     24  C   UNL     1      -0.750  -5.816  -6.001  0.00  0.00    +0.033 A 
ATOM     25  C   UNL     1      -0.763  -6.568  -4.839  0.00  0.00    +0.126 A 
ATOM     26  C   UNL     1      -0.528  -5.966  -3.616  0.00  0.00    +0.033 A 
ATOM     27  C   UNL     1      -0.273  -4.612  -3.547  0.00  0.00    +0.012 A 
BRANCH  25  28
ATOM     28  N   UNL     1      -1.030  -8.022  -4.906  0.00  0.00    +0.056 N 
ATOM     29  O   UNL     1      -1.236  -8.551  -5.973  0.00  0.00    -0.126 OA
ATOM     30  O   UNL     1      -1.041  -8.682  -3.893  0.00  0.00    -0.126 OA
ENDBRANCH  25  28
ENDBRANCH  21  22
ENDBRANCH  12  20
TORSDOF 4
