REMARK  Name = ZINC59491069
REMARK  3 active torsions:
REMARK  status: ('A' for Active; 'I' for Inactive)
REMARK    1  A    between atoms: C_6  and  N_7
REMARK    2  A    between atoms: C_11  and  S_15
REMARK    3  A    between atoms: S_15  and  C_16
REMARK                            x       y       z     vdW  Elec       q    Type
REMARK                         _______ _______ _______ _____ _____    ______ ____
ROOT
ATOM      1  N   UNL     1      -0.528  -0.814   0.331  0.00  0.00    -0.209 N 
ATOM      2  C   UNL     1      -1.537  -0.049   0.767  0.00  0.00    +0.228 C 
ATOM      3  O   UNL     1      -1.458   1.128   1.042  0.00  0.00    -0.275 OA
ATOM      4  C   UNL     1      -2.793  -0.889   0.860  0.00  0.00    +0.120 C 
ATOM      5  C   UNL     1      -2.329  -2.285   0.398  0.00  0.00    +0.149 C 
ATOM      6  C   UNL     1      -0.862  -2.087   0.086  0.00  0.00    +0.240 C 
ATOM      7  O   UNL     1      -0.107  -2.945  -0.318  0.00  0.00    -0.274 OA
ENDROOT
BRANCH   1  13
ATOM      8  C   UNL     1       1.363  -0.386  -1.113  0.00  0.00    +0.025 A 
ATOM      9  C   UNL     1       2.642   0.102  -1.298  0.00  0.00    +0.017 A 
ATOM     10  C   UNL     1       3.333   0.656  -0.235  0.00  0.00    +0.018 A 
ATOM     11  C   UNL     1       2.744   0.723   1.015  0.00  0.00    +0.017 A 
ATOM     12  C   UNL     1       1.466   0.236   1.206  0.00  0.00    +0.025 A 
ATOM     13  C   UNL     1       0.770  -0.320   0.141  0.00  0.00    +0.044 A 
ATOM     14 BR   UNL     1       5.083   1.322  -0.492  0.00  0.00    -0.050 Br
ENDBRANCH   1  13
BRANCH   5  15
ATOM     15  S   UNL     1      -2.551  -3.503   1.724  0.00  0.00    -0.077 S 
BRANCH  15  16
ATOM     16  C   UNL     1      -2.116  -5.036   0.972  0.00  0.00    +0.141 C 
ATOM     17  N   UNL     1      -1.742  -5.067  -0.277  0.00  0.00    -0.380 N 
ATOM     18  N   UNL     1      -2.170  -6.204   1.705  0.00  0.00    -0.308 N 
ATOM     19  C   UNL     1      -2.615  -7.369   1.115  0.00  0.00    +0.193 C 
ATOM     20  N   UNL     1      -2.558  -8.493   1.770  0.00  0.00    -0.268 NA
ATOM     21  N   UNL     1      -3.118  -7.342  -0.164  0.00  0.00    -0.370 N 
ATOM     22  H   UNL     1      -1.524  -5.913  -0.697  0.00  0.00    +0.158 HD
ATOM     23  H   UNL     1      -3.160  -6.505  -0.652  0.00  0.00    +0.159 HD
ATOM     24  H   UNL     1      -3.431  -8.161  -0.579  0.00  0.00    +0.159 HD
ATOM     25  H   UNL     1      -1.683  -4.243  -0.786  0.00  0.00    +0.158 HD
ATOM     26  H   UNL     1      -2.272  -8.501   2.696  0.00  0.00    +0.190 HD
ATOM     27  H   UNL     1      -1.894  -6.206   2.635  0.00  0.00    +0.171 HD
ENDBRANCH  15  16
ENDBRANCH   5  15
TORSDOF 3
