REMARK  Name = ZINC64020919
REMARK  8 active torsions:
REMARK  status: ('A' for Active; 'I' for Inactive)
REMARK    1  A    between atoms: C_1  and  C_2
REMARK    2  A    between atoms: C_4  and  C_30
REMARK    3  A    between atoms: C_5  and  C_29
REMARK    4  A    between atoms: C_6  and  C_8
REMARK    5  A    between atoms: C_8  and  O_10
REMARK    6  A    between atoms: O_10  and  C_11
REMARK    7  A    between atoms: C_11  and  C_12
REMARK    8  A    between atoms: C_30  and  C_32
REMARK                            x       y       z     vdW  Elec       q    Type
REMARK                         _______ _______ _______ _____ _____    ______ ____
ROOT
ATOM      1  C   UNL     1       3.397  -2.251   5.152  0.00  0.00    +0.262 C 
ATOM      2  O   UNL     1       2.438  -1.598   5.505  0.00  0.00    -0.271 OA
ATOM      3  N   UNL     1       4.216  -2.797   6.073  0.00  0.00    -0.237 N 
ATOM      4  C   UNL     1       5.334  -3.551   5.691  0.00  0.00    +0.045 A 
ATOM      5  C   UNL     1       6.269  -2.951   4.855  0.00  0.00    +0.024 A 
ATOM      6  C   UNL     1       7.407  -3.631   4.475  0.00  0.00    +0.002 A 
ATOM      7  C   UNL     1       7.610  -4.918   4.939  0.00  0.00    +0.000 A 
ATOM      8  C   UNL     1       6.677  -5.517   5.754  0.00  0.00    +0.005 A 
ATOM      9  C   UNL     1       5.508  -4.853   6.135  0.00  0.00    -0.025 A 
ATOM     10  C   UNL     1       4.550  -5.682   6.959  0.00  0.00    +0.042 C 
ATOM     11  C   UNL     1       3.258  -4.957   7.288  0.00  0.00    +0.042 C 
ATOM     12  C   UNL     1       3.514  -3.725   8.121  0.00  0.00    -0.025 A 
ATOM     13  C   UNL     1       3.980  -2.623   7.444  0.00  0.00    +0.045 A 
ATOM     14  C   UNL     1       4.206  -1.426   8.100  0.00  0.00    +0.024 A 
ATOM     15  C   UNL     1       3.978  -1.364   9.466  0.00  0.00    +0.002 A 
ATOM     16  C   UNL     1       3.535  -2.479  10.153  0.00  0.00    +0.000 A 
ATOM     17  C   UNL     1       3.295  -3.683   9.478  0.00  0.00    +0.005 A 
ENDROOT
BRANCH   1  18
ATOM     18  C   UNL     1       3.673  -2.453   3.685  0.00  0.00    +0.329 C 
BRANCH  18  19
ATOM     19  O   UNL     1       2.672  -1.783   2.915  0.00  0.00    -0.451 OA
BRANCH  19  20
ATOM     20  C   UNL     1       2.774  -1.865   1.576  0.00  0.00    +0.358 C 
ATOM     21  O   UNL     1       3.687  -2.489   1.074  0.00  0.00    -0.243 OA
BRANCH  20  26
ATOM     22  C   UNL     1      -0.019   1.526   0.010  0.00  0.00    +0.038 C 
ATOM     23  C   UNL     1       0.002  -0.004   0.002  0.00  0.00    +0.137 C 
ATOM     24  C   UNL     1       0.731  -0.510  -1.223  0.00  0.00    +0.024 C 
ATOM     25  C   UNL     1       1.785  -1.218  -0.758  0.00  0.00    -0.010 C 
ATOM     26  C   UNL     1       1.769  -1.193   0.711  0.00  0.00    +0.146 C 
ATOM     27  N   UNL     1       0.761  -0.507   1.153  0.00  0.00    -0.269 NA
ATOM     28  C   UNL     1       2.810  -1.922  -1.609  0.00  0.00    +0.046 C 
BRANCH  24  29
ATOM     29  C   UNL     1       0.371  -0.281  -2.621  0.00  0.00    +0.159 C 
ATOM     30  O   UNL     1       1.052  -0.751  -3.508  0.00  0.00    -0.293 OA
ATOM     31  C   UNL     1      -0.847   0.539  -2.960  0.00  0.00    +0.091 C 
ENDBRANCH  24  29
ENDBRANCH  20  26
ENDBRANCH  19  20
ENDBRANCH  18  19
ENDBRANCH   1  18
TORSDOF 5
