REMARK  Name = ZINC53994219
REMARK  7 active torsions:
REMARK  status: ('A' for Active; 'I' for Inactive)
REMARK    1  A    between atoms: C_1  and  C_2
REMARK    2  A    between atoms: C_5  and  S_8
REMARK    3  A    between atoms: S_8  and  C_9
REMARK    4  A    between atoms: C_10  and  N_23
REMARK    5  A    between atoms: C_11  and  N_22
REMARK    6  A    between atoms: N_12  and  C_14
REMARK    7  A    between atoms: C_24  and  C_26
REMARK                            x       y       z     vdW  Elec       q    Type
REMARK                         _______ _______ _______ _____ _____    ______ ____
ROOT
ATOM      1  C   UNL     1       1.034  -5.048   1.868  0.00  0.00    +0.146 A 
ATOM      2  C   UNL     1       0.405  -6.266   2.181  0.00  0.00    +0.108 A 
ATOM      3  C   UNL     1      -0.276  -6.093   3.350  0.00  0.00    +0.137 A 
ATOM      4  N   UNL     1      -0.078  -4.809   3.754  0.00  0.00    -0.243 N 
ATOM      5  N   UNL     1       0.748  -4.182   2.812  0.00  0.00    -0.161 NA
ENDROOT
BRANCH   4   6
ATOM      6  C   UNL     1      -0.627  -4.192   4.964  0.00  0.00    +0.132 C 
ATOM      7  C   UNL     1      -1.481  -2.971   4.583  0.00  0.00    +0.051 C 
ATOM      8  C   UNL     1      -1.797  -2.133   5.845  0.00  0.00    +0.168 C 
ATOM      9  S   UNL     1      -0.359  -2.488   6.936  0.00  0.00    -0.029 S 
ATOM     10  O   UNL     1       0.431  -1.313   7.056  0.00  0.00    -0.174 OA
ATOM     11  O   UNL     1      -0.820  -3.143   8.109  0.00  0.00    -0.174 OA
ATOM     12  C   UNL     1       0.533  -3.704   5.878  0.00  0.00    +0.192 C 
ENDBRANCH   4   6
BRANCH   2  13
ATOM     13  N   UNL     1       0.466  -7.454   1.421  0.00  0.00    -0.277 N 
ATOM     14  C   UNL     1       0.168  -7.430   0.107  0.00  0.00    +0.248 C 
ATOM     15  O   UNL     1      -0.248  -6.408  -0.403  0.00  0.00    -0.270 OA
ATOM     16  H   UNL     1       0.723  -8.288   1.845  0.00  0.00    +0.155 HD
BRANCH  14  17
ATOM     17  C   UNL     1       0.347  -8.646  -0.713  0.00  0.00    +0.037 A 
ATOM     18  C   UNL     1       0.820  -9.822  -0.129  0.00  0.00    +0.014 A 
ATOM     19  C   UNL     1       0.985 -10.954  -0.900  0.00  0.00    +0.021 A 
ATOM     20  C   UNL     1       0.683 -10.925  -2.251  0.00  0.00    +0.041 A 
ATOM     21  C   UNL     1       0.214  -9.760  -2.837  0.00  0.00    +0.021 A 
ATOM     22  C   UNL     1       0.039  -8.624  -2.075  0.00  0.00    +0.014 A 
ATOM     23 CL   UNL     1       0.894 -12.353  -3.215  0.00  0.00    -0.084 Cl
ENDBRANCH  14  17
ENDBRANCH   2  13
BRANCH   3  24
ATOM     24  N   UNL     1      -1.037  -7.057   4.012  0.00  0.00    -0.342 N 
ATOM     25  H   UNL     1      -1.117  -7.950   3.641  0.00  0.00    +0.144 HD
ATOM     26  H   UNL     1      -1.486  -6.835   4.843  0.00  0.00    +0.144 HD
ENDBRANCH   3  24
BRANCH   1  27
ATOM     27  S   UNL     1       2.039  -4.739   0.454  0.00  0.00    -0.066 S 
BRANCH  27  32
ATOM     28  C   UNL     1       4.344   0.747   1.470  0.00  0.00    +0.044 C 
ATOM     29  C   UNL     1       3.769  -0.623   1.217  0.00  0.00    -0.050 A 
ATOM     30  C   UNL     1       4.553  -1.746   1.407  0.00  0.00    +0.004 A 
ATOM     31  C   UNL     1       4.029  -3.003   1.176  0.00  0.00    +0.015 A 
ATOM     32  C   UNL     1       2.712  -3.138   0.751  0.00  0.00    +0.014 A 
ATOM     33  C   UNL     1       1.928  -2.006   0.561  0.00  0.00    +0.015 A 
ATOM     34  C   UNL     1       2.457  -0.753   0.800  0.00  0.00    +0.004 A 
ENDBRANCH  27  32
ENDBRANCH   1  27
TORSDOF 6
