REMARK  Name = ZINC59384174
REMARK  10 active torsions:
REMARK  status: ('A' for Active; 'I' for Inactive)
REMARK    1  A    between atoms: C_1  and  C_2
REMARK    2  A    between atoms: C_2  and  O_3
REMARK    3  A    between atoms: O_3  and  C_4
REMARK    4  A    between atoms: C_7  and  C_10
REMARK    5  A    between atoms: N_11  and  N_12
REMARK    6  A    between atoms: C_13  and  C_15
REMARK    7  A    between atoms: C_16  and  C_31
REMARK    8  A    between atoms: C_21  and  C_23
REMARK    9  A    between atoms: C_26  and  O_29
REMARK   10  A    between atoms: O_29  and  C_30
REMARK                            x       y       z     vdW  Elec       q    Type
REMARK                         _______ _______ _______ _____ _____    ______ ____
ROOT
ATOM      1  C   UNL     1       2.685  -9.864  -4.476  0.00  0.00    +0.057 C 
ATOM      2  C   UNL     1       3.276 -10.427  -5.552  0.00  0.00    +0.017 C 
ATOM      3  N   UNL     1       3.258 -11.780  -5.738  0.00  0.00    -0.300 N 
ATOM      4  C   UNL     1       2.670 -12.638  -4.894  0.00  0.00    +0.135 C 
ATOM      5  S   UNL     1       2.721 -14.312  -5.247  0.00  0.00    -0.019 S 
ATOM      6  N   UNL     1       2.040 -12.226  -3.776  0.00  0.00    -0.315 N 
ATOM      7  C   UNL     1       2.008 -10.784  -3.481  0.00  0.00    +0.139 C 
ATOM      8  C   UNL     1       3.966  -9.549  -6.564  0.00  0.00    +0.061 C 
ATOM      9  H   UNL     1       3.695 -12.140  -6.526  0.00  0.00    +0.154 HD
ATOM     10  H   UNL     1       1.621 -12.865  -3.179  0.00  0.00    +0.149 HD
ENDROOT
BRANCH   7  11
ATOM     11  C   UNL     1       2.650 -10.566  -2.135  0.00  0.00    -0.022 A 
ATOM     12  C   UNL     1       3.874 -11.144  -1.854  0.00  0.00    +0.009 A 
ATOM     13  C   UNL     1       4.465 -10.946  -0.621  0.00  0.00    +0.046 A 
ATOM     14  C   UNL     1       3.829 -10.167   0.335  0.00  0.00    +0.120 A 
ATOM     15  C   UNL     1       2.601  -9.588   0.050  0.00  0.00    +0.046 A 
ATOM     16  C   UNL     1       2.017  -9.785  -1.187  0.00  0.00    +0.009 A 
BRANCH  14  17
ATOM     17  O   UNL     1       4.408  -9.972   1.549  0.00  0.00    -0.495 OA
ATOM     18  C   UNL     1       3.697  -9.158   2.484  0.00  0.00    +0.277 C 
ENDBRANCH  14  17
ENDBRANCH   7  11
BRANCH   1  20
ATOM     19  N   UNL     1       3.806  -7.864  -3.787  0.00  0.00    -0.203 N 
ATOM     20  C   UNL     1       2.704  -8.461  -4.282  0.00  0.00    +0.263 C 
ATOM     21  O   UNL     1       1.724  -7.794  -4.563  0.00  0.00    -0.269 OA
ATOM     22  H   UNL     1       4.559  -8.401  -3.496  0.00  0.00    +0.178 HD
BRANCH  19  24
ATOM     23  C   UNL     1       4.924  -5.892  -3.215  0.00  0.00    +0.138 C 
ATOM     24  N   UNL     1       3.863  -6.467  -3.692  0.00  0.00    -0.187 NA
BRANCH  23  28
ATOM     25  C   UNL     1       5.097  -1.660  -2.928  0.00  0.00    +0.121 A 
ATOM     26  C   UNL     1       6.177  -2.427  -2.510  0.00  0.00    +0.046 A 
ATOM     27  C   UNL     1       6.126  -3.801  -2.601  0.00  0.00    +0.013 A 
ATOM     28  C   UNL     1       4.984  -4.422  -3.115  0.00  0.00    -0.005 A 
ATOM     29  C   UNL     1       3.900  -3.647  -3.534  0.00  0.00    +0.013 A 
ATOM     30  C   UNL     1       3.958  -2.273  -3.433  0.00  0.00    +0.046 A 
BRANCH  25  31
ATOM     31  O   UNL     1       5.153  -0.305  -2.836  0.00  0.00    -0.492 OA
BRANCH  31  33
ATOM     32  C   UNL     1       6.231   1.785  -2.281  0.00  0.00    +0.048 C 
ATOM     33  C   UNL     1       6.354   0.260  -2.307  0.00  0.00    +0.225 C 
ENDBRANCH  31  33
ENDBRANCH  25  31
ENDBRANCH  23  28
ENDBRANCH  19  24
ENDBRANCH   1  20
TORSDOF 7
