REMARK  Name = ZINC38848320
REMARK  7 active torsions:
REMARK  status: ('A' for Active; 'I' for Inactive)
REMARK    1  A    between atoms: C_1  and  C_2
REMARK    2  A    between atoms: C_5  and  C_32
REMARK    3  A    between atoms: N_11  and  C_12
REMARK    4  A    between atoms: C_12  and  C_13
REMARK    5  A    between atoms: C_13  and  C_14
REMARK    6  A    between atoms: C_14  and  N_15
REMARK    7  A    between atoms: C_20  and  C_22
REMARK                            x       y       z     vdW  Elec       q    Type
REMARK                         _______ _______ _______ _____ _____    ______ ____
ROOT
ATOM      1  C   UNL     1      -5.550  -2.575   4.097  0.00  0.00    +0.046 C 
ATOM      2  C   UNL     1      -4.699  -2.459   2.858  0.00  0.00    -0.024 A 
ATOM      3  C   UNL     1      -5.215  -2.831   1.644  0.00  0.00    +0.006 A 
ATOM      4  C   UNL     1      -4.467  -2.741   0.479  0.00  0.00    +0.005 A 
ATOM      5  C   UNL     1      -3.171  -2.264   0.543  0.00  0.00    -0.035 A 
ATOM      6  C   UNL     1      -2.645  -1.889   1.754  0.00  0.00    +0.044 A 
ATOM      7  C   UNL     1      -3.380  -1.962   2.960  0.00  0.00    +0.083 A 
ATOM      8  N   UNL     1      -2.726  -1.551   4.068  0.00  0.00    -0.224 NA
ATOM      9  C   UNL     1      -1.492  -1.107   4.036  0.00  0.00    +0.168 A 
ATOM     10  S   UNL     1      -1.083  -1.242   2.301  0.00  0.00    -0.052 S 
ATOM     11  N   UNL     1      -0.703  -0.655   5.081  0.00  0.00    -0.250 N 
ATOM     12  C   UNL     1      -0.026  -1.537   5.844  0.00  0.00    +0.227 C 
ATOM     13  O   UNL     1       0.569  -1.155   6.829  0.00  0.00    -0.275 OA
ATOM     14  C   UNL     1      -2.340  -2.157  -0.710  0.00  0.00    +0.045 C 
ENDROOT
BRANCH  12  15
ATOM     15  C   UNL     1      -0.011  -2.998   5.474  0.00  0.00    +0.048 C 
ATOM     16  C   UNL     1       1.344  -3.353   4.858  0.00  0.00    +0.019 C 
ATOM     17  C   UNL     1       1.359  -4.836   4.482  0.00  0.00    -0.009 C 
ATOM     18  C   UNL     1       1.131  -5.683   5.736  0.00  0.00    +0.007 C 
ATOM     19  C   UNL     1      -0.223  -5.327   6.352  0.00  0.00    -0.009 C 
ATOM     20  C   UNL     1      -0.239  -3.844   6.728  0.00  0.00    +0.019 C 
ATOM     21  C   UNL     1      -1.334  -5.608   5.338  0.00  0.00    +0.007 C 
ATOM     22  C   UNL     1      -1.106  -4.761   4.084  0.00  0.00    -0.009 C 
ATOM     23  C   UNL     1       0.249  -5.117   3.468  0.00  0.00    +0.007 C 
ATOM     24  C   UNL     1      -1.122  -3.279   4.460  0.00  0.00    +0.019 C 
ENDBRANCH  12  15
BRANCH  11  25
ATOM     25  C   UNL     1      -0.603   0.780   5.357  0.00  0.00    +0.117 C 
BRANCH  25  26
ATOM     26  C   UNL     1      -1.698   1.186   6.346  0.00  0.00    +0.041 C 
BRANCH  26  27
ATOM     27  C   UNL     1      -1.594   2.685   6.635  0.00  0.00    +0.124 C 
BRANCH  27  28
ATOM     28  N   UNL     1      -2.642   3.074   7.581  0.00  0.00    -0.338 N 
ATOM     29  C   UNL     1      -3.907   3.493   7.266  0.00  0.00    +0.104 A 
ATOM     30  C   UNL     1      -4.535   3.745   8.430  0.00  0.00    +0.101 A 
ATOM     31  N   UNL     1      -3.678   3.488   9.429  0.00  0.00    -0.352 N 
ATOM     32  C   UNL     1      -2.543   3.080   8.928  0.00  0.00    +0.173 A 
ATOM     33  H   UNL     1      -3.871   3.586  10.374  0.00  0.00    +0.166 HD
ENDBRANCH  27  28
ENDBRANCH  26  27
ENDBRANCH  25  26
ENDBRANCH  11  25
TORSDOF 5
