REMARK  Name = ZINC04655212
REMARK  7 active torsions:
REMARK  status: ('A' for Active; 'I' for Inactive)
REMARK    1  A    between atoms: C_1  and  C_2
REMARK    2  A    between atoms: C_5  and  O_30
REMARK    3  A    between atoms: C_18  and  C_29
REMARK    4  A    between atoms: C_23  and  C_24
REMARK    5  A    between atoms: C_23  and  O_28
REMARK    6  A    between atoms: C_24  and  C_26
REMARK    7  A    between atoms: C_26  and  O_27
REMARK                            x       y       z     vdW  Elec       q    Type
REMARK                         _______ _______ _______ _____ _____    ______ ____
ROOT
ATOM      1  C   UNL     1       4.866  -2.762   2.458  0.00  0.00    +0.012 C 
ATOM      2  C   UNL     1       3.969  -2.994   1.237  0.00  0.00    -0.026 C 
ATOM      3  C   UNL     1       4.933  -3.372   0.139  0.00  0.00    +0.010 C 
ATOM      4  C   UNL     1       5.587  -4.723   0.400  0.00  0.00    +0.032 C 
ATOM      5  C   UNL     1       4.521  -5.797   0.559  0.00  0.00    +0.115 C 
ATOM      6  C   UNL     1       3.534  -5.477   1.652  0.00  0.00    +0.035 C 
ATOM      7  C   UNL     1       3.035  -4.054   1.696  0.00  0.00    -0.002 C 
ATOM      8  C   UNL     1       1.613  -3.990   1.164  0.00  0.00    +0.004 C 
ATOM      9  C   UNL     1       1.067  -2.561   1.126  0.00  0.00    +0.004 C 
ATOM     10  C   UNL     1       2.028  -1.741   0.274  0.00  0.00    -0.004 C 
ATOM     11  C   UNL     1       3.356  -1.630   1.016  0.00  0.00    -0.001 C 
ATOM     12  C   UNL     1       4.257  -0.632   0.311  0.00  0.00    +0.005 C 
ATOM     13  C   UNL     1       3.684   0.792   0.419  0.00  0.00    +0.010 C 
ATOM     14  C   UNL     1       2.190   0.773   0.598  0.00  0.00    +0.007 C 
ATOM     15  C   UNL     1       1.529  -0.399  -0.153  0.00  0.00    +0.002 C 
ATOM     16  C   UNL     1       0.037  -0.101   0.010  0.00  0.00    +0.008 C 
ATOM     17  C   UNL     1      -0.049   1.447   0.003  0.00  0.00    +0.043 C 
ATOM     18  C   UNL     1       1.418   1.964  -0.013  0.00  0.00    +0.131 C 
ATOM     19  C   UNL     1       1.832   0.765   2.096  0.00  0.00    +0.015 C 
ENDROOT
BRANCH  18  20
ATOM     20  C   UNL     1       1.851   2.280  -1.416  0.00  0.00    +0.190 C 
ATOM     21  O   UNL     1       2.346   1.419  -2.103  0.00  0.00    -0.292 OA
BRANCH  20  22
ATOM     22  C   UNL     1       1.669   3.671  -1.966  0.00  0.00    +0.233 C 
BRANCH  22  23
ATOM     23  O   UNL     1       2.154   3.720  -3.309  0.00  0.00    -0.387 OA
ATOM     24  H   UNL     1       2.068   4.588  -3.727  0.00  0.00    +0.210 HD
ENDBRANCH  22  23
ENDBRANCH  20  22
ENDBRANCH  18  20
BRANCH  18  25
ATOM     25  O   UNL     1       1.550   3.112   0.830  0.00  0.00    -0.380 OA
ATOM     26  H   UNL     1       1.007   3.865   0.558  0.00  0.00    +0.211 HD
ENDBRANCH  18  25
BRANCH   5  27
ATOM     27  O   UNL     1       5.160  -7.039   0.866  0.00  0.00    -0.392 OA
ATOM     28  H   UNL     1       5.779  -7.341   0.187  0.00  0.00    +0.210 HD
ENDBRANCH   5  27
TORSDOF 5
