REMARK  Name = ZINC63029966
REMARK  10 active torsions:
REMARK  status: ('A' for Active; 'I' for Inactive)
REMARK    1  A    between atoms: C_1  and  C_2
REMARK    2  A    between atoms: C_2  and  N_3
REMARK    3  A    between atoms: N_3  and  C_4
REMARK    4  A    between atoms: C_4  and  C_6
REMARK    5  A    between atoms: C_4  and  C_17
REMARK    6  A    between atoms: C_6  and  C_7
REMARK    7  A    between atoms: C_12  and  N_13
REMARK    8  A    between atoms: C_17  and  C_18
REMARK    9  A    between atoms: C_17  and  C_19
REMARK   10  A    between atoms: C_17  and  C_20
REMARK                            x       y       z     vdW  Elec       q    Type
REMARK                         _______ _______ _______ _____ _____    ______ ____
ROOT
ATOM      1  C   UNL     1      -2.709  -2.627  -0.070  0.00  0.00    +0.022 C 
ENDROOT
BRANCH   1   2
ATOM      2  C   UNL     1      -3.299  -2.174   1.241  0.00  0.00    -0.019 A 
ATOM      3  C   UNL     1      -2.470  -1.749   2.262  0.00  0.00    +0.007 A 
ATOM      4  C   UNL     1      -3.010  -1.333   3.464  0.00  0.00    +0.015 A 
ATOM      5  C   UNL     1      -4.382  -1.341   3.645  0.00  0.00    +0.020 A 
ATOM      6  C   UNL     1      -5.211  -1.767   2.623  0.00  0.00    +0.048 A 
ATOM      7  C   UNL     1      -4.670  -2.178   1.420  0.00  0.00    +0.130 A 
ATOM      8 BR   UNL     1      -5.122  -0.773   5.290  0.00  0.00    -0.050 Br
BRANCH   7   9
ATOM      9  N   UNL     1      -5.558  -2.627   0.324  0.00  0.00    +0.057 N 
ATOM     10  O   UNL     1      -6.757  -2.517   0.434  0.00  0.00    -0.126 OA
ATOM     11  O   UNL     1      -5.084  -3.106  -0.680  0.00  0.00    -0.126 OA
ENDBRANCH   7   9
ENDBRANCH   1   2
BRANCH   1  12
ATOM     12  C   UNL     1      -1.414  -1.859  -0.339  0.00  0.00    -0.062 C 
BRANCH  12  13
ATOM     13  C   UNL     1      -0.674  -2.503  -1.513  0.00  0.00    -0.050 C 
ATOM     14  C   UNL     1       0.562  -1.669  -1.856  0.00  0.00    +0.009 C 
ATOM     15  C   UNL     1      -0.243  -3.920  -1.130  0.00  0.00    +0.009 C 
ATOM     16  C   UNL     1      -1.601  -2.563  -2.729  0.00  0.00    +0.009 C 
ENDBRANCH  12  13
BRANCH  12  17
ATOM     17  N   UNL     1      -1.732  -0.463  -0.666  0.00  0.00    +0.381 N 
ATOM     18  H   UNL     1      -2.411  -0.438  -1.411  0.00  0.00    -0.086 HD
ATOM     19  H   UNL     1      -0.892   0.013  -0.960  0.00  0.00    -0.086 HD
BRANCH  17  21
ATOM     20  C   UNL     1      -2.479   1.693   0.224  0.00  0.00    -0.017 C 
ATOM     21  C   UNL     1      -2.283   0.205   0.521  0.00  0.00    -0.086 C 
ENDBRANCH  17  21
ENDBRANCH  12  17
ENDBRANCH   1  12
TORSDOF 6
