REMARK  Name = ZINC38042832
REMARK  7 active torsions:
REMARK  status: ('A' for Active; 'I' for Inactive)
REMARK    1  A    between atoms: C_1  and  N_2
REMARK    2  A    between atoms: N_2  and  C_3
REMARK    3  A    between atoms: N_2  and  C_4
REMARK    4  A    between atoms: C_4  and  C_5
REMARK    5  A    between atoms: C_5  and  N_6
REMARK    6  A    between atoms: C_7  and  C_9
REMARK    7  A    between atoms: N_14  and  C_15
REMARK                            x       y       z     vdW  Elec       q    Type
REMARK                         _______ _______ _______ _____ _____    ______ ____
ROOT
ATOM      1  C   UNL     1       0.604  -1.172   6.125  0.00  0.00    +0.143 C 
ATOM      2  C   UNL     1       0.526  -2.666   6.503  0.00  0.00    +0.029 C 
ATOM      3  C   UNL     1       0.596  -2.639   8.052  0.00  0.00    +0.017 C 
ATOM      4  C   UNL     1      -0.195  -1.348   8.378  0.00  0.00    +0.085 C 
ATOM      5  N   UNL     1       0.171  -0.397   7.302  0.00  0.00    -0.289 NA
ENDROOT
BRANCH   5   6
ATOM      6  C   UNL     1      -0.957   0.482   6.968  0.00  0.00    +0.054 C 
ATOM      7  C   UNL     1      -0.462   1.644   6.102  0.00  0.00    -0.000 C 
ATOM      8  C   UNL     1      -1.625   2.598   5.824  0.00  0.00    -0.081 C 
ATOM      9  N   UNL     1      -2.148   3.120   7.093  0.00  0.00    +0.379 N 
ATOM     10  C   UNL     1      -2.690   2.019   7.898  0.00  0.00    -0.081 C 
ATOM     11  C   UNL     1      -1.568   1.043   8.256  0.00  0.00    -0.000 C 
ATOM     12  H   UNL     1      -1.404   3.573   7.601  0.00  0.00    -0.086 HD
ATOM     13  H   UNL     1      -2.879   3.789   6.904  0.00  0.00    -0.086 HD
ENDBRANCH   5   6
BRANCH   1  15
ATOM     14  N   UNL     1       0.175  -0.297   3.851  0.00  0.00    -0.316 N 
ATOM     15  C   UNL     1      -0.310  -0.889   4.961  0.00  0.00    +0.230 C 
ATOM     16  O   UNL     1      -1.483  -1.194   5.022  0.00  0.00    -0.274 OA
ATOM     17  H   UNL     1       1.112  -0.053   3.802  0.00  0.00    +0.149 HD
BRANCH  14  18
ATOM     18  C   UNL     1      -0.714  -0.022   2.720  0.00  0.00    +0.085 C 
BRANCH  18  19
ATOM     19  C   UNL     1       0.081   0.649   1.598  0.00  0.00    -0.061 C 
BRANCH  19  21
ATOM     20  C   UNL     1      -1.823   1.910   0.864  0.00  0.00    -0.097 C 
ATOM     21  N   UNL     1      -0.810   0.925   0.463  0.00  0.00    +0.377 N 
ATOM     22  C   UNL     1      -0.025   1.458  -0.658  0.00  0.00    -0.097 C 
ATOM     23  H   UNL     1      -1.266   0.071   0.178  0.00  0.00    -0.083 HD
ENDBRANCH  19  21
ENDBRANCH  18  19
ENDBRANCH  14  18
ENDBRANCH   1  15
TORSDOF 5
