REMARK  Name = ZINC23232107
REMARK  6 active torsions:
REMARK  status: ('A' for Active; 'I' for Inactive)
REMARK    1  A    between atoms: C_1  and  C_2
REMARK    2  A    between atoms: C_2  and  C_8
REMARK    3  A    between atoms: C_14  and  C_17
REMARK    4  A    between atoms: C_17  and  N_18
REMARK    5  A    between atoms: C_20  and  C_23
REMARK    6  A    between atoms: C_23  and  N_24
REMARK                            x       y       z     vdW  Elec       q    Type
REMARK                         _______ _______ _______ _____ _____    ______ ____
ROOT
ATOM      1  C   UNL     1       0.602   3.230  -0.632  0.00  0.00    +0.150 C 
ENDROOT
BRANCH   1   8
ATOM      2  C   UNL     1      -0.201   0.880   3.498  0.00  0.00    +0.221 C 
ATOM      3  O   UNL     1      -1.369   0.785   3.189  0.00  0.00    -0.275 OA
ATOM      4  N   UNL     1       0.598   1.756   2.856  0.00  0.00    -0.301 N 
ATOM      5  C   UNL     1       1.989   1.954   3.284  0.00  0.00    +0.108 C 
ATOM      6  C   UNL     1       2.910   1.756   2.076  0.00  0.00    +0.019 C 
ATOM      7  C   UNL     1       2.464   2.681   0.942  0.00  0.00    +0.008 C 
ATOM      8  C   UNL     1       1.035   2.326   0.524  0.00  0.00    +0.028 C 
ATOM      9  C   UNL     1       0.093   2.531   1.714  0.00  0.00    +0.113 C 
BRANCH   2  11
ATOM     10  C   UNL     1       1.516  -0.820   4.056  0.00  0.00    +0.021 C 
ATOM     11  C   UNL     1       0.359   0.020   4.601  0.00  0.00    +0.044 C 
ATOM     12  C   UNL     1      -0.737  -0.906   5.132  0.00  0.00    +0.016 C 
ATOM     13  C   UNL     1      -1.894  -0.066   5.678  0.00  0.00    +0.001 C 
ATOM     14  C   UNL     1      -1.386   0.826   6.812  0.00  0.00    +0.000 C 
ATOM     15  C   UNL     1      -0.289   1.751   6.282  0.00  0.00    +0.001 C 
ATOM     16  C   UNL     1       0.867   0.911   5.736  0.00  0.00    +0.016 C 
ENDBRANCH   2  11
ENDBRANCH   1   8
BRANCH   1  17
ATOM     17  N   UNL     1       1.429   2.949  -1.808  0.00  0.00    -0.251 N 
ATOM     18  C   UNL     1       0.973   2.605  -3.035  0.00  0.00    +0.131 A 
ATOM     19  C   UNL     1       2.068   2.442  -3.813  0.00  0.00    +0.066 A 
ATOM     20  N   UNL     1       3.128   2.683  -3.032  0.00  0.00    -0.136 NA
ATOM     21  N   UNL     1       2.715   2.981  -1.851  0.00  0.00    -0.066 NA
BRANCH  19  22
ATOM     22  C   UNL     1       2.091   2.058  -5.270  0.00  0.00    -0.018 C 
BRANCH  22  23
ATOM     23  N   UNL     1       2.173   3.272  -6.094  0.00  0.00    +0.390 N 
ATOM     24  C   UNL     1       2.436   2.935  -7.503  0.00  0.00    -0.059 C 
ATOM     25  C   UNL     1       2.206   4.184  -8.357  0.00  0.00    +0.085 C 
ATOM     26  N   UNL     1       2.934   5.317  -7.793  0.00  0.00    -0.319 N 
ATOM     27  C   UNL     1       3.382   5.338  -6.533  0.00  0.00    +0.196 C 
ATOM     28  O   UNL     1       3.950   6.333  -6.135  0.00  0.00    -0.278 OA
ATOM     29  C   UNL     1       3.210   4.182  -5.589  0.00  0.00    +0.019 C 
ATOM     30  H   UNL     1       3.135   6.204  -8.411  0.00  0.00    +0.149 HD
ATOM     31  H   UNL     1       1.201   3.782  -6.031  0.00  0.00    -0.081 HD
ENDBRANCH  22  23
ENDBRANCH  19  22
ENDBRANCH   1  17
TORSDOF 5
