REMARK  Name = ZINC38683911
REMARK  17 active torsions:
REMARK  status: ('A' for Active; 'I' for Inactive)
REMARK    1  A    between atoms: C_1  and  C_2
REMARK    2  A    between atoms: C_2  and  C_3
REMARK    3  A    between atoms: C_3  and  O_4
REMARK    4  A    between atoms: O_4  and  C_5
REMARK    5  A    between atoms: C_8  and  C_14
REMARK    6  A    between atoms: C_10  and  O_11
REMARK    7  A    between atoms: O_11  and  C_12
REMARK    8  A    between atoms: C_12  and  C_13
REMARK    9  A    between atoms: C_19  and  O_28
REMARK   10  A    between atoms: C_23  and  N_27
REMARK   11  A    between atoms: C_24  and  C_25
REMARK   12  A    between atoms: O_28  and  C_29
REMARK   13  A    between atoms: C_29  and  C_31
REMARK   14  A    between atoms: C_31  and  O_32
REMARK   15  A    between atoms: O_32  and  C_33
REMARK   16  A    between atoms: C_35  and  C_40
REMARK   17  A    between atoms: C_37  and  C_39
REMARK                            x       y       z     vdW  Elec       q    Type
REMARK                         _______ _______ _______ _____ _____    ______ ____
ROOT
ATOM      1  C   UNL     1       3.236  -4.405  -5.715  0.00  0.00    +0.098 C 
ATOM      2  C   UNL     1       4.684  -3.993  -5.750  0.00  0.00    +0.008 A 
ATOM      3  C   UNL     1       5.556  -4.490  -4.797  0.00  0.00    +0.012 A 
ATOM      4  C   UNL     1       6.888  -4.123  -4.814  0.00  0.00    +0.047 A 
ATOM      5  C   UNL     1       7.355  -3.254  -5.790  0.00  0.00    +0.135 A 
ATOM      6  C   UNL     1       6.485  -2.755  -6.745  0.00  0.00    +0.093 A 
ATOM      7  C   UNL     1       5.146  -3.124  -6.726  0.00  0.00    +0.138 A 
ATOM      8  O   UNL     1       4.307  -2.628  -7.669  0.00  0.00    -0.441 OA
ATOM      9  C   UNL     1       3.139  -3.243  -7.917  0.00  0.00    +0.199 C 
ATOM     10  C   UNL     1       2.579  -4.095  -7.030  0.00  0.00    +0.098 C 
ENDROOT
BRANCH   1  14
ATOM     11  C   UNL     1       1.235  -2.269  -2.597  0.00  0.00    +0.162 A 
ATOM     12  C   UNL     1       1.836  -1.579  -3.638  0.00  0.00    +0.050 A 
ATOM     13  C   UNL     1       2.482  -2.273  -4.644  0.00  0.00    +0.008 A 
ATOM     14  C   UNL     1       2.531  -3.654  -4.615  0.00  0.00    -0.031 A 
ATOM     15  C   UNL     1       1.933  -4.348  -3.580  0.00  0.00    +0.054 A 
ATOM     16  C   UNL     1       1.288  -3.659  -2.565  0.00  0.00    +0.162 A 
BRANCH  11  17
ATOM     17  O   UNL     1       0.599  -1.588  -1.607  0.00  0.00    -0.488 OA
BRANCH  17  18
ATOM     18  C   UNL     1       0.583  -0.163  -1.705  0.00  0.00    +0.229 C 
BRANCH  18  20
ATOM     19  C   UNL     1      -0.188   1.949  -0.616  0.00  0.00    +0.007 C 
ATOM     20  C   UNL     1      -0.172   0.423  -0.510  0.00  0.00    +0.038 C 
ENDBRANCH  18  20
ENDBRANCH  17  18
ENDBRANCH  11  17
BRANCH  16  21
ATOM     21  O   UNL     1       0.705  -4.340  -1.543  0.00  0.00    -0.489 OA
BRANCH  21  22
ATOM     22  C   UNL     1       0.800  -5.766  -1.575  0.00  0.00    +0.226 C 
ATOM     23  C   UNL     1       0.091  -6.352  -0.353  0.00  0.00    +0.048 C 
ENDBRANCH  21  22
ENDBRANCH  16  21
ENDBRANCH   1  14
BRANCH   9  24
ATOM     24  N   UNL     1       2.495  -2.997  -9.104  0.00  0.00    -0.328 N 
ATOM     25  H   UNL     1       2.885  -2.386  -9.749  0.00  0.00    +0.145 HD
ATOM     26  H   UNL     1       1.651  -3.433  -9.297  0.00  0.00    +0.145 HD
ENDBRANCH   9  24
BRANCH  10  27
ATOM     27  C   UNL     1       1.331  -4.718  -7.355  0.00  0.00    +0.101 C 
ATOM     28  N   UNL     1       0.341  -5.212  -7.613  0.00  0.00    -0.191 NA
ENDBRANCH  10  27
BRANCH   5  29
ATOM     29  O   UNL     1       8.665  -2.892  -5.807  0.00  0.00    -0.423 OA
BRANCH  29  30
ATOM     30  C   UNL     1       8.973  -1.623  -5.495  0.00  0.00    +0.350 C 
ATOM     31  O   UNL     1       8.111  -0.869  -5.110  0.00  0.00    -0.247 OA
BRANCH  30  32
ATOM     32  C   UNL     1      10.394  -1.138  -5.626  0.00  0.00    +0.349 C 
BRANCH  32  33
ATOM     33  O   UNL     1      10.466   0.236  -5.238  0.00  0.00    -0.481 OA
BRANCH  33  34
ATOM     34  C   UNL     1      11.686   0.831  -5.298  0.00  0.00    +0.122 A 
ATOM     35  C   UNL     1      12.791   0.109  -5.727  0.00  0.00    +0.049 A 
ATOM     36  C   UNL     1      14.030   0.716  -5.787  0.00  0.00    -0.047 A 
ATOM     37  C   UNL     1      14.171   2.041  -5.421  0.00  0.00    +0.007 A 
ATOM     38  C   UNL     1      13.072   2.763  -4.993  0.00  0.00    -0.047 A 
ATOM     39  C   UNL     1      11.829   2.162  -4.937  0.00  0.00    +0.049 A 
ATOM     40  C   UNL     1      13.228   4.208  -4.594  0.00  0.00    +0.044 C 
ATOM     41  C   UNL     1      15.231  -0.068  -6.252  0.00  0.00    +0.044 C 
ENDBRANCH  33  34
ENDBRANCH  32  33
ENDBRANCH  30  32
ENDBRANCH  29  30
ENDBRANCH   5  29
TORSDOF 13
