REMARK  Name = ZINC35599718
REMARK  7 active torsions:
REMARK  status: ('A' for Active; 'I' for Inactive)
REMARK    1  A    between atoms: C_1  and  C_2
REMARK    2  A    between atoms: C_2  and  C_4
REMARK    3  A    between atoms: C_2  and  N_6
REMARK    4  A    between atoms: C_4  and  O_5
REMARK    5  A    between atoms: N_6  and  S_7
REMARK    6  A    between atoms: S_7  and  C_10
REMARK    7  A    between atoms: C_11  and  N_18
REMARK                            x       y       z     vdW  Elec       q    Type
REMARK                         _______ _______ _______ _____ _____    ______ ____
ROOT
ATOM      1  C   UNL     1      -1.178   0.435  -3.493  0.00  0.00    +0.140 A 
ATOM      2  C   UNL     1      -2.249   0.912  -2.749  0.00  0.00    +0.053 A 
ATOM      3  C   UNL     1      -2.620   2.247  -2.849  0.00  0.00    +0.040 A 
ATOM      4  C   UNL     1      -1.923   3.096  -3.687  0.00  0.00    +0.021 A 
ATOM      5  C   UNL     1      -0.856   2.618  -4.427  0.00  0.00    +0.032 A 
ATOM      6  C   UNL     1      -0.481   1.290  -4.325  0.00  0.00    +0.047 A 
ATOM      7 BR   UNL     1       0.983   0.642  -5.332  0.00  0.00    -0.048 Br
ATOM      8 BR   UNL     1      -2.427   4.913  -3.823  0.00  0.00    -0.050 Br
ENDROOT
BRANCH   1   9
ATOM      9  S   UNL     1      -0.703  -1.258  -3.370  0.00  0.00    +0.062 S 
ATOM     10  O   UNL     1      -0.131  -1.611  -4.622  0.00  0.00    -0.153 OA
ATOM     11  O   UNL     1      -1.813  -1.952  -2.816  0.00  0.00    -0.153 OA
BRANCH   9  12
ATOM     12  N   UNL     1       0.515  -1.344  -2.252  0.00  0.00    -0.185 NA
ATOM     13  H   UNL     1       1.405  -1.617  -2.524  0.00  0.00    +0.148 HD
BRANCH  12  15
ATOM     14  C   UNL     1       0.615   0.454  -0.598  0.00  0.00    +0.028 C 
ATOM     15  C   UNL     1       0.248  -1.009  -0.851  0.00  0.00    +0.099 C 
BRANCH  15  16
ATOM     16  C   UNL     1       1.088  -1.910   0.058  0.00  0.00    +0.175 C 
BRANCH  16  17
ATOM     17  O   UNL     1       2.474  -1.627  -0.141  0.00  0.00    -0.393 OA
ATOM     18  H   UNL     1       3.067  -2.162   0.404  0.00  0.00    +0.209 HD
ENDBRANCH  16  17
ENDBRANCH  15  16
ENDBRANCH  12  15
ENDBRANCH   9  12
ENDBRANCH   1   9
BRANCH   2  19
ATOM     19  N   UNL     1      -2.953   0.051  -1.904  0.00  0.00    -0.356 N 
ATOM     20  H   UNL     1      -2.511  -0.725  -1.525  0.00  0.00    +0.142 HD
ATOM     21  H   UNL     1      -3.883   0.230  -1.695  0.00  0.00    +0.142 HD
ENDBRANCH   2  19
TORSDOF 6
