REMARK  Name = ZINC13799590
REMARK  10 active torsions:
REMARK  status: ('A' for Active; 'I' for Inactive)
REMARK    1  A    between atoms: C_1  and  C_2
REMARK    2  A    between atoms: C_2  and  O_3
REMARK    3  A    between atoms: O_3  and  C_4
REMARK    4  A    between atoms: C_6  and  C_20
REMARK    5  A    between atoms: C_9  and  O_10
REMARK    6  A    between atoms: O_10  and  S_11
REMARK    7  A    between atoms: S_11  and  C_14
REMARK    8  A    between atoms: C_30  and  C_32
REMARK    9  A    between atoms: C_32  and  C_33
REMARK   10  A    between atoms: C_32  and  C_34
REMARK                            x       y       z     vdW  Elec       q    Type
REMARK                         _______ _______ _______ _____ _____    ______ ____
ROOT
ATOM      1  C   UNL     1       0.572  -2.097   1.802  0.00  0.00    +0.165 A 
ATOM      2  C   UNL     1       0.205  -2.801   0.673  0.00  0.00    +0.057 A 
ATOM      3  C   UNL     1       0.195  -4.203   0.699  0.00  0.00    -0.021 A 
ATOM      4  C   UNL     1       0.560  -4.880   1.871  0.00  0.00    +0.012 A 
ATOM      5  C   UNL     1       0.924  -4.168   2.991  0.00  0.00    +0.053 A 
ATOM      6  C   UNL     1       0.938  -2.779   2.963  0.00  0.00    +0.198 A 
ENDROOT
BRANCH   3   7
ATOM      7  C   UNL     1      -0.194  -4.957  -0.495  0.00  0.00    +0.024 C 
ATOM      8  C   UNL     1       0.441  -6.140  -0.799  0.00  0.00    +0.081 C 
ATOM      9  C   UNL     1      -0.039  -7.030  -1.894  0.00  0.00    +0.152 C 
ATOM     10  N   UNL     1      -0.601  -6.585  -2.986  0.00  0.00    -0.283 NA
ATOM     11  N   UNL     1       0.173  -8.401  -1.635  0.00  0.00    -0.152 N 
ATOM     12  C   UNL     1       1.171  -8.733  -0.744  0.00  0.00    +0.181 C 
ATOM     13  N   UNL     1       1.900  -7.919  -0.021  0.00  0.00    -0.152 NA
ATOM     14  C   UNL     1       1.645  -6.594  -0.060  0.00  0.00    +0.273 C 
ATOM     15  O   UNL     1       2.378  -5.794   0.499  0.00  0.00    -0.268 OA
ATOM     16  S   UNL     1       1.173 -10.504  -0.832  0.00  0.00    -0.038 S 
ATOM     17  C   UNL     1      -0.204 -10.684  -1.956  0.00  0.00    +0.102 C 
ATOM     18  N   UNL     1      -0.522  -9.446  -2.204  0.00  0.00    -0.169 NA
ATOM     19  H   UNL     1      -0.897  -7.208  -3.668  0.00  0.00    +0.188 HD
BRANCH  17  20
ATOM     20  C   UNL     1      -0.836 -11.947  -2.483  0.00  0.00    +0.040 C 
ATOM     21  C   UNL     1      -1.877 -12.452  -1.482  0.00  0.00    +0.014 C 
ATOM     22  C   UNL     1      -1.516 -11.657  -3.822  0.00  0.00    +0.014 C 
ENDBRANCH  17  20
ENDBRANCH   3   7
BRANCH   1  23
ATOM     23  O   UNL     1       0.583  -0.737   1.781  0.00  0.00    -0.488 OA
BRANCH  23  25
ATOM     24  C   UNL     1       0.270   1.415   0.727  0.00  0.00    +0.048 C 
ATOM     25  C   UNL     1       0.197  -0.104   0.560  0.00  0.00    +0.226 C 
ENDBRANCH  23  25
ENDBRANCH   1  23
BRANCH   6  26
ATOM     26  O   UNL     1       1.305  -2.083   4.069  0.00  0.00    -0.339 OA
BRANCH  26  27
ATOM     27  S   UNL     1       0.149  -1.749   5.001  0.00  0.00    +0.151 S 
ATOM     28  O   UNL     1       0.662  -0.856   5.981  0.00  0.00    -0.131 OA
ATOM     29  O   UNL     1      -0.957  -1.417   4.173  0.00  0.00    -0.131 OA
BRANCH  27  30
ATOM     30  C   UNL     1      -0.283  -3.232   5.849  0.00  0.00    +0.128 A 
ATOM     31  C   UNL     1      -1.227  -4.087   5.309  0.00  0.00    +0.030 A 
ATOM     32  C   UNL     1      -1.565  -5.250   5.974  0.00  0.00    +0.002 A 
ATOM     33  C   UNL     1      -0.960  -5.560   7.178  0.00  0.00    +0.000 A 
ATOM     34  C   UNL     1      -0.016  -4.706   7.716  0.00  0.00    +0.002 A 
ATOM     35  C   UNL     1       0.326  -3.545   7.050  0.00  0.00    +0.030 A 
ENDBRANCH  27  30
ENDBRANCH  26  27
ENDBRANCH   6  26
TORSDOF 7
