REMARK  Name = ZINC59419065
REMARK  12 active torsions:
REMARK  status: ('A' for Active; 'I' for Inactive)
REMARK    1  A    between atoms: C_1  and  C_2
REMARK    2  A    between atoms: C_2  and  N_3
REMARK    3  A    between atoms: N_3  and  C_4
REMARK    4  A    between atoms: N_3  and  C_6
REMARK    5  A    between atoms: C_4  and  C_5
REMARK    6  A    between atoms: C_9  and  C_22
REMARK    7  A    between atoms: C_10  and  O_12
REMARK    8  A    between atoms: O_12  and  C_13
REMARK    9  A    between atoms: C_13  and  C_14
REMARK   10  A    between atoms: N_23  and  N_24
REMARK   11  A    between atoms: C_25  and  C_27
REMARK   12  A    between atoms: C_27  and  N_28
REMARK                            x       y       z     vdW  Elec       q    Type
REMARK                         _______ _______ _______ _____ _____    ______ ____
ROOT
ATOM      1  C   UNL     1      -2.607  -0.535   2.627  0.00  0.00    +0.033 A 
ATOM      2  C   UNL     1      -1.780  -0.792   3.718  0.00  0.00    +0.024 A 
ATOM      3  C   UNL     1      -2.325  -1.158   4.928  0.00  0.00    +0.015 A 
ATOM      4  C   UNL     1      -3.711  -1.272   5.064  0.00  0.00    +0.036 A 
ATOM      5  C   UNL     1      -4.543  -1.012   3.965  0.00  0.00    +0.131 A 
ATOM      6  C   UNL     1      -3.986  -0.640   2.755  0.00  0.00    +0.069 A 
ENDROOT
BRANCH   4   7
ATOM      7  C   UNL     1      -4.297  -1.664   6.357  0.00  0.00    +0.142 C 
ATOM      8  N   UNL     1      -5.587  -1.746   6.488  0.00  0.00    -0.188 NA
BRANCH   8   9
ATOM      9  N   UNL     1      -6.151  -1.959   7.753  0.00  0.00    -0.205 N 
ATOM     10  C   UNL     1      -7.472  -2.195   7.870  0.00  0.00    +0.254 C 
ATOM     11  O   UNL     1      -8.152  -2.344   6.876  0.00  0.00    -0.272 OA
ATOM     12  H   UNL     1      -5.590  -1.938   8.544  0.00  0.00    +0.177 HD
BRANCH  10  13
ATOM     13  C   UNL     1      -8.105  -2.274   9.235  0.00  0.00    +0.246 C 
BRANCH  13  14
ATOM     14  N   UNL     1      -9.540  -2.537   9.094  0.00  0.00    -0.205 N 
ATOM     15  C   UNL     1     -10.534  -1.627   8.982  0.00  0.00    +0.233 A 
ATOM     16  N   UNL     1     -11.661  -2.296   8.876  0.00  0.00    -0.093 NA
ATOM     17  N   UNL     1     -11.439  -3.560   8.914  0.00  0.00    -0.021 NA
ATOM     18  N   UNL     1     -10.177  -3.789   9.039  0.00  0.00    -0.042 NA
ATOM     19  N   UNL     1     -10.392  -0.250   8.980  0.00  0.00    -0.326 N 
ATOM     20  H   UNL     1      -9.511   0.147   9.065  0.00  0.00    +0.145 HD
ATOM     21  H   UNL     1     -11.174   0.318   8.894  0.00  0.00    +0.145 HD
ENDBRANCH  13  14
ENDBRANCH  10  13
ENDBRANCH   8   9
ENDBRANCH   4   7
BRANCH   1  22
ATOM     22  N   UNL     1      -2.048  -0.164   1.405  0.00  0.00    -0.330 N 
BRANCH  22  24
ATOM     23  C   UNL     1      -0.157   1.374   1.608  0.00  0.00    +0.024 C 
ATOM     24  C   UNL     1      -0.594  -0.053   1.267  0.00  0.00    +0.102 C 
ENDBRANCH  22  24
BRANCH  22  25
ATOM     25  C   UNL     1      -2.915   0.113   0.257  0.00  0.00    +0.102 C 
ATOM     26  C   UNL     1      -3.147  -1.177  -0.531  0.00  0.00    +0.024 C 
ENDBRANCH  22  25
ENDBRANCH   1  22
BRANCH   5  27
ATOM     27  O   UNL     1      -5.891  -1.120   4.090  0.00  0.00    -0.487 OA
BRANCH  27  28
ATOM     28  C   UNL     1      -6.666  -0.983   2.897  0.00  0.00    +0.266 C 
BRANCH  28  29
ATOM     29  C   UNL     1      -8.130  -0.941   3.252  0.00  0.00    +0.008 A 
ATOM     30  C   UNL     1      -8.523  -1.019   4.574  0.00  0.00    +0.010 A 
ATOM     31  C   UNL     1      -9.866  -0.980   4.900  0.00  0.00    +0.020 A 
ATOM     32  C   UNL     1     -10.817  -0.864   3.902  0.00  0.00    +0.042 A 
ATOM     33  C   UNL     1     -10.424  -0.787   2.578  0.00  0.00    +0.040 A 
ATOM     34  C   UNL     1      -9.080  -0.820   2.253  0.00  0.00    +0.049 A 
ATOM     35 CL   UNL     1      -8.585  -0.717   0.592  0.00  0.00    -0.083 Cl
ATOM     36 CL   UNL     1     -12.504  -0.817   4.312  0.00  0.00    -0.083 Cl
ENDBRANCH  28  29
ENDBRANCH  27  28
ENDBRANCH   5  27
TORSDOF 10
