REMARK  Name = ZINC39653122
REMARK  9 active torsions:
REMARK  status: ('A' for Active; 'I' for Inactive)
REMARK    1  A    between atoms: C_1  and  O_2
REMARK    2  A    between atoms: O_2  and  C_3
REMARK    3  A    between atoms: C_5  and  C_11
REMARK    4  A    between atoms: C_7  and  O_9
REMARK    5  A    between atoms: O_9  and  C_10
REMARK    6  A    between atoms: C_11  and  C_12
REMARK    7  A    between atoms: C_12  and  N_13
REMARK    8  A    between atoms: C_14  and  C_16
REMARK    9  A    between atoms: C_27  and  C_29
REMARK                            x       y       z     vdW  Elec       q    Type
REMARK                         _______ _______ _______ _____ _____    ______ ____
ROOT
ATOM      1  C   UNL     1       3.812  -8.235   1.036  0.00  0.00    +0.100 C 
ATOM      2  C   UNL     1       4.044  -8.711   2.488  0.00  0.00    +0.121 C 
ATOM      3  N   UNL     1       4.949  -9.877   2.360  0.00  0.00    -0.297 N 
ATOM      4  C   UNL     1       5.899  -9.490   1.289  0.00  0.00    +0.115 C 
ATOM      5  C   UNL     1       5.032  -8.748   0.253  0.00  0.00    -0.004 C 
ATOM      6  C   UNL     1       5.809  -7.577  -0.341  0.00  0.00    -0.010 C 
ATOM      7  C   UNL     1       6.984  -8.114  -1.164  0.00  0.00    -0.082 C 
ATOM      8  N   UNL     1       6.478  -8.984  -2.232  0.00  0.00    +0.379 N 
ATOM      9  C   UNL     1       5.813 -10.156  -1.650  0.00  0.00    -0.082 C 
ATOM     10  C   UNL     1       4.589  -9.706  -0.848  0.00  0.00    -0.010 C 
ATOM     11  C   UNL     1       4.916 -11.029   3.058  0.00  0.00    +0.260 C 
ATOM     12  O   UNL     1       5.734 -11.897   2.835  0.00  0.00    -0.271 OA
ATOM     13  H   UNL     1       5.818  -8.472  -2.798  0.00  0.00    -0.086 HD
ATOM     14  H   UNL     1       7.247  -9.288  -2.810  0.00  0.00    -0.086 HD
ENDROOT
BRANCH  11  15
ATOM     15  C   UNL     1       3.863 -11.239   4.115  0.00  0.00    +0.296 C 
ATOM     16  C   UNL     1       4.080 -10.246   5.265  0.00  0.00    +0.283 C 
ATOM     17  O   UNL     1       3.074 -10.482   6.256  0.00  0.00    -0.484 OA
ATOM     18  C   UNL     1       2.853 -11.779   6.607  0.00  0.00    +0.162 A 
ATOM     19  C   UNL     1       2.179 -12.060   7.786  0.00  0.00    +0.049 A 
ATOM     20  C   UNL     1       1.944 -13.371   8.154  0.00  0.00    +0.004 A 
ATOM     21  C   UNL     1       2.381 -14.406   7.349  0.00  0.00    +0.004 A 
ATOM     22  C   UNL     1       3.055 -14.133   6.174  0.00  0.00    +0.049 A 
ATOM     23  C   UNL     1       3.295 -12.819   5.799  0.00  0.00    +0.163 A 
ATOM     24  O   UNL     1       3.967 -12.567   4.642  0.00  0.00    -0.473 OA
ENDBRANCH  11  15
BRANCH   1  26
ATOM     25  N   UNL     1       3.021  -6.121   0.024  0.00  0.00    -0.315 N 
ATOM     26  C   UNL     1       3.748  -6.730   0.982  0.00  0.00    +0.218 C 
ATOM     27  O   UNL     1       4.351  -6.067   1.799  0.00  0.00    -0.275 OA
ATOM     28  H   UNL     1       2.538  -6.652  -0.629  0.00  0.00    +0.149 HD
BRANCH  25  29
ATOM     29  C   UNL     1       2.958  -4.659  -0.029  0.00  0.00    +0.109 C 
BRANCH  29  30
ATOM     30  C   UNL     1       2.073  -4.228  -1.200  0.00  0.00    +0.054 C 
BRANCH  30  33
ATOM     31  C   UNL     1       2.880  -0.635  -2.051  0.00  0.00    +0.124 A 
ATOM     32  C   UNL     1       2.937  -2.020  -1.999  0.00  0.00    +0.049 A 
ATOM     33  C   UNL     1       2.009  -2.724  -1.255  0.00  0.00    -0.039 A 
ATOM     34  C   UNL     1       1.021  -2.050  -0.562  0.00  0.00    +0.049 A 
ATOM     35  C   UNL     1       0.960  -0.664  -0.612  0.00  0.00    +0.124 A 
ATOM     36  C   UNL     1       1.893   0.044  -1.352  0.00  0.00    +0.091 A 
BRANCH  31  38
ATOM     37  C   UNL     1       3.677   1.481  -2.787  0.00  0.00    +0.277 C 
ATOM     38  O   UNL     1       3.792   0.056  -2.783  0.00  0.00    -0.495 OA
ENDBRANCH  31  38
BRANCH  35  39
ATOM     39  O   UNL     1      -0.012  -0.002   0.070  0.00  0.00    -0.495 OA
ATOM     40  C   UNL     1      -0.014   1.424  -0.025  0.00  0.00    +0.277 C 
ENDBRANCH  35  39
ENDBRANCH  30  33
ENDBRANCH  29  30
ENDBRANCH  25  29
ENDBRANCH   1  26
TORSDOF 7
