REMARK  Name = ZINC36569648
REMARK  9 active torsions:
REMARK  status: ('A' for Active; 'I' for Inactive)
REMARK    1  A    between atoms: C_1  and  C_2
REMARK    2  A    between atoms: C_2  and  C_3
REMARK    3  A    between atoms: C_2  and  C_4
REMARK    4  A    between atoms: C_4  and  C_5
REMARK    5  A    between atoms: C_5  and  C_7
REMARK    6  A    between atoms: C_5  and  N_11
REMARK    7  A    between atoms: C_7  and  O_9
REMARK    8  A    between atoms: O_9  and  C_10
REMARK    9  A    between atoms: C_23  and  C_25
REMARK                            x       y       z     vdW  Elec       q    Type
REMARK                         _______ _______ _______ _____ _____    ______ ____
ROOT
ATOM      1  N   UNL     1      -2.264   1.142  -4.013  0.00  0.00    -0.286 N 
ATOM      2  C   UNL     1      -1.677  -0.028  -3.694  0.00  0.00    +0.304 C 
ATOM      3  O   UNL     1      -1.618  -0.382  -2.532  0.00  0.00    -0.253 OA
ATOM      4  N   UNL     1      -1.155  -0.806  -4.663  0.00  0.00    -0.273 N 
ATOM      5  C   UNL     1      -0.615  -2.138  -4.350  0.00  0.00    +0.116 C 
ATOM      6  C   UNL     1       0.892  -2.149  -4.638  0.00  0.00    +0.074 C 
ATOM      7  C   UNL     1       1.136  -1.488  -5.970  0.00  0.00    +0.040 A 
ATOM      8  C   UNL     1       0.256  -0.684  -6.604  0.00  0.00    +0.062 A 
ATOM      9  N   UNL     1       0.813  -0.281  -7.748  0.00  0.00    -0.348 N 
ATOM     10  C   UNL     1       2.006  -0.806  -7.852  0.00  0.00    +0.171 A 
ATOM     11  N   UNL     1       2.243  -1.568  -6.760  0.00  0.00    -0.349 N 
ATOM     12  H   UNL     1       3.048  -2.075  -6.574  0.00  0.00    +0.166 HD
ATOM     13  C   UNL     1      -1.117  -0.346  -6.062  0.00  0.00    +0.159 C 
ATOM     14  H   UNL     1      -2.248   1.459  -4.930  0.00  0.00    +0.151 HD
ATOM     15  H   UNL     1       0.399   0.308  -8.399  0.00  0.00    +0.167 HD
ENDROOT
BRANCH  13  16
ATOM     16  C   UNL     1      -2.178  -1.054  -6.864  0.00  0.00    +0.017 A 
ATOM     17  C   UNL     1      -1.883  -1.539  -8.125  0.00  0.00    +0.009 A 
ATOM     18  C   UNL     1      -2.855  -2.189  -8.862  0.00  0.00    +0.003 A 
ATOM     19  C   UNL     1      -4.124  -2.356  -8.340  0.00  0.00    +0.041 A 
ATOM     20  C   UNL     1      -4.422  -1.873  -7.078  0.00  0.00    +0.159 A 
ATOM     21  C   UNL     1      -3.445  -1.225  -6.337  0.00  0.00    +0.164 A 
ATOM     22  F   UNL     1      -3.732  -0.757  -5.102  0.00  0.00    -0.202 F 
ATOM     23  F   UNL     1      -5.662  -2.035  -6.567  0.00  0.00    -0.202 F 
ENDBRANCH  13  16
BRANCH   1  24
ATOM     24  C   UNL     1      -2.927   1.936  -2.976  0.00  0.00    +0.183 C 
BRANCH  24  25
ATOM     25  C   UNL     1      -1.910   2.802  -2.279  0.00  0.00    +0.327 C 
ATOM     26  O   UNL     1      -0.750   2.761  -2.614  0.00  0.00    -0.249 OA
BRANCH  25  27
ATOM     27  O   UNL     1      -2.292   3.620  -1.285  0.00  0.00    -0.467 OA
ATOM     28  C   UNL     1      -1.275   4.412  -0.669  0.00  0.00    +0.280 C 
ENDBRANCH  25  27
ENDBRANCH  24  25
BRANCH  24  29
ATOM     29  C   UNL     1      -3.997   2.822  -3.617  0.00  0.00    +0.036 C 
BRANCH  29  31
ATOM     30  C   UNL     1      -5.813   1.187  -3.097  0.00  0.00    +0.007 C 
ATOM     31  C   UNL     1      -5.096   1.941  -4.217  0.00  0.00    -0.015 C 
ATOM     32  C   UNL     1      -6.100   2.819  -4.966  0.00  0.00    +0.007 C 
ENDBRANCH  29  31
ENDBRANCH  24  29
ENDBRANCH   1  24
TORSDOF 6
