REMARK  Name = ZINC06463386
REMARK  8 active torsions:
REMARK  status: ('A' for Active; 'I' for Inactive)
REMARK    1  A    between atoms: C_1  and  C_2
REMARK    2  A    between atoms: C_2  and  O_3
REMARK    3  A    between atoms: O_3  and  C_4
REMARK    4  A    between atoms: C_4  and  C_6
REMARK    5  A    between atoms: C_12  and  C_14
REMARK    6  A    between atoms: C_20  and  C_27
REMARK    7  A    between atoms: N_28  and  C_31
REMARK    8  A    between atoms: C_29  and  N_30
REMARK                            x       y       z     vdW  Elec       q    Type
REMARK                         _______ _______ _______ _____ _____    ______ ____
ROOT
ATOM      1  C   UNL     1      -5.466  -6.270   1.710  0.00  0.00    +0.075 A 
ATOM      2  C   UNL     1      -4.698  -6.731   0.638  0.00  0.00    +0.033 A 
ATOM      3  C   UNL     1      -4.640  -8.105   0.419  0.00  0.00    +0.083 A 
ATOM      4  C   UNL     1      -5.353  -8.987   1.276  0.00  0.00    +0.149 A 
ATOM      5  N   UNL     1      -5.285 -10.303   1.048  0.00  0.00    -0.211 NA
ATOM      6  C   UNL     1      -4.574 -10.812   0.048  0.00  0.00    +0.145 A 
ATOM      7  C   UNL     1      -4.558 -12.214  -0.121  0.00  0.00    -0.007 A 
ATOM      8  C   UNL     1      -3.837 -12.761  -1.137  0.00  0.00    +0.008 A 
ATOM      9  C   UNL     1      -3.119 -11.926  -2.007  0.00  0.00    +0.019 A 
ATOM     10  C   UNL     1      -3.143 -10.587  -1.834  0.00  0.00    +0.096 A 
ATOM     11  N   UNL     1      -3.862 -10.026  -0.818  0.00  0.00    -0.267 N 
ATOM     12  C   UNL     1      -3.861  -8.679  -0.679  0.00  0.00    +0.268 A 
ATOM     13  O   UNL     1      -3.232  -7.969  -1.442  0.00  0.00    -0.267 OA
ATOM     14  C   UNL     1      -5.333 -13.099   0.820  0.00  0.00    +0.047 C 
ATOM     15  N   UNL     1      -6.074  -8.500   2.287  0.00  0.00    -0.316 N 
ATOM     16  C   UNL     1      -6.144  -7.204   2.525  0.00  0.00    +0.110 A 
ATOM     17  C   UNL     1      -6.801  -9.426   3.158  0.00  0.00    +0.152 C 
ENDROOT
BRANCH   1  24
ATOM     18  C   UNL     1      -2.349  -2.791   3.532  0.00  0.00    +0.101 C 
ATOM     19  C   UNL     1      -3.775  -2.238   3.585  0.00  0.00    +0.033 C 
ATOM     20  C   UNL     1      -4.521  -2.637   2.308  0.00  0.00    +0.109 C 
ATOM     21  N   UNL     1      -4.445  -4.096   2.153  0.00  0.00    -0.297 N 
ATOM     22  C   UNL     1      -3.125  -4.741   2.179  0.00  0.00    +0.109 C 
ATOM     23  C   UNL     1      -2.395  -4.319   3.457  0.00  0.00    +0.033 C 
ATOM     24  C   UNL     1      -5.564  -4.828   1.989  0.00  0.00    +0.250 C 
ATOM     25  O   UNL     1      -6.656  -4.298   2.074  0.00  0.00    -0.270 OA
BRANCH  18  26
ATOM     26  C   UNL     1      -1.601  -2.371   4.771  0.00  0.00    +0.310 C 
ATOM     27  O   UNL     1      -1.151  -3.208   5.518  0.00  0.00    -0.251 OA
BRANCH  26  28
ATOM     28  O   UNL     1      -1.435  -1.068   5.046  0.00  0.00    -0.465 OA
BRANCH  28  30
ATOM     29  C   UNL     1      -0.628   0.778   6.381  0.00  0.00    +0.048 C 
ATOM     30  C   UNL     1      -0.716  -0.742   6.237  0.00  0.00    +0.229 C 
ENDBRANCH  28  30
ENDBRANCH  26  28
ENDBRANCH  18  26
ENDBRANCH   1  24
BRANCH  16  31
ATOM     31  N   UNL     1      -6.899  -6.751   3.586  0.00  0.00    -0.344 N 
ATOM     32  H   UNL     1      -7.021  -5.799   3.723  0.00  0.00    +0.144 HD
ATOM     33  H   UNL     1      -7.307  -7.385   4.196  0.00  0.00    +0.144 HD
ENDBRANCH  16  31
TORSDOF 5
