REMARK  Name = ZINC39711006
REMARK  11 active torsions:
REMARK  status: ('A' for Active; 'I' for Inactive)
REMARK    1  A    between atoms: C_1  and  C_2
REMARK    2  A    between atoms: C_7  and  N_8
REMARK    3  A    between atoms: N_11  and  C_14
REMARK    4  A    between atoms: C_14  and  C_16
REMARK    5  A    between atoms: C_14  and  C_30
REMARK    6  A    between atoms: C_21  and  C_29
REMARK    7  A    between atoms: C_23  and  C_28
REMARK    8  A    between atoms: N_35  and  C_36
REMARK    9  A    between atoms: C_36  and  C_37
REMARK   10  A    between atoms: C_36  and  C_38
REMARK   11  A    between atoms: C_36  and  C_39
REMARK                            x       y       z     vdW  Elec       q    Type
REMARK                         _______ _______ _______ _____ _____    ______ ____
ROOT
ATOM      1  C   UNL     1      -0.354   2.328   4.477  0.00  0.00    -0.011 C 
ENDROOT
BRANCH   1   2
ATOM      2  C   UNL     1       0.888   2.510   5.352  0.00  0.00    +0.088 C 
ATOM      3  C   UNL     1       0.884   1.413   6.399  0.00  0.00    -0.006 C 
ATOM      4  C   UNL     1       0.895   1.797   7.707  0.00  0.00    -0.007 A 
ATOM      5  C   UNL     1       0.892   0.803   8.781  0.00  0.00    +0.012 A 
ATOM      6  C   UNL     1       0.903   1.232  10.069  0.00  0.00    -0.050 A 
ATOM      7  C   UNL     1       0.918   2.591  10.383  0.00  0.00    +0.008 A 
ATOM      8  C   UNL     1       0.921   3.562   9.433  0.00  0.00    -0.028 A 
ATOM      9  C   UNL     1       0.910   3.225   8.067  0.00  0.00    +0.043 A 
ATOM     10  N   UNL     1       0.915   4.186   7.143  0.00  0.00    -0.284 N 
ATOM     11  C   UNL     1       0.903   3.939   5.845  0.00  0.00    +0.223 C 
ATOM     12  O   UNL     1       0.907   4.859   5.049  0.00  0.00    -0.275 OA
ATOM     13  C   UNL     1       0.936   5.012   9.845  0.00  0.00    +0.046 C 
ATOM     14  C   UNL     1       0.900   0.218  11.184  0.00  0.00    +0.044 C 
ATOM     15  H   UNL     1       0.925   5.110   7.438  0.00  0.00    +0.155 HD
ENDBRANCH   1   2
BRANCH   1  19
ATOM     16  N   UNL     1      -0.315  -1.093   2.069  0.00  0.00    -0.333 N 
ATOM     17  C   UNL     1      -1.623  -0.644   2.571  0.00  0.00    +0.086 C 
ATOM     18  C   UNL     1      -1.499   0.819   3.008  0.00  0.00    -0.059 C 
ATOM     19  N   UNL     1      -0.402   0.948   3.975  0.00  0.00    +0.387 N 
ATOM     20  C   UNL     1       0.875   0.620   3.329  0.00  0.00    -0.059 C 
ATOM     21  C   UNL     1       0.868  -0.859   2.910  0.00  0.00    +0.086 C 
ATOM     22  H   UNL     1      -0.559   0.318   4.747  0.00  0.00    -0.081 HD
BRANCH  16  29
ATOM     23  C   UNL     1       0.142   0.518  -0.230  0.00  0.00    +0.045 C 
ATOM     24  C   UNL     1       0.023  -0.982  -0.318  0.00  0.00    -0.029 A 
ATOM     25  C   UNL     1       0.141  -1.614  -1.541  0.00  0.00    +0.006 A 
ATOM     26  C   UNL     1       0.032  -2.990  -1.623  0.00  0.00    +0.020 A 
ATOM     27  C   UNL     1      -0.197  -3.738  -0.481  0.00  0.00    +0.043 A 
ATOM     28  C   UNL     1      -0.317  -3.111   0.745  0.00  0.00    +0.043 A 
ATOM     29  C   UNL     1      -0.201  -1.730   0.831  0.00  0.00    +0.034 A 
ATOM     30 CL   UNL     1      -0.334  -5.465  -0.589  0.00  0.00    -0.083 Cl
ENDBRANCH  16  29
ENDBRANCH   1  19
BRANCH   1  31
ATOM     31  C   UNL     1      -1.608   2.613   5.306  0.00  0.00    +0.183 C 
ATOM     32  N   UNL     1      -2.040   1.404   6.032  0.00  0.00    -0.229 N 
ATOM     33  N   UNL     1      -3.321   1.106   5.551  0.00  0.00    -0.064 NA
ATOM     34  N   UNL     1      -3.703   1.902   4.698  0.00  0.00    -0.061 NA
ATOM     35  N   UNL     1      -2.758   2.905   4.429  0.00  0.00    -0.211 N 
ATOM     36  H   UNL     1      -1.540   0.915   6.704  0.00  0.00    +0.172 HD
BRANCH  35  37
ATOM     37  C   UNL     1      -2.884   4.011   3.477  0.00  0.00    +0.047 C 
ATOM     38  C   UNL     1      -1.689   4.000   2.522  0.00  0.00    +0.033 C 
ATOM     39  C   UNL     1      -4.178   3.850   2.677  0.00  0.00    +0.033 C 
ATOM     40  C   UNL     1      -2.917   5.338   4.238  0.00  0.00    +0.033 C 
ENDBRANCH  35  37
ENDBRANCH   1  31
TORSDOF 5
