REMARK  Name = ZINC15087866
REMARK  6 active torsions:
REMARK  status: ('A' for Active; 'I' for Inactive)
REMARK    1  A    between atoms: C_1  and  C_2
REMARK    2  A    between atoms: C_3  and  N_15
REMARK    3  A    between atoms: N_6  and  C_9
REMARK    4  A    between atoms: N_7  and  C_8
REMARK    5  A    between atoms: C_19  and  C_20
REMARK    6  A    between atoms: C_23  and  C_26
REMARK                            x       y       z     vdW  Elec       q    Type
REMARK                         _______ _______ _______ _____ _____    ______ ____
ROOT
ATOM      1  N   UNL     1      -2.780  -1.743  -0.660  0.00  0.00    -0.208 N 
ATOM      2  C   UNL     1      -3.425  -2.506   0.206  0.00  0.00    +0.264 C 
ATOM      3  O   UNL     1      -2.869  -3.421   0.784  0.00  0.00    -0.269 OA
ATOM      4  C   UNL     1      -4.850  -2.198   0.439  0.00  0.00    +0.078 C 
ATOM      5  C   UNL     1      -5.739  -2.809   1.262  0.00  0.00    +0.028 C 
ATOM      6  S   UNL     1      -5.089  -0.803  -0.652  0.00  0.00    -0.049 S 
ATOM      7  C   UNL     1      -3.429  -0.706  -1.302  0.00  0.00    +0.165 C 
ATOM      8  N   UNL     1      -2.946   0.139  -2.171  0.00  0.00    -0.279 NA
ATOM      9  H   UNL     1      -3.517   0.826  -2.548  0.00  0.00    +0.189 HD
ENDROOT
BRANCH   1  12
ATOM     10  C   UNL     1      -0.511   0.209  -0.008  0.00  0.00    +0.067 C 
ATOM     11  C   UNL     1      -0.392  -1.148  -0.652  0.00  0.00    +0.060 A 
ATOM     12  C   UNL     1      -1.417  -1.985  -0.926  0.00  0.00    +0.130 A 
ATOM     13  C   UNL     1      -0.880  -3.152  -1.529  0.00  0.00    +0.294 A 
ATOM     14  O   UNL     1      -1.512  -4.121  -1.909  0.00  0.00    -0.264 OA
ATOM     15  N   UNL     1       0.457  -2.995  -1.606  0.00  0.00    -0.216 N 
ATOM     16  N   UNL     1       0.772  -1.742  -1.064  0.00  0.00    -0.282 N 
ATOM     17  C   UNL     1       2.115  -1.166  -0.955  0.00  0.00    +0.171 C 
BRANCH  15  18
ATOM     18  C   UNL     1       1.367  -3.916  -2.135  0.00  0.00    +0.067 A 
ATOM     19  C   UNL     1       2.507  -4.257  -1.420  0.00  0.00    +0.028 A 
ATOM     20  C   UNL     1       3.403  -5.168  -1.945  0.00  0.00    +0.002 A 
ATOM     21  C   UNL     1       3.166  -5.739  -3.182  0.00  0.00    +0.000 A 
ATOM     22  C   UNL     1       2.031  -5.400  -3.897  0.00  0.00    +0.002 A 
ATOM     23  C   UNL     1       1.128  -4.495  -3.374  0.00  0.00    +0.028 A 
ENDBRANCH  15  18
ENDBRANCH   1  12
BRANCH   5  24
ATOM     24  C   UNL     1      -7.164  -2.462   1.190  0.00  0.00    -0.024 A 
ATOM     25  C   UNL     1      -7.636  -1.646   0.154  0.00  0.00    +0.008 A 
ATOM     26  C   UNL     1      -8.962  -1.325   0.090  0.00  0.00    +0.009 A 
ATOM     27  C   UNL     1      -9.847  -1.809   1.055  0.00  0.00    -0.018 A 
ATOM     28  C   UNL     1      -9.379  -2.623   2.088  0.00  0.00    +0.009 A 
ATOM     29  C   UNL     1      -8.055  -2.952   2.154  0.00  0.00    +0.008 A 
BRANCH  27  30
ATOM     30  C   UNL     1     -11.285  -1.459   0.983  0.00  0.00    -0.018 A 
ATOM     31  C   UNL     1     -11.758  -0.651  -0.050  0.00  0.00    +0.008 A 
ATOM     32  C   UNL     1     -13.098  -0.328  -0.112  0.00  0.00    +0.001 A 
ATOM     33  C   UNL     1     -13.972  -0.804   0.849  0.00  0.00    +0.000 A 
ATOM     34  C   UNL     1     -13.509  -1.605   1.877  0.00  0.00    +0.001 A 
ATOM     35  C   UNL     1     -12.172  -1.941   1.945  0.00  0.00    +0.008 A 
ENDBRANCH  27  30
ENDBRANCH   5  24
TORSDOF 4
