REMARK  Name = ZINC40088652
REMARK  6 active torsions:
REMARK  status: ('A' for Active; 'I' for Inactive)
REMARK    1  A    between atoms: C_9  and  C_10
REMARK    2  A    between atoms: C_10  and  N_11
REMARK    3  A    between atoms: N_11  and  C_12
REMARK    4  A    between atoms: C_12  and  C_13
REMARK    5  A    between atoms: C_16  and  O_19
REMARK    6  A    between atoms: O_19  and  C_20
REMARK                            x       y       z     vdW  Elec       q    Type
REMARK                         _______ _______ _______ _____ _____    ______ ____
ROOT
ATOM      1  N   UNL     1       5.399  -0.435   1.330  0.00  0.00    +0.385 N 
ATOM      2  H   UNL     1       4.899   0.295   1.815  0.00  0.00    -0.085 HD
ATOM      3  H   UNL     1       5.253  -1.315   1.802  0.00  0.00    -0.085 HD
ENDROOT
BRANCH   1   4
ATOM      4  C   UNL     1       4.907  -0.533  -0.051  0.00  0.00    -0.024 C 
BRANCH   4  13
ATOM      5  C   UNL     1      -0.016   1.356   0.009  0.00  0.00    +0.005 A 
ATOM      6  C   UNL     1       1.194   2.068   0.002  0.00  0.00    +0.018 A 
ATOM      7  C   UNL     1       2.372   1.409  -0.013  0.00  0.00    +0.093 A 
ATOM      8  N   UNL     1       2.405   0.045  -0.022  0.00  0.00    -0.304 N 
ATOM      9  C   UNL     1       1.240  -0.677  -0.014  0.00  0.00    +0.139 A 
ATOM     10  C   UNL     1       0.002  -0.004   0.002  0.00  0.00    +0.047 A 
ATOM     11  N   UNL     1       1.555  -1.965  -0.024  0.00  0.00    -0.216 NA
ATOM     12  C   UNL     1       2.884  -2.091  -0.039  0.00  0.00    +0.149 A 
ATOM     13  C   UNL     1       3.435  -0.856  -0.037  0.00  0.00    +0.045 A 
ATOM     14 CL   UNL     1       3.760  -3.591  -0.056  0.00  0.00    -0.060 Cl
ENDBRANCH   4  13
ENDBRANCH   1   4
BRANCH   1  15
ATOM     15  C   UNL     1       6.834  -0.120   1.317  0.00  0.00    -0.046 C 
BRANCH  15  16
ATOM     16  C   UNL     1       7.339  -0.019   2.733  0.00  0.00    -0.064 A 
ATOM     17  C   UNL     1       7.308   1.195   3.392  0.00  0.00    +0.005 A 
ATOM     18  C   UNL     1       7.771   1.290   4.691  0.00  0.00    +0.046 A 
ATOM     19  C   UNL     1       8.267   0.165   5.332  0.00  0.00    +0.127 A 
ATOM     20  C   UNL     1       8.297  -1.053   4.669  0.00  0.00    +0.046 A 
ATOM     21  C   UNL     1       7.828  -1.144   3.373  0.00  0.00    +0.005 A 
BRANCH  19  22
ATOM     22  O   UNL     1       8.724   0.255   6.609  0.00  0.00    -0.434 OA
BRANCH  22  23
ATOM     23  C   UNL     1       9.220  -0.944   7.207  0.00  0.00    +0.541 C 
ATOM     24  F   UNL     1       8.204  -1.905   7.239  0.00  0.00    -0.166 F 
ATOM     25  F   UNL     1      10.297  -1.429   6.457  0.00  0.00    -0.166 F 
ENDBRANCH  22  23
ENDBRANCH  19  22
ENDBRANCH  15  16
ENDBRANCH   1  15
TORSDOF 6
