REMARK  Name = ZINC13639620
REMARK  6 active torsions:
REMARK  status: ('A' for Active; 'I' for Inactive)
REMARK    1  A    between atoms: C_1  and  C_2
REMARK    2  A    between atoms: C_2  and  O_3
REMARK    3  A    between atoms: O_3  and  C_4
REMARK    4  A    between atoms: C_17  and  C_20
REMARK    5  A    between atoms: C_23  and  O_27
REMARK    6  A    between atoms: C_25  and  O_26
REMARK                            x       y       z     vdW  Elec       q    Type
REMARK                         _______ _______ _______ _____ _____    ______ ____
ROOT
ATOM      1  C   UNL     1       0.985   2.137  -0.017  0.00  0.00    +0.121 A 
ATOM      2  C   UNL     1       2.226   1.518  -0.036  0.00  0.00    +0.047 A 
ATOM      3  C   UNL     1       2.301   0.139  -0.038  0.00  0.00    +0.027 A 
ATOM      4  C   UNL     1       1.139  -0.622  -0.022  0.00  0.00    +0.032 A 
ATOM      5  C   UNL     1      -0.102  -0.011  -0.006  0.00  0.00    -0.016 A 
ATOM      6  C   UNL     1      -0.172   1.377  -0.002  0.00  0.00    +0.051 A 
ATOM      7  C   UNL     1      -1.394  -0.782   0.003  0.00  0.00    +0.049 C 
ATOM      8  C   UNL     1      -2.174  -0.382  -1.242  0.00  0.00    -0.023 C 
ATOM      9  C   UNL     1      -1.976  -1.248  -2.203  0.00  0.00    -0.030 C 
ATOM     10  C   UNL     1      -1.042  -2.352  -1.740  0.00  0.00    +0.033 C 
ATOM     11  C   UNL     1      -1.176  -2.293  -0.200  0.00  0.00    +0.029 C 
ATOM     12  C   UNL     1       0.089  -2.786   0.477  0.00  0.00    +0.108 C 
ATOM     13  N   UNL     1       1.239  -2.020  -0.016  0.00  0.00    -0.336 N 
ATOM     14  H   UNL     1       2.042  -2.467  -0.328  0.00  0.00    +0.147 HD
ENDROOT
BRANCH  12  15
ATOM     15  C   UNL     1      -0.035  -2.601   1.968  0.00  0.00    +0.015 A 
ATOM     16  C   UNL     1       0.606  -1.546   2.588  0.00  0.00    +0.012 A 
ATOM     17  C   UNL     1       0.494  -1.374   3.955  0.00  0.00    +0.046 A 
ATOM     18  C   UNL     1      -0.263  -2.261   4.707  0.00  0.00    +0.120 A 
ATOM     19  C   UNL     1      -0.906  -3.321   4.087  0.00  0.00    +0.091 A 
ATOM     20  C   UNL     1      -0.797  -3.488   2.715  0.00  0.00    +0.125 A 
BRANCH  20  21
ATOM     21  O   UNL     1      -1.431  -4.523   2.103  0.00  0.00    -0.506 OA
ATOM     22  H   UNL     1      -0.903  -5.331   2.048  0.00  0.00    +0.292 HD
ENDBRANCH  20  21
BRANCH  18  23
ATOM     23  O   UNL     1      -0.372  -2.092   6.051  0.00  0.00    -0.507 OA
ATOM     24  H   UNL     1      -1.118  -1.538   6.318  0.00  0.00    +0.292 HD
ENDBRANCH  18  23
ENDBRANCH  12  15
BRANCH   1  25
ATOM     25  O   UNL     1       0.904   3.494  -0.014  0.00  0.00    -0.492 OA
BRANCH  25  27
ATOM     26  C   UNL     1       1.846   5.720  -0.023  0.00  0.00    +0.048 C 
ATOM     27  C   UNL     1       2.136   4.218  -0.030  0.00  0.00    +0.225 C 
ENDBRANCH  25  27
ENDBRANCH   1  25
TORSDOF 5
