REMARK  Name = ZINC45511841
REMARK  5 active torsions:
REMARK  status: ('A' for Active; 'I' for Inactive)
REMARK    1  A    between atoms: C_1  and  C_2
REMARK    2  A    between atoms: C_8  and  N_10
REMARK    3  A    between atoms: C_11  and  C_13
REMARK    4  A    between atoms: C_13  and  N_14
REMARK    5  A    between atoms: C_16  and  C_25
REMARK                            x       y       z     vdW  Elec       q    Type
REMARK                         _______ _______ _______ _____ _____    ______ ____
ROOT
ATOM      1  N   UNL     1       4.722   0.698   3.749  0.00  0.00    -0.314 N 
ATOM      2  C   UNL     1       4.550   1.899   4.585  0.00  0.00    +0.160 C 
ATOM      3  C   UNL     1       4.165   1.430   5.995  0.00  0.00    +0.276 C 
ATOM      4  O   UNL     1       5.193   0.570   6.491  0.00  0.00    -0.476 OA
ATOM      5  C   UNL     1       5.616  -0.441   5.686  0.00  0.00    +0.143 A 
ATOM      6  C   UNL     1       5.389  -0.400   4.314  0.00  0.00    +0.073 A 
ATOM      7  C   UNL     1       5.825  -1.438   3.507  0.00  0.00    +0.027 A 
ATOM      8  C   UNL     1       6.480  -2.519   4.069  0.00  0.00    +0.002 A 
ATOM      9  C   UNL     1       6.699  -2.564   5.433  0.00  0.00    +0.004 A 
ATOM     10  C   UNL     1       6.277  -1.527   6.239  0.00  0.00    +0.047 A 
ENDROOT
BRANCH   3  11
ATOM     11  C   UNL     1       4.021   2.625   6.903  0.00  0.00    +0.258 C 
ATOM     12  O   UNL     1       4.782   2.773   7.835  0.00  0.00    -0.271 OA
ATOM     13  N   UNL     1       3.047   3.529   6.677  0.00  0.00    -0.294 N 
ATOM     14  C   UNL     1       2.109   3.368   5.555  0.00  0.00    +0.136 C 
ATOM     15  C   UNL     1       0.681   3.516   6.094  0.00  0.00    +0.179 C 
ATOM     16  O   UNL     1       0.582   4.735   6.834  0.00  0.00    -0.377 OA
ATOM     17  C   UNL     1       1.425   4.790   7.988  0.00  0.00    +0.179 C 
ATOM     18  C   UNL     1       2.887   4.704   7.549  0.00  0.00    +0.136 C 
ENDBRANCH   3  11
BRANCH   1  19
ATOM     19  C   UNL     1       4.209   0.649   2.377  0.00  0.00    +0.201 C 
BRANCH  19  21
ATOM     20  N   UNL     1       2.116  -0.004   1.231  0.00  0.00    -0.311 N 
ATOM     21  C   UNL     1       2.795   0.128   2.388  0.00  0.00    +0.231 C 
ATOM     22  O   UNL     1       2.268  -0.174   3.438  0.00  0.00    -0.274 OA
ATOM     23  H   UNL     1       2.538   0.237   0.392  0.00  0.00    +0.149 HD
BRANCH  20  30
ATOM     24  C   UNL     1      -0.019   1.526   0.010  0.00  0.00    +0.009 C 
ATOM     25  C   UNL     1       0.002  -0.004   0.002  0.00  0.00    +0.006 C 
ATOM     26  C   UNL     1      -1.433  -0.534   0.013  0.00  0.00    +0.005 C 
ATOM     27  C   UNL     1      -1.413  -2.063   0.004  0.00  0.00    +0.000 C 
ATOM     28  C   UNL     1      -0.673  -2.570   1.244  0.00  0.00    +0.002 C 
ATOM     29  C   UNL     1       0.763  -2.041   1.233  0.00  0.00    +0.022 C 
ATOM     30  C   UNL     1       0.742  -0.511   1.242  0.00  0.00    +0.076 C 
ENDBRANCH  20  30
ENDBRANCH  19  21
ENDBRANCH   1  19
TORSDOF 4
