REMARK  Name = ZINC19525997
REMARK  10 active torsions:
REMARK  status: ('A' for Active; 'I' for Inactive)
REMARK    1  A    between atoms: C_1  and  C_2
REMARK    2  A    between atoms: C_2  and  C_3
REMARK    3  A    between atoms: C_3  and  N_4
REMARK    4  A    between atoms: C_8  and  S_9
REMARK    5  A    between atoms: S_9  and  C_10
REMARK    6  A    between atoms: C_10  and  C_11
REMARK    7  A    between atoms: N_16  and  C_19
REMARK    8  A    between atoms: C_19  and  C_20
REMARK    9  A    between atoms: N_21  and  C_28
REMARK   10  A    between atoms: N_24  and  C_27
REMARK                            x       y       z     vdW  Elec       q    Type
REMARK                         _______ _______ _______ _____ _____    ______ ____
ROOT
ATOM      1  N   UNL     1      -1.413  -1.998   0.005  0.00  0.00    -0.313 N 
ATOM      2  C   UNL     1      -1.407  -2.821  -1.114  0.00  0.00    +0.152 A 
ATOM      3  C   UNL     1      -1.387  -4.128  -0.639  0.00  0.00    +0.169 A 
ATOM      4  N   UNL     1      -1.381  -4.073   0.693  0.00  0.00    -0.204 NA
ATOM      5  C   UNL     1      -1.391  -2.816   1.092  0.00  0.00    +0.172 A 
ATOM      6  N   UNL     1      -1.377  -5.170  -1.553  0.00  0.00    -0.280 N 
ATOM      7  C   UNL     1      -1.386  -4.909  -2.873  0.00  0.00    +0.333 A 
ATOM      8  O   UNL     1      -1.376  -5.835  -3.661  0.00  0.00    -0.246 OA
ATOM      9  N   UNL     1      -1.406  -3.650  -3.342  0.00  0.00    -0.262 N 
ATOM     10  C   UNL     1      -1.417  -2.595  -2.501  0.00  0.00    +0.282 A 
ATOM     11  O   UNL     1      -1.434  -1.458  -2.940  0.00  0.00    -0.265 OA
ATOM     12  C   UNL     1      -1.415  -3.419  -4.789  0.00  0.00    +0.157 C 
ATOM     13  C   UNL     1      -1.355  -6.557  -1.081  0.00  0.00    +0.155 C 
ENDROOT
BRANCH   1  14
ATOM     14  C   UNL     1      -1.433  -0.534   0.013  0.00  0.00    +0.124 C 
BRANCH  14  16
ATOM     15  C   UNL     1      -0.019   1.526   0.010  0.00  0.00    +0.005 C 
ATOM     16  C   UNL     1       0.002  -0.004   0.002  0.00  0.00    +0.018 C 
ENDBRANCH  14  16
ENDBRANCH   1  14
BRANCH   5  17
ATOM     17  S   UNL     1      -1.382  -2.280   2.770  0.00  0.00    -0.078 S 
BRANCH  17  18
ATOM     18  C   UNL     1      -1.352  -3.822   3.724  0.00  0.00    +0.173 C 
BRANCH  18  19
ATOM     19  C   UNL     1      -1.341  -3.502   5.197  0.00  0.00    +0.226 C 
ATOM     20  O   UNL     1      -1.354  -2.347   5.566  0.00  0.00    -0.275 OA
ATOM     21  N   UNL     1      -1.319  -4.500   6.103  0.00  0.00    -0.298 N 
ATOM     22  C   UNL     1      -1.298  -5.907   5.676  0.00  0.00    +0.123 C 
ATOM     23  C   UNL     1      -0.149  -6.618   6.399  0.00  0.00    +0.103 C 
ATOM     24  N   UNL     1      -0.283  -6.410   7.847  0.00  0.00    -0.300 NA
ATOM     25  C   UNL     1      -0.165  -4.987   8.194  0.00  0.00    +0.103 C 
ATOM     26  C   UNL     1      -1.309  -4.210   7.545  0.00  0.00    +0.123 C 
BRANCH  24  27
ATOM     27  C   UNL     1       0.697  -7.215   8.588  0.00  0.00    +0.081 C 
ATOM     28  C   UNL     1       0.371  -7.169  10.082  0.00  0.00    +0.020 C 
ENDBRANCH  24  27
ENDBRANCH  18  19
ENDBRANCH  17  18
ENDBRANCH   5  17
TORSDOF 6
