REMARK  Name = ZINC09338048
REMARK  11 active torsions:
REMARK  status: ('A' for Active; 'I' for Inactive)
REMARK    1  A    between atoms: C_1  and  C_2
REMARK    2  A    between atoms: C_2  and  N_3
REMARK    3  A    between atoms: N_10  and  C_21
REMARK    4  A    between atoms: N_13  and  C_14
REMARK    5  A    between atoms: C_14  and  C_15
REMARK    6  A    between atoms: C_21  and  C_22
REMARK    7  A    between atoms: N_24  and  C_25
REMARK    8  A    between atoms: C_25  and  C_26
REMARK    9  A    between atoms: C_26  and  C_27
REMARK   10  A    between atoms: C_26  and  C_28
REMARK   11  A    between atoms: C_26  and  N_66
REMARK                            x       y       z     vdW  Elec       q    Type
REMARK                         _______ _______ _______ _____ _____    ______ ____
ROOT
ATOM      1  N   UNL     1      -4.285  -0.057   3.925  0.00  0.00    -0.325 N 
ATOM      2  C   UNL     1      -5.348  -0.812   3.587  0.00  0.00    +0.202 A 
ATOM      3  N   UNL     1      -5.486  -0.823   2.286  0.00  0.00    -0.218 NA
ATOM      4  C   UNL     1      -4.528  -0.083   1.723  0.00  0.00    +0.168 A 
ATOM      5  C   UNL     1      -3.741   0.422   2.751  0.00  0.00    +0.151 A 
ATOM      6  C   UNL     1      -2.642   1.249   2.432  0.00  0.00    +0.283 A 
ATOM      7  O   UNL     1      -1.937   1.704   3.315  0.00  0.00    -0.265 OA
ATOM      8  N   UNL     1      -2.381   1.529   1.138  0.00  0.00    -0.250 N 
ATOM      9  C   UNL     1      -3.154   1.038   0.154  0.00  0.00    +0.334 A 
ATOM     10  O   UNL     1      -2.892   1.315  -1.000  0.00  0.00    -0.246 OA
ATOM     11  N   UNL     1      -4.208   0.241   0.415  0.00  0.00    -0.272 N 
ENDROOT
BRANCH   1  13
ATOM     12  C   UNL     1      -4.383   1.525   5.787  0.00  0.00    +0.027 C 
ATOM     13  C   UNL     1      -3.798   0.205   5.282  0.00  0.00    +0.120 C 
ENDBRANCH   1  13
BRANCH  11  14
ATOM     14  C   UNL     1      -5.021  -0.278  -0.687  0.00  0.00    +0.163 C 
BRANCH  14  15
ATOM     15  C   UNL     1      -6.139   0.688  -0.986  0.00  0.00    -0.028 A 
ATOM     16  C   UNL     1      -7.355   0.559  -0.341  0.00  0.00    +0.005 A 
ATOM     17  C   UNL     1      -8.378   1.448  -0.612  0.00  0.00    +0.000 A 
ATOM     18  C   UNL     1      -8.189   2.459  -1.535  0.00  0.00    +0.000 A 
ATOM     19  C   UNL     1      -6.975   2.585  -2.183  0.00  0.00    +0.000 A 
ATOM     20  C   UNL     1      -5.950   1.699  -1.909  0.00  0.00    +0.005 A 
ENDBRANCH  14  15
ENDBRANCH  11  14
BRANCH   8  21
ATOM     21  C   UNL     1      -1.242   2.387   0.801  0.00  0.00    +0.225 C 
BRANCH  21  22
ATOM     22  C   UNL     1      -0.013   1.537   0.606  0.00  0.00    +0.233 C 
ATOM     23  O   UNL     1      -0.082   0.333   0.737  0.00  0.00    -0.274 OA
ATOM     24  N   UNL     1       1.161   2.114   0.282  0.00  0.00    -0.315 N 
ATOM     25  H   UNL     1       1.216   3.076   0.178  0.00  0.00    +0.149 HD
BRANCH  24  26
ATOM     26  C   UNL     1       2.354   1.287   0.087  0.00  0.00    +0.092 C 
BRANCH  26  27
ATOM     27  C   UNL     1       3.567   2.189  -0.146  0.00  0.00    -0.055 C 
ATOM     28  C   UNL     1       3.850   3.000   1.120  0.00  0.00    -0.008 C 
ATOM     29  C   UNL     1       4.786   1.328  -0.483  0.00  0.00    -0.008 C 
BRANCH  27  35
ATOM     30  C   UNL     1       2.960   2.358  -2.485  0.00  0.00    -0.049 C 
ATOM     31  C   UNL     1       2.621   3.347  -3.603  0.00  0.00    +0.141 C 
ATOM     32  O   UNL     1       3.723   4.240  -3.793  0.00  0.00    -0.383 OA
ATOM     33  C   UNL     1       4.071   4.983  -2.622  0.00  0.00    +0.141 C 
ATOM     34  C   UNL     1       4.424   4.010  -1.494  0.00  0.00    -0.049 C 
ATOM     35  N   UNL     1       3.269   3.119  -1.256  0.00  0.00    +0.387 N 
ATOM     36  H   UNL     1       2.454   3.690  -1.003  0.00  0.00    -0.081 HD
ENDBRANCH  27  35
ENDBRANCH  26  27
ENDBRANCH  24  26
ENDBRANCH  21  22
ENDBRANCH   8  21
TORSDOF 8
