REMARK  Name = ZINC39314996
REMARK  8 active torsions:
REMARK  status: ('A' for Active; 'I' for Inactive)
REMARK    1  A    between atoms: C_1  and  C_2
REMARK    2  A    between atoms: C_2  and  C_3
REMARK    3  A    between atoms: C_2  and  C_4
REMARK    4  A    between atoms: C_2  and  C_5
REMARK    5  A    between atoms: C_8  and  C_18
REMARK    6  A    between atoms: N_10  and  C_12
REMARK    7  A    between atoms: N_20  and  N_21
REMARK    8  A    between atoms: C_22  and  C_23
REMARK                            x       y       z     vdW  Elec       q    Type
REMARK                         _______ _______ _______ _____ _____    ______ ____
ROOT
ATOM      1  C   UNL     1       1.110  -0.142  -1.478  0.00  0.00    +0.081 C 
ATOM      2  C   UNL     1       0.396   0.359  -2.763  0.00  0.00    +0.054 C 
ATOM      3  C   UNL     1       1.538   0.251  -3.802  0.00  0.00    +0.180 C 
ATOM      4  N   UNL     1       2.781   0.218  -3.015  0.00  0.00    -0.255 N 
ATOM      5  N   UNL     1       2.493   0.362  -1.681  0.00  0.00    -0.236 NA
ATOM      6  H   UNL     1       2.571   1.327  -1.397  0.00  0.00    +0.145 HD
ENDROOT
BRANCH   4   7
ATOM      7  C   UNL     1       4.064   0.063  -3.546  0.00  0.00    +0.045 A 
ATOM      8  C   UNL     1       4.238  -0.070  -4.917  0.00  0.00    +0.024 A 
ATOM      9  C   UNL     1       5.507  -0.224  -5.439  0.00  0.00    +0.002 A 
ATOM     10  C   UNL     1       6.604  -0.245  -4.598  0.00  0.00    +0.000 A 
ATOM     11  C   UNL     1       6.435  -0.113  -3.232  0.00  0.00    +0.002 A 
ATOM     12  C   UNL     1       5.168   0.046  -2.704  0.00  0.00    +0.024 A 
ENDBRANCH   4   7
BRANCH   1  14
ATOM     13  C   UNL     1       0.533   1.999  -0.327  0.00  0.00    +0.012 C 
ATOM     14  C   UNL     1       0.481   0.473  -0.226  0.00  0.00    -0.021 C 
ATOM     15  C   UNL     1       1.257   0.017   1.011  0.00  0.00    +0.012 C 
ATOM     16  C   UNL     1      -0.975   0.019  -0.111  0.00  0.00    +0.012 C 
ENDBRANCH   1  14
BRANCH   3  17
ATOM     17  C   UNL     1       1.394  -1.015  -4.606  0.00  0.00    +0.254 C 
ATOM     18  O   UNL     1       2.066  -1.986  -4.333  0.00  0.00    -0.272 OA
ATOM     19  N   UNL     1       0.517  -1.067  -5.628  0.00  0.00    -0.205 N 
ATOM     20  H   UNL     1      -0.021  -0.290  -5.846  0.00  0.00    +0.177 HD
BRANCH  19  21
ATOM     21  N   UNL     1       0.383  -2.244  -6.376  0.00  0.00    -0.188 NA
ATOM     22  C   UNL     1      -0.544  -2.333  -7.296  0.00  0.00    +0.136 C 
BRANCH  22  23
ATOM     23  C   UNL     1      -1.364  -1.230  -7.574  0.00  0.00    +0.000 C 
ATOM     24  C   UNL     1      -2.397  -1.163  -8.506  0.00  0.00    +0.004 A 
ATOM     25  C   UNL     1      -2.927  -2.106  -9.414  0.00  0.00    +0.010 A 
ATOM     26  C   UNL     1      -3.960  -1.756 -10.221  0.00  0.00    +0.001 A 
ATOM     27  C   UNL     1      -4.521  -0.476 -10.181  0.00  0.00    +0.002 A 
ATOM     28  C   UNL     1      -4.064   0.478  -9.336  0.00  0.00    +0.026 A 
ATOM     29  C   UNL     1      -2.985   0.188  -8.459  0.00  0.00    +0.043 A 
ATOM     30  N   UNL     1      -2.369   0.927  -7.561  0.00  0.00    -0.380 N 
ATOM     31  C   UNL     1      -1.315   0.133  -6.921  0.00  0.00    +0.150 C 
ATOM     32  H   UNL     1      -2.580   1.851  -7.353  0.00  0.00    +0.160 HD
ENDBRANCH  22  23
ENDBRANCH  19  21
ENDBRANCH   3  17
TORSDOF 5
