REMARK  Name = ZINC09793654
REMARK  6 active torsions:
REMARK  status: ('A' for Active; 'I' for Inactive)
REMARK    1  A    between atoms: C_1  and  C_2
REMARK    2  A    between atoms: C_9  and  C_11
REMARK    3  A    between atoms: N_13  and  N_14
REMARK    4  A    between atoms: N_17  and  C_18
REMARK    5  A    between atoms: C_18  and  C_20
REMARK    6  A    between atoms: C_18  and  C_21
REMARK                            x       y       z     vdW  Elec       q    Type
REMARK                         _______ _______ _______ _____ _____    ______ ____
ROOT
ATOM      1  N   UNL     1       2.795  -7.859   2.861  0.00  0.00    -0.218 N 
ATOM      2  C   UNL     1       2.187  -9.062   2.844  0.00  0.00    +0.316 C 
ATOM      3  O   UNL     1       2.686 -10.003   3.431  0.00  0.00    -0.251 OA
ATOM      4  N   UNL     1       1.027  -9.221   2.178  0.00  0.00    -0.292 N 
ATOM      5  H   UNL     1       3.630  -7.744   3.341  0.00  0.00    +0.174 HD
ATOM      6  H   UNL     1       0.629  -8.470   1.710  0.00  0.00    +0.151 HD
ENDROOT
BRANCH   1   9
ATOM      7  C   UNL     1       2.829  -5.571   2.202  0.00  0.00    +0.267 C 
ATOM      8  O   UNL     1       3.877  -5.428   2.804  0.00  0.00    -0.268 OA
ATOM      9  N   UNL     1       2.221  -6.774   2.186  0.00  0.00    -0.229 N 
ATOM     10  H   UNL     1       1.386  -6.889   1.706  0.00  0.00    +0.173 HD
BRANCH   7  18
ATOM     11  C   UNL     1       1.740   1.265  -0.857  0.00  0.00    +0.008 C 
ATOM     12  C   UNL     1       1.509  -0.244  -0.751  0.00  0.00    -0.009 C 
ATOM     13  C   UNL     1       0.013  -0.518  -0.570  0.00  0.00    +0.009 C 
ATOM     14  C   UNL     1      -0.237  -2.023  -0.736  0.00  0.00    +0.043 C 
ATOM     15  C   UNL     1       0.764  -2.766   0.099  0.00  0.00    -0.006 A 
ATOM     16  C   UNL     1       1.905  -2.258   0.649  0.00  0.00    -0.036 A 
ATOM     17  C   UNL     1       2.683  -3.135   1.389  0.00  0.00    +0.024 A 
ATOM     18  C   UNL     1       2.228  -4.436   1.495  0.00  0.00    +0.076 A 
ATOM     19  S   UNL     1       0.719  -4.373   0.547  0.00  0.00    -0.088 S 
ATOM     20  C   UNL     1       2.284  -0.793   0.447  0.00  0.00    +0.039 C 
ENDBRANCH   7  18
ENDBRANCH   1   9
BRANCH   4  21
ATOM     21  C   UNL     1       0.366 -10.528   2.159  0.00  0.00    +0.103 C 
ATOM     22  C   UNL     1      -0.545 -10.656   3.381  0.00  0.00    +0.033 C 
BRANCH  21  23
ATOM     23  C   UNL     1      -0.457 -10.658   0.903  0.00  0.00    -0.013 A 
ATOM     24  C   UNL     1      -0.960  -9.527   0.287  0.00  0.00    +0.006 A 
ATOM     25  C   UNL     1      -1.714  -9.646  -0.865  0.00  0.00    +0.000 A 
ATOM     26  C   UNL     1      -1.966 -10.895  -1.402  0.00  0.00    +0.001 A 
ATOM     27  C   UNL     1      -1.463 -12.026  -0.786  0.00  0.00    +0.015 A 
ATOM     28  C   UNL     1      -0.703 -11.907   0.364  0.00  0.00    +0.023 A 
ATOM     29 BR   UNL     1      -0.009 -13.453   1.203  0.00  0.00    -0.050 Br
ENDBRANCH  21  23
ENDBRANCH   4  21
TORSDOF 4
