REMARK  Name = ZINC59876494
REMARK  9 active torsions:
REMARK  status: ('A' for Active; 'I' for Inactive)
REMARK    1  A    between atoms: C_3  and  C_8
REMARK    2  A    between atoms: C_8  and  C_10
REMARK    3  A    between atoms: C_8  and  N_30
REMARK    4  A    between atoms: C_10  and  N_11
REMARK    5  A    between atoms: C_12  and  C_14
REMARK    6  A    between atoms: C_14  and  C_15
REMARK    7  A    between atoms: C_15  and  C_16
REMARK    8  A    between atoms: C_16  and  C_17
REMARK    9  A    between atoms: C_17  and  C_18
REMARK                            x       y       z     vdW  Elec       q    Type
REMARK                         _______ _______ _______ _____ _____    ______ ____
ROOT
ATOM      1  N   UNL     1       5.595   2.900  -1.367  0.00  0.00    -0.317 N 
ATOM      2  C   UNL     1       6.309   3.090  -2.494  0.00  0.00    +0.213 C 
ATOM      3  O   UNL     1       5.912   2.636  -3.547  0.00  0.00    -0.276 OA
ATOM      4  H   UNL     1       5.912   3.264  -0.525  0.00  0.00    +0.149 HD
ENDROOT
BRANCH   1   5
ATOM      5  C   UNL     1       4.341   2.145  -1.412  0.00  0.00    +0.093 C 
BRANCH   5   6
ATOM      6  C   UNL     1       3.668   2.191  -0.039  0.00  0.00    -0.020 C 
BRANCH   6   9
ATOM      7  C   UNL     1       3.668   5.684   1.393  0.00  0.00    +0.002 A 
ATOM      8  C   UNL     1       4.042   4.384   1.106  0.00  0.00    +0.002 A 
ATOM      9  C   UNL     1       3.259   3.607   0.274  0.00  0.00    -0.058 A 
ATOM     10  C   UNL     1       2.102   4.129  -0.273  0.00  0.00    +0.022 A 
ATOM     11  C   UNL     1       1.727   5.429   0.014  0.00  0.00    +0.041 A 
ATOM     12  C   UNL     1       2.511   6.207   0.848  0.00  0.00    +0.020 A 
ATOM     13 CL   UNL     1       0.273   6.085  -0.672  0.00  0.00    -0.084 Cl
ENDBRANCH   6   9
BRANCH   6  14
ATOM     14  N   UNL     1       2.479   1.328  -0.047  0.00  0.00    +0.385 N 
ATOM     15  C   UNL     1       2.873  -0.085  -0.277  0.00  0.00    -0.078 C 
ATOM     16  C   UNL     1       1.673  -0.884   0.290  0.00  0.00    -0.020 C 
ATOM     17  C   UNL     1       1.264  -0.060   1.532  0.00  0.00    -0.020 C 
ATOM     18  C   UNL     1       1.822   1.353   1.278  0.00  0.00    -0.078 C 
ATOM     19  H   UNL     1       1.834   1.631  -0.761  0.00  0.00    -0.081 HD
ENDBRANCH   6  14
ENDBRANCH   5   6
ENDBRANCH   1   5
BRANCH   2  20
ATOM     20  C   UNL     1       7.599   3.867  -2.448  0.00  0.00    +0.096 C 
BRANCH  20  21
ATOM     21  C   UNL     1       8.204   3.935  -3.851  0.00  0.00    +0.009 C 
BRANCH  21  22
ATOM     22  C   UNL     1       9.515   4.724  -3.804  0.00  0.00    +0.002 C 
BRANCH  22  23
ATOM     23  C   UNL     1      10.120   4.792  -5.207  0.00  0.00    +0.016 C 
BRANCH  23  24
ATOM     24  C   UNL     1      11.430   5.581  -5.160  0.00  0.00    +0.069 C 
ATOM     25  C   UNL     1      12.095   5.635  -6.552  0.00  0.00    +0.108 C 
ATOM     26  C   UNL     1      12.716   6.995  -6.884  0.00  0.00    +0.105 C 
ATOM     27  C   UNL     1      12.546   8.045  -5.765  0.00  0.00    +0.093 C 
ATOM     28  S   UNL     1      11.115   7.370  -4.835  0.00  0.00    -0.154 S 
ATOM     29  N   UNL     1      11.975   7.447  -8.072  0.00  0.00    -0.294 N 
ATOM     30  C   UNL     1      11.065   6.518  -8.398  0.00  0.00    +0.300 C 
ATOM     31  O   UNL     1      10.309   6.632  -9.344  0.00  0.00    -0.253 OA
ATOM     32  N   UNL     1      11.062   5.462  -7.586  0.00  0.00    -0.294 N 
ATOM     33  H   UNL     1      12.120   8.282  -8.544  0.00  0.00    +0.151 HD
ATOM     34  H   UNL     1      10.470   4.698  -7.668  0.00  0.00    +0.151 HD
ENDBRANCH  23  24
ENDBRANCH  22  23
ENDBRANCH  21  22
ENDBRANCH  20  21
ENDBRANCH   2  20
TORSDOF 9
