REMARK  Name = ZINC60243411
REMARK  8 active torsions:
REMARK  status: ('A' for Active; 'I' for Inactive)
REMARK    1  A    between atoms: C_1  and  C_2
REMARK    2  A    between atoms: C_2  and  C_4
REMARK    3  A    between atoms: C_2  and  N_16
REMARK    4  A    between atoms: C_6  and  C_9
REMARK    5  A    between atoms: C_17  and  C_19
REMARK    6  A    between atoms: C_19  and  C_21
REMARK    7  A    between atoms: C_19  and  O_22
REMARK    8  A    between atoms: O_22  and  C_23
REMARK                            x       y       z     vdW  Elec       q    Type
REMARK                         _______ _______ _______ _____ _____    ______ ____
ROOT
ATOM      1  C   UNL     1      -0.043   1.002  -0.447  0.00  0.00    +0.038 C 
ATOM      2  C   UNL     1       0.011  -0.504  -0.182  0.00  0.00    +0.159 C 
ENDROOT
BRANCH   2   3
ATOM      3  C   UNL     1      -1.392  -1.048  -0.091  0.00  0.00    +0.248 A 
ATOM      4  N   UNL     1      -1.995  -1.754  -1.005  0.00  0.00    -0.190 NA
ATOM      5  C   UNL     1      -3.236  -2.073  -0.596  0.00  0.00    +0.202 A 
ATOM      6  N   UNL     1      -3.429  -1.562   0.595  0.00  0.00    -0.056 NA
ATOM      7  O   UNL     1      -2.227  -0.891   0.944  0.00  0.00    -0.336 OA
BRANCH   5   8
ATOM      8  C   UNL     1      -4.223  -2.869  -1.366  0.00  0.00    +0.023 A 
ATOM      9  C   UNL     1      -3.892  -3.363  -2.626  0.00  0.00    +0.014 A 
ATOM     10  C   UNL     1      -4.813  -4.103  -3.339  0.00  0.00    +0.039 A 
ATOM     11  C   UNL     1      -6.065  -4.356  -2.802  0.00  0.00    +0.123 A 
ATOM     12  C   UNL     1      -6.399  -3.867  -1.550  0.00  0.00    +0.039 A 
ATOM     13  C   UNL     1      -5.482  -3.131  -0.828  0.00  0.00    +0.014 A 
ATOM     14  F   UNL     1      -6.964  -5.082  -3.503  0.00  0.00    -0.205 F 
ENDBRANCH   5   8
ENDBRANCH   2   3
BRANCH   2  15
ATOM     15  N   UNL     1       0.714  -0.754   1.079  0.00  0.00    -0.301 N 
ATOM     16  C   UNL     1       2.059  -0.834   1.096  0.00  0.00    +0.254 C 
ATOM     17  O   UNL     1       2.687  -0.700   0.067  0.00  0.00    -0.272 OA
ATOM     18  H   UNL     1       0.211  -0.861   1.901  0.00  0.00    +0.150 HD
BRANCH  16  19
ATOM     19  C   UNL     1       2.782  -1.091   2.393  0.00  0.00    +0.255 C 
ATOM     20  C   UNL     1       2.419  -2.484   2.912  0.00  0.00    +0.062 C 
BRANCH  19  21
ATOM     21  O   UNL     1       4.192  -1.017   2.175  0.00  0.00    -0.480 OA
BRANCH  21  22
ATOM     22  C   UNL     1       4.967  -0.707   3.247  0.00  0.00    +0.122 A 
ATOM     23  C   UNL     1       6.330  -0.503   3.084  0.00  0.00    +0.047 A 
ATOM     24  C   UNL     1       7.115  -0.187   4.176  0.00  0.00    +0.019 A 
ATOM     25  C   UNL     1       6.544  -0.075   5.431  0.00  0.00    +0.018 A 
ATOM     26  C   UNL     1       5.186  -0.278   5.596  0.00  0.00    +0.019 A 
ATOM     27  C   UNL     1       4.396  -0.588   4.506  0.00  0.00    +0.047 A 
ATOM     28 BR   UNL     1       7.622   0.357   6.923  0.00  0.00    -0.050 Br
ENDBRANCH  21  22
ENDBRANCH  19  21
ENDBRANCH  16  19
ENDBRANCH   2  15
TORSDOF 6
