REMARK  Name = ZINC63812303
REMARK  6 active torsions:
REMARK  status: ('A' for Active; 'I' for Inactive)
REMARK    1  A    between atoms: C_7  and  C_10
REMARK    2  A    between atoms: C_10  and  C_11
REMARK    3  A    between atoms: C_11  and  C_12
REMARK    4  A    between atoms: C_12  and  O_14
REMARK    5  A    between atoms: O_14  and  C_15
REMARK    6  A    between atoms: C_15  and  C_16
REMARK                            x       y       z     vdW  Elec       q    Type
REMARK                         _______ _______ _______ _____ _____    ______ ____
ROOT
ATOM      1  C   UNL     1      -0.484  -4.830  -1.460  0.00  0.00    +0.308 C 
ATOM      2  O   UNL     1      -0.923  -5.252  -0.416  0.00  0.00    -0.251 OA
ENDROOT
BRANCH   1   3
ATOM      3  C   UNL     1       0.457  -3.653  -1.462  0.00  0.00    +0.125 C 
BRANCH   3   4
ATOM      4  C   UNL     1       0.691  -3.186  -0.024  0.00  0.00    +0.044 C 
BRANCH   4  11
ATOM      5  C   UNL     1      -0.016   1.348   0.009  0.00  0.00    +0.001 A 
ATOM      6  C   UNL     1       1.166   2.101   0.002  0.00  0.00    +0.002 A 
ATOM      7  C   UNL     1       2.391   1.535  -0.013  0.00  0.00    +0.026 A 
ATOM      8  C   UNL     1       2.529   0.120  -0.022  0.00  0.00    +0.043 A 
ATOM      9  N   UNL     1       3.587  -0.654  -0.037  0.00  0.00    -0.380 N 
ATOM     10  C   UNL     1       3.143  -2.053  -0.041  0.00  0.00    +0.144 C 
ATOM     11  C   UNL     1       1.631  -2.008  -0.025  0.00  0.00    -0.041 C 
ATOM     12  C   UNL     1       1.295  -0.698  -0.014  0.00  0.00    -0.001 A 
ATOM     13  C   UNL     1       0.002  -0.004   0.002  0.00  0.00    +0.010 A 
ATOM     14  H   UNL     1       4.509  -0.353  -0.045  0.00  0.00    +0.160 HD
ENDBRANCH   4  11
ENDBRANCH   3   4
ENDBRANCH   1   3
BRANCH   1  15
ATOM     15  O   UNL     1      -0.836  -5.411  -2.619  0.00  0.00    -0.458 OA
BRANCH  15  16
ATOM     16  C   UNL     1      -1.731  -6.522  -2.542  0.00  0.00    +0.287 C 
BRANCH  16  17
ATOM     17  C   UNL     1      -2.009  -7.039  -3.930  0.00  0.00    +0.086 A 
ATOM     18  C   UNL     1      -1.600  -8.309  -4.289  0.00  0.00    +0.097 A 
ATOM     19  C   UNL     1      -1.870  -8.767  -5.583  0.00  0.00    +0.259 A 
ATOM     20  O   UNL     1      -1.522  -9.884  -5.931  0.00  0.00    -0.267 OA
ATOM     21  N   UNL     1      -2.522  -7.954  -6.442  0.00  0.00    -0.267 N 
ATOM     22  C   UNL     1      -2.793  -8.385  -7.705  0.00  0.00    +0.111 A 
ATOM     23  C   UNL     1      -3.444  -7.589  -8.583  0.00  0.00    +0.035 A 
ATOM     24  C   UNL     1      -3.851  -6.302  -8.199  0.00  0.00    +0.020 A 
ATOM     25  C   UNL     1      -3.585  -5.862  -6.937  0.00  0.00    +0.048 A 
ATOM     26  C   UNL     1      -2.907  -6.705  -6.038  0.00  0.00    +0.141 A 
ATOM     27  N   UNL     1      -2.650  -6.278  -4.803  0.00  0.00    -0.231 NA
ATOM     28 BR   UNL     1      -3.807  -8.210 -10.332  0.00  0.00    -0.049 Br
ENDBRANCH  16  17
ENDBRANCH  15  16
ENDBRANCH   1  15
TORSDOF 6
