REMARK  Name = ZINC63179852
REMARK  6 active torsions:
REMARK  status: ('A' for Active; 'I' for Inactive)
REMARK    1  A    between atoms: C_5  and  C_8
REMARK    2  A    between atoms: C_8  and  N_9
REMARK    3  A    between atoms: C_13  and  C_16
REMARK    4  A    between atoms: N_18  and  C_19
REMARK    5  A    between atoms: C_19  and  C_20
REMARK    6  A    between atoms: C_20  and  N_21
REMARK                            x       y       z     vdW  Elec       q    Type
REMARK                         _______ _______ _______ _____ _____    ______ ____
ROOT
ATOM      1  N   UNL     1       1.614  -2.482  -2.377  0.00  0.00    +0.382 N 
ATOM      2  C   UNL     1       0.878  -2.135  -3.598  0.00  0.00    -0.079 C 
ATOM      3  C   UNL     1       1.696  -2.545  -4.825  0.00  0.00    -0.018 C 
ATOM      4  C   UNL     1       1.940  -4.056  -4.787  0.00  0.00    +0.009 C 
ATOM      5  C   UNL     1       2.643  -4.417  -3.475  0.00  0.00    +0.058 C 
ATOM      6  C   UNL     1       1.790  -3.938  -2.298  0.00  0.00    -0.066 C 
ATOM      7  H   UNL     1       2.519  -2.036  -2.394  0.00  0.00    -0.082 HD
ENDROOT
BRANCH   5   8
ATOM      8  C   UNL     1       2.821  -5.911  -3.393  0.00  0.00    +0.214 C 
ATOM      9  O   UNL     1       2.318  -6.532  -2.481  0.00  0.00    -0.276 OA
ATOM     10  N   UNL     1       3.538  -6.557  -4.334  0.00  0.00    -0.317 N 
ATOM     11  H   UNL     1       3.940  -6.059  -5.064  0.00  0.00    +0.149 HD
BRANCH  10  12
ATOM     12  C   UNL     1       3.711  -8.009  -4.255  0.00  0.00    +0.084 C 
BRANCH  12  13
ATOM     13  C   UNL     1       4.559  -8.487  -5.435  0.00  0.00    -0.067 C 
BRANCH  13  14
ATOM     14  N   UNL     1       4.733  -9.944  -5.355  0.00  0.00    +0.379 N 
ATOM     15  H   UNL     1       5.196 -10.181  -4.490  0.00  0.00    -0.090 HD
ATOM     16  H   UNL     1       3.829 -10.392  -5.387  0.00  0.00    -0.090 HD
ATOM     17  H   UNL     1       5.292 -10.259  -6.133  0.00  0.00    -0.090 HD
ENDBRANCH  13  14
ENDBRANCH  12  13
ENDBRANCH  10  12
ENDBRANCH   5   8
BRANCH   1  18
ATOM     18  C   UNL     1       0.862  -2.017  -1.204  0.00  0.00    -0.047 C 
BRANCH  18  23
ATOM     19  C   UNL     1      -0.019   1.528   0.010  0.00  0.00    +0.005 C 
ATOM     20  C   UNL     1       1.422   2.047  -0.001  0.00  0.00    +0.028 C 
ATOM     21  C   UNL     1       2.151   1.482  -1.223  0.00  0.00    +0.160 C 
ATOM     22  O   UNL     1       2.106   0.054  -1.185  0.00  0.00    -0.378 OA
ATOM     23  C   UNL     1       0.785  -0.489  -1.221  0.00  0.00    +0.102 C 
ATOM     24  C   UNL     1       0.002  -0.004   0.002  0.00  0.00    +0.030 C 
ENDBRANCH  18  23
ENDBRANCH   1  18
TORSDOF 6
