REMARK  Name = ZINC02396716
REMARK  6 active torsions:
REMARK  status: ('A' for Active; 'I' for Inactive)
REMARK    1  A    between atoms: C_6  and  C_7
REMARK    2  A    between atoms: C_10  and  S_13
REMARK    3  A    between atoms: N_11  and  N_12
REMARK    4  A    between atoms: S_13  and  C_14
REMARK    5  A    between atoms: C_14  and  C_15
REMARK    6  A    between atoms: N_17  and  C_18
REMARK                            x       y       z     vdW  Elec       q    Type
REMARK                         _______ _______ _______ _____ _____    ______ ____
ROOT
ATOM      1  C   UNL     1      -2.698  12.183  -1.212  0.00  0.00    +0.182 A 
ATOM      2  N   UNL     1      -1.532  11.851  -0.708  0.00  0.00    -0.127 NA
ATOM      3  N   UNL     1      -1.426  10.572  -0.651  0.00  0.00    -0.121 NA
ATOM      4  C   UNL     1      -2.515  10.008  -1.125  0.00  0.00    +0.209 A 
ATOM      5  N   UNL     1      -3.363  11.012  -1.495  0.00  0.00    -0.224 N 
ENDROOT
BRANCH   1  11
ATOM      6  C   UNL     1      -2.317  14.634  -1.433  0.00  0.00    +0.014 A 
ATOM      7  C   UNL     1      -2.791  15.912  -1.644  0.00  0.00    +0.039 A 
ATOM      8  C   UNL     1      -4.145  16.126  -1.847  0.00  0.00    +0.123 A 
ATOM      9  C   UNL     1      -5.029  15.059  -1.844  0.00  0.00    +0.039 A 
ATOM     10  C   UNL     1      -4.564  13.776  -1.638  0.00  0.00    +0.014 A 
ATOM     11  C   UNL     1      -3.202  13.555  -1.433  0.00  0.00    +0.021 A 
ATOM     12  F   UNL     1      -4.606  17.380  -2.049  0.00  0.00    -0.205 F 
ENDBRANCH   1  11
BRANCH   5  13
ATOM     13  N   UNL     1      -4.612  10.881  -2.033  0.00  0.00    -0.295 N 
ATOM     14  H   UNL     1      -5.322  10.946  -1.320  0.00  0.00    +0.163 HD
ATOM     15  H   UNL     1      -4.766  11.565  -2.760  0.00  0.00    +0.163 HD
ENDBRANCH   5  13
BRANCH   4  16
ATOM     16  S   UNL     1      -2.824   8.278  -1.252  0.00  0.00    -0.075 S 
BRANCH  16  17
ATOM     17  C   UNL     1      -1.273   7.631  -0.580  0.00  0.00    +0.173 C 
BRANCH  17  18
ATOM     18  C   UNL     1      -1.311   6.124  -0.591  0.00  0.00    +0.228 C 
ATOM     19  O   UNL     1      -2.291   5.545  -1.011  0.00  0.00    -0.275 OA
ATOM     20  N   UNL     1      -0.257   5.420  -0.133  0.00  0.00    -0.282 N 
ATOM     21  H   UNL     1       0.507   5.882   0.247  0.00  0.00    +0.155 HD
BRANCH  20  22
ATOM     22  C   UNL     1      -0.263   4.020  -0.207  0.00  0.00    +0.083 A 
ATOM     23  C   UNL     1      -0.885   3.382  -1.274  0.00  0.00    +0.148 A 
ATOM     24  C   UNL     1      -0.890   2.001  -1.344  0.00  0.00    +0.078 A 
ATOM     25  C   UNL     1      -0.277   1.254  -0.351  0.00  0.00    +0.127 A 
ATOM     26  C   UNL     1       0.338   1.888   0.715  0.00  0.00    +0.055 A 
ATOM     27  C   UNL     1       0.351   3.269   0.786  0.00  0.00    +0.045 A 
ATOM     28 BR   UNL     1       1.197   4.133   2.240  0.00  0.00    -0.048 Br
ATOM     29  F   UNL     1      -0.283  -0.095  -0.421  0.00  0.00    -0.205 F 
ATOM     30  F   UNL     1      -1.483   4.110  -2.242  0.00  0.00    -0.203 F 
ENDBRANCH  20  22
ENDBRANCH  17  18
ENDBRANCH  16  17
ENDBRANCH   4  16
TORSDOF 6
