REMARK  Name = ZINC35361937
REMARK  16 active torsions:
REMARK  status: ('A' for Active; 'I' for Inactive)
REMARK    1  A    between atoms: C_1  and  C_2
REMARK    2  A    between atoms: C_2  and  O_3
REMARK    3  A    between atoms: O_3  and  C_4
REMARK    4  A    between atoms: C_4  and  C_6
REMARK    5  A    between atoms: C_6  and  N_7
REMARK    6  A    between atoms: N_7  and  C_8
REMARK    7  A    between atoms: N_7  and  C_9
REMARK    8  A    between atoms: C_9  and  C_10
REMARK    9  A    between atoms: C_11  and  C_15
REMARK   10  A    between atoms: C_15  and  C_16
REMARK   11  A    between atoms: C_16  and  C_17
REMARK   12  A    between atoms: C_25  and  C_35
REMARK   13  A    between atoms: C_29  and  C_30
REMARK   14  A    between atoms: C_29  and  C_31
REMARK   15  A    between atoms: C_31  and  O_33
REMARK   16  A    between atoms: O_33  and  C_34
REMARK                            x       y       z     vdW  Elec       q    Type
REMARK                         _______ _______ _______ _____ _____    ______ ____
ROOT
ATOM      1  C   UNL     1       5.526  -6.704   3.750  0.00  0.00    +0.013 C 
ENDROOT
BRANCH   1   2
ATOM      2  C   UNL     1       6.876  -6.335   3.132  0.00  0.00    +0.021 C 
ATOM      3  C   UNL     1       7.558  -7.584   2.622  0.00  0.00    -0.073 C 
ATOM      4  C   UNL     1       7.726  -7.783   1.339  0.00  0.00    +0.008 C 
ATOM      5  C   UNL     1       8.042  -8.597   3.637  0.00  0.00    +0.031 C 
ATOM      6  C   UNL     1       8.901  -7.867   4.674  0.00  0.00    +0.009 C 
ATOM      7  C   UNL     1       8.102  -6.710   5.281  0.00  0.00    +0.012 C 
ATOM      8  C   UNL     1       7.767  -5.681   4.196  0.00  0.00    -0.022 C 
ATOM      9  C   UNL     1       7.007  -4.503   4.812  0.00  0.00    +0.007 C 
ATOM     10  C   UNL     1       7.863  -3.845   5.895  0.00  0.00    +0.002 C 
ATOM     11  C   UNL     1       8.171  -4.873   6.987  0.00  0.00    +0.018 C 
ATOM     12  C   UNL     1       8.946  -6.050   6.375  0.00  0.00    +0.068 C 
ATOM     13  C   UNL     1       9.264  -7.079   7.462  0.00  0.00    +0.023 C 
ATOM     14  C   UNL     1       9.059  -5.183   3.547  0.00  0.00    +0.012 C 
BRANCH  12  15
ATOM     15  C   UNL     1      10.232  -5.542   5.776  0.00  0.00    +0.313 C 
ATOM     16  O   UNL     1      10.533  -4.377   5.891  0.00  0.00    -0.250 OA
BRANCH  15  17
ATOM     17  O   UNL     1      11.044  -6.383   5.116  0.00  0.00    -0.468 OA
ATOM     18  C   UNL     1      12.246  -5.833   4.574  0.00  0.00    +0.280 C 
ENDBRANCH  15  17
ENDBRANCH  12  15
ENDBRANCH   1   2
BRANCH   1  19
ATOM     19  C   UNL     1       4.598  -7.247   2.661  0.00  0.00    +0.039 C 
BRANCH  19  21
ATOM     20  C   UNL     1       2.233  -6.780   3.487  0.00  0.00    +0.092 A 
ATOM     21  C   UNL     1       3.268  -7.611   3.269  0.00  0.00    -0.008 A 
ATOM     22  C   UNL     1       2.870  -8.890   3.720  0.00  0.00    +0.045 A 
ATOM     23  C   UNL     1       1.614  -8.765   4.186  0.00  0.00    +0.195 A 
ATOM     24  O   UNL     1       1.236  -7.484   4.048  0.00  0.00    -0.469 OA
BRANCH  20  25
ATOM     25  C   UNL     1       2.199  -5.309   3.162  0.00  0.00    -0.003 C 
BRANCH  25  26
ATOM     26  N   UNL     1       1.686  -5.120   1.798  0.00  0.00    +0.390 N 
ATOM     27  C   UNL     1       2.625  -5.710   0.835  0.00  0.00    -0.095 C 
ATOM     28  H   UNL     1       0.787  -5.572   1.712  0.00  0.00    -0.081 HD
BRANCH  26  29
ATOM     29  C   UNL     1       1.540  -3.684   1.525  0.00  0.00    +0.044 C 
BRANCH  29  30
ATOM     30  C   UNL     1       0.899  -3.493   0.174  0.00  0.00    +0.290 C 
ATOM     31  O   UNL     1       0.594  -4.454  -0.492  0.00  0.00    -0.253 OA
BRANCH  30  32
ATOM     32  O   UNL     1       0.666  -2.255  -0.289  0.00  0.00    -0.466 OA
BRANCH  32  34
ATOM     33  C   UNL     1      -0.129  -0.671  -1.932  0.00  0.00    +0.048 C 
ATOM     34  C   UNL     1       0.056  -2.148  -1.576  0.00  0.00    +0.228 C 
ENDBRANCH  32  34
ENDBRANCH  30  32
ENDBRANCH  29  30
ENDBRANCH  26  29
ENDBRANCH  25  26
ENDBRANCH  20  25
ENDBRANCH  19  21
ENDBRANCH   1  19
TORSDOF 11
