REMARK  Name = ZINC65129263
REMARK  6 active torsions:
REMARK  status: ('A' for Active; 'I' for Inactive)
REMARK    1  A    between atoms: C_1  and  C_2
REMARK    2  A    between atoms: C_2  and  C_3
REMARK    3  A    between atoms: C_3  and  C_4
REMARK    4  A    between atoms: C_4  and  N_5
REMARK    5  A    between atoms: C_12  and  S_15
REMARK    6  A    between atoms: S_15  and  N_18
REMARK                            x       y       z     vdW  Elec       q    Type
REMARK                         _______ _______ _______ _____ _____    ______ ____
ROOT
ATOM      1  N   UNL     1       1.425  -2.500  -2.470  0.00  0.00    -0.212 N 
ATOM      2  C   UNL     1       2.744  -2.752  -2.589  0.00  0.00    +0.351 A 
ATOM      3  O   UNL     1       3.581  -2.627  -1.711  0.00  0.00    -0.244 OA
ATOM      4  N   UNL     1       2.974  -3.167  -3.851  0.00  0.00    -0.249 N 
ATOM      5  C   UNL     1       4.128  -3.548  -4.494  0.00  0.00    +0.098 A 
ATOM      6  C   UNL     1       4.101  -3.928  -5.784  0.00  0.00    +0.020 A 
ATOM      7  C   UNL     1       2.888  -3.944  -6.502  0.00  0.00    +0.034 A 
ATOM      8  C   UNL     1       1.737  -3.573  -5.891  0.00  0.00    +0.150 A 
ATOM      9  C   UNL     1       1.771  -3.173  -4.531  0.00  0.00    +0.188 A 
ATOM     10  N   UNL     1       0.828  -2.778  -3.708  0.00  0.00    -0.147 NA
ENDROOT
BRANCH   8  11
ATOM     11  S   UNL     1       0.214  -3.587  -6.777  0.00  0.00    +0.065 S 
ATOM     12  O   UNL     1       0.474  -4.222  -8.021  0.00  0.00    -0.153 OA
ATOM     13  O   UNL     1      -0.777  -4.058  -5.874  0.00  0.00    -0.153 OA
BRANCH  11  14
ATOM     14  N   UNL     1      -0.168  -2.013  -7.119  0.00  0.00    -0.172 NA
ATOM     15  C   UNL     1      -0.971  -1.200  -6.191  0.00  0.00    +0.114 C 
ATOM     16  C   UNL     1      -0.093  -0.054  -5.691  0.00  0.00    +0.052 C 
ATOM     17  C   UNL     1       0.617   0.617  -6.837  0.00  0.00    -0.042 A 
ATOM     18  C   UNL     1       1.099   1.905  -6.631  0.00  0.00    +0.004 A 
ATOM     19  C   UNL     1       1.767   2.572  -7.636  0.00  0.00    +0.000 A 
ATOM     20  C   UNL     1       1.961   1.958  -8.859  0.00  0.00    +0.000 A 
ATOM     21  C   UNL     1       1.480   0.681  -9.067  0.00  0.00    +0.005 A 
ATOM     22  C   UNL     1       0.803   0.010  -8.058  0.00  0.00    -0.028 A 
ATOM     23  C   UNL     1       0.285  -1.370  -8.357  0.00  0.00    +0.144 C 
ENDBRANCH  11  14
ENDBRANCH   8  11
BRANCH   1  24
ATOM     24  C   UNL     1       0.739  -2.027  -1.265  0.00  0.00    +0.149 C 
BRANCH  24  25
ATOM     25  C   UNL     1       0.718  -0.497  -1.257  0.00  0.00    +0.023 C 
BRANCH  25  27
ATOM     26  C   UNL     1      -0.019   1.526   0.010  0.00  0.00    +0.004 C 
ATOM     27  C   UNL     1       0.002  -0.004   0.002  0.00  0.00    -0.002 C 
ENDBRANCH  25  27
ENDBRANCH  24  25
ENDBRANCH   1  24
TORSDOF 5
