REMARK  Name = ZINC20437238
REMARK  5 active torsions:
REMARK  status: ('A' for Active; 'I' for Inactive)
REMARK    1  A    between atoms: C_1  and  C_2
REMARK    2  A    between atoms: C_8  and  C_10
REMARK    3  A    between atoms: C_10  and  S_11
REMARK    4  A    between atoms: S_11  and  C_12
REMARK    5  A    between atoms: N_22  and  C_25
REMARK                            x       y       z     vdW  Elec       q    Type
REMARK                         _______ _______ _______ _____ _____    ______ ____
ROOT
ATOM      1  C   UNL     1       5.045  -5.331   2.527  0.00  0.00    +0.191 A 
ATOM      2  N   UNL     1       4.452  -4.837   3.608  0.00  0.00    -0.207 NA
ATOM      3  C   UNL     1       4.606  -5.380   4.804  0.00  0.00    +0.129 A 
ATOM      4  C   UNL     1       5.433  -6.530   4.946  0.00  0.00    +0.051 A 
ATOM      5  C   UNL     1       5.747  -7.289   6.155  0.00  0.00    -0.022 A 
ATOM      6  C   UNL     1       6.567  -8.352   6.018  0.00  0.00    +0.010 A 
ATOM      7  S   UNL     1       6.965  -8.408   4.293  0.00  0.00    -0.072 S 
ATOM      8  C   UNL     1       6.029  -6.998   3.757  0.00  0.00    +0.115 A 
ATOM      9  N   UNL     1       5.821  -6.404   2.599  0.00  0.00    -0.214 NA
ATOM     10  C   UNL     1       7.029  -9.270   7.107  0.00  0.00    +0.126 C 
ATOM     11  N   UNL     1       6.740  -8.631   8.404  0.00  0.00    -0.300 NA
ATOM     12  C   UNL     1       5.353  -8.148   8.445  0.00  0.00    +0.089 C 
ATOM     13  C   UNL     1       5.193  -6.930   7.532  0.00  0.00    +0.052 C 
ATOM     14  C   UNL     1       7.011  -9.551   9.516  0.00  0.00    +0.105 C 
ATOM     15  N   UNL     1       3.971  -4.835   5.906  0.00  0.00    -0.343 N 
ATOM     16  H   UNL     1       3.289  -4.156   5.786  0.00  0.00    +0.144 HD
ATOM     17  H   UNL     1       4.208  -5.133   6.798  0.00  0.00    +0.144 HD
ENDROOT
BRANCH   1  18
ATOM     18  S   UNL     1       4.789  -4.550   0.969  0.00  0.00    -0.077 S 
BRANCH  18  19
ATOM     19  C   UNL     1       3.687  -3.161   1.349  0.00  0.00    +0.173 C 
BRANCH  19  27
ATOM     20  C   UNL     1       2.168   2.891   0.596  0.00  0.00    +0.007 C 
ATOM     21  C   UNL     1       1.865   1.407   0.379  0.00  0.00    -0.011 C 
ATOM     22  C   UNL     1       2.608   0.912  -0.865  0.00  0.00    +0.022 C 
ATOM     23  C   UNL     1       2.275  -0.565  -1.099  0.00  0.00    +0.108 C 
ATOM     24  N   UNL     1       2.579  -1.318   0.125  0.00  0.00    -0.301 N 
ATOM     25  C   UNL     1       1.989  -0.872   1.394  0.00  0.00    +0.108 C 
ATOM     26  C   UNL     1       2.324   0.608   1.601  0.00  0.00    +0.022 C 
ATOM     27  C   UNL     1       3.384  -2.399   0.085  0.00  0.00    +0.226 C 
ATOM     28  O   UNL     1       3.865  -2.757  -0.969  0.00  0.00    -0.275 OA
ENDBRANCH  19  27
ENDBRANCH  18  19
ENDBRANCH   1  18
TORSDOF 3
