REMARK  Name = ZINC64870325
REMARK  6 active torsions:
REMARK  status: ('A' for Active; 'I' for Inactive)
REMARK    1  A    between atoms: C_1  and  O_2
REMARK    2  A    between atoms: O_2  and  C_3
REMARK    3  A    between atoms: C_7  and  C_9
REMARK    4  A    between atoms: C_9  and  N_10
REMARK    5  A    between atoms: C_16  and  C_23
REMARK    6  A    between atoms: C_26  and  C_30
REMARK                            x       y       z     vdW  Elec       q    Type
REMARK                         _______ _______ _______ _____ _____    ______ ____
ROOT
ATOM      1  N   UNL     1      -2.118  -4.502  -1.588  0.00  0.00    -0.256 N 
ATOM      2  C   UNL     1      -3.341  -4.732  -2.114  0.00  0.00    +0.265 A 
ATOM      3  O   UNL     1      -4.348  -4.536  -1.461  0.00  0.00    -0.267 OA
ATOM      4  C   UNL     1      -3.423  -5.225  -3.500  0.00  0.00    +0.063 A 
ATOM      5  C   UNL     1      -4.646  -5.486  -4.114  0.00  0.00    +0.016 A 
ATOM      6  C   UNL     1      -4.670  -5.947  -5.413  0.00  0.00    +0.008 A 
ATOM      7  C   UNL     1      -3.487  -6.150  -6.108  0.00  0.00    -0.000 A 
ATOM      8  C   UNL     1      -2.268  -5.895  -5.511  0.00  0.00    +0.034 A 
ATOM      9  C   UNL     1      -2.224  -5.432  -4.205  0.00  0.00    +0.056 A 
ATOM     10  N   UNL     1      -1.021  -5.163  -3.569  0.00  0.00    -0.307 N 
ATOM     11  H   UNL     1      -0.186  -5.300  -4.043  0.00  0.00    +0.170 HD
ATOM     12  C   UNL     1      -1.002  -4.709  -2.304  0.00  0.00    +0.330 A 
ATOM     13  O   UNL     1       0.073  -4.482  -1.784  0.00  0.00    -0.246 OA
ENDROOT
BRANCH   7  14
ATOM     14  C   UNL     1      -3.532  -6.654  -7.527  0.00  0.00    +0.242 C 
ATOM     15  N   UNL     1      -4.744  -7.476  -7.744  0.00  0.00    -0.265 NA
ATOM     16  C   UNL     1      -5.209  -7.173  -9.114  0.00  0.00    +0.182 C 
ATOM     17  N   UNL     1      -4.253  -6.178  -9.654  0.00  0.00    -0.177 NA
ATOM     18  O   UNL     1      -3.663  -5.550  -8.450  0.00  0.00    -0.274 OA
ATOM     19  H   UNL     1      -4.538  -8.459  -7.641  0.00  0.00    +0.127 HD
ATOM     20  H   UNL     1      -4.727  -5.493 -10.224  0.00  0.00    +0.156 HD
BRANCH  16  21
ATOM     21  C   UNL     1      -5.193  -8.422  -9.957  0.00  0.00    +0.004 A 
ATOM     22  C   UNL     1      -4.096  -8.708 -10.749  0.00  0.00    +0.008 A 
ATOM     23  C   UNL     1      -4.081  -9.854 -11.522  0.00  0.00    +0.000 A 
ATOM     24  C   UNL     1      -5.163 -10.715 -11.504  0.00  0.00    +0.001 A 
ATOM     25  C   UNL     1      -6.259 -10.431 -10.712  0.00  0.00    +0.020 A 
ATOM     26  C   UNL     1      -6.273  -9.287  -9.934  0.00  0.00    +0.047 A 
ATOM     27 CL   UNL     1      -7.647  -8.932  -8.934  0.00  0.00    -0.083 Cl
ENDBRANCH  16  21
ENDBRANCH   7  14
BRANCH   1  28
ATOM     28  C   UNL     1      -2.009  -4.010  -0.212  0.00  0.00    +0.165 C 
BRANCH  28  33
ATOM     29  C   UNL     1      -0.858  -0.413  -0.317  0.00  0.00    +0.120 A 
ATOM     30  C   UNL     1      -2.064   0.265  -0.217  0.00  0.00    +0.045 A 
ATOM     31  C   UNL     1      -3.246  -0.444  -0.116  0.00  0.00    +0.004 A 
ATOM     32  C   UNL     1      -3.227  -1.826  -0.115  0.00  0.00    +0.005 A 
ATOM     33  C   UNL     1      -2.026  -2.503  -0.214  0.00  0.00    -0.024 A 
ATOM     34  C   UNL     1      -0.842  -1.800  -0.321  0.00  0.00    +0.051 A 
BRANCH  29  36
ATOM     35  C   UNL     1       0.214   1.708  -0.405  0.00  0.00    +0.277 C 
ATOM     36  O   UNL     1       0.306   0.282  -0.416  0.00  0.00    -0.495 OA
ENDBRANCH  29  36
ENDBRANCH  28  33
ENDBRANCH   1  28
TORSDOF 5
