REMARK  Name = ZINC09158717
REMARK  7 active torsions:
REMARK  status: ('A' for Active; 'I' for Inactive)
REMARK    1  A    between atoms: C_1  and  C_2
REMARK    2  A    between atoms: C_7  and  N_8
REMARK    3  A    between atoms: C_9  and  C_34
REMARK    4  A    between atoms: C_11  and  C_14
REMARK    5  A    between atoms: C_12  and  C_13
REMARK    6  A    between atoms: C_24  and  C_26
REMARK    7  A    between atoms: C_26  and  C_27
REMARK                            x       y       z     vdW  Elec       q    Type
REMARK                         _______ _______ _______ _____ _____    ______ ____
ROOT
ATOM      1  C   UNL     1       1.609   1.559   5.309  0.00  0.00    +0.026 C 
ATOM      2  C   UNL     1       1.030   2.297   6.321  0.00  0.00    +0.081 C 
ATOM      3  C   UNL     1      -0.449   2.394   6.472  0.00  0.00    +0.152 C 
ATOM      4  N   UNL     1      -1.267   1.422   6.165  0.00  0.00    -0.283 NA
ATOM      5  N   UNL     1      -0.879   3.639   6.979  0.00  0.00    -0.152 N 
ATOM      6  C   UNL     1       0.028   4.376   7.710  0.00  0.00    +0.181 C 
ATOM      7  N   UNL     1       1.292   4.106   7.918  0.00  0.00    -0.152 NA
ATOM      8  C   UNL     1       1.845   3.031   7.318  0.00  0.00    +0.273 C 
ATOM      9  O   UNL     1       2.982   2.675   7.584  0.00  0.00    -0.268 OA
ATOM     10  S   UNL     1      -0.956   5.750   8.246  0.00  0.00    -0.038 S 
ATOM     11  C   UNL     1      -2.462   5.309   7.389  0.00  0.00    +0.104 C 
ATOM     12  N   UNL     1      -2.136   4.183   6.820  0.00  0.00    -0.169 NA
ATOM     13  H   UNL     1      -2.225   1.550   6.250  0.00  0.00    +0.188 HD
ENDROOT
BRANCH   1  17
ATOM     14  N   UNL     1       0.101  -0.136   2.526  0.00  0.00    -0.317 N 
ATOM     15  C   UNL     1      -0.900   0.751   2.814  0.00  0.00    +0.022 A 
ATOM     16  C   UNL     1      -0.531   1.510   3.860  0.00  0.00    +0.031 A 
ATOM     17  C   UNL     1       0.810   1.054   4.252  0.00  0.00    -0.003 A 
ATOM     18  C   UNL     1       1.131   0.026   3.380  0.00  0.00    +0.028 A 
ATOM     19  C   UNL     1       2.411  -0.770   3.384  0.00  0.00    +0.064 C 
ATOM     20  C   UNL     1      -2.209   0.861   2.075  0.00  0.00    +0.064 C 
BRANCH  14  27
ATOM     21  C   UNL     1       1.097   0.617  -0.031  0.00  0.00    +0.046 C 
ATOM     22  C   UNL     1       0.534  -0.756   0.231  0.00  0.00    -0.027 A 
ATOM     23  C   UNL     1       0.496  -1.693  -0.783  0.00  0.00    +0.005 A 
ATOM     24  C   UNL     1      -0.020  -2.953  -0.543  0.00  0.00    +0.000 A 
ATOM     25  C   UNL     1      -0.500  -3.279   0.712  0.00  0.00    +0.002 A 
ATOM     26  C   UNL     1      -0.465  -2.346   1.730  0.00  0.00    +0.026 A 
ATOM     27  C   UNL     1       0.058  -1.082   1.494  0.00  0.00    +0.049 A 
ENDBRANCH  14  27
ENDBRANCH   1  17
BRANCH  11  28
ATOM     28  C   UNL     1      -3.773   6.050   7.337  0.00  0.00    +0.099 C 
BRANCH  28  29
ATOM     29  C   UNL     1      -4.750   5.282   6.484  0.00  0.00    -0.041 A 
ATOM     30  C   UNL     1      -4.819   5.523   5.125  0.00  0.00    +0.005 A 
ATOM     31  C   UNL     1      -5.715   4.819   4.342  0.00  0.00    +0.020 A 
ATOM     32  C   UNL     1      -6.543   3.873   4.920  0.00  0.00    +0.041 A 
ATOM     33  C   UNL     1      -6.474   3.633   6.281  0.00  0.00    +0.020 A 
ATOM     34  C   UNL     1      -5.574   4.333   7.061  0.00  0.00    +0.005 A 
ATOM     35 CL   UNL     1      -7.670   2.990   3.938  0.00  0.00    -0.084 Cl
ENDBRANCH  28  29
ENDBRANCH  11  28
TORSDOF 4
