REMARK  Name = ZINC39665912
REMARK  9 active torsions:
REMARK  status: ('A' for Active; 'I' for Inactive)
REMARK    1  A    between atoms: C_1  and  C_2
REMARK    2  A    between atoms: C_5  and  O_8
REMARK    3  A    between atoms: O_8  and  C_9
REMARK    4  A    between atoms: C_9  and  C_11
REMARK    5  A    between atoms: C_9  and  C_12
REMARK    6  A    between atoms: C_12  and  N_13
REMARK    7  A    between atoms: C_14  and  C_16
REMARK    8  A    between atoms: C_27  and  C_29
REMARK    9  A    between atoms: C_33  and  C_35
REMARK                            x       y       z     vdW  Elec       q    Type
REMARK                         _______ _______ _______ _____ _____    ______ ____
ROOT
ATOM      1  C   UNL     1       4.656  -6.551   0.309  0.00  0.00    +0.100 C 
ATOM      2  C   UNL     1       4.937  -5.632  -0.901  0.00  0.00    +0.121 C 
ATOM      3  N   UNL     1       6.229  -6.113  -1.444  0.00  0.00    -0.296 N 
ATOM      4  C   UNL     1       6.151  -7.589  -1.327  0.00  0.00    +0.115 C 
ATOM      5  C   UNL     1       5.454  -7.834   0.025  0.00  0.00    -0.004 C 
ATOM      6  C   UNL     1       4.512  -9.030  -0.076  0.00  0.00    -0.010 C 
ATOM      7  C   UNL     1       5.334 -10.303  -0.300  0.00  0.00    -0.082 C 
ATOM      8  N   UNL     1       6.271 -10.486   0.815  0.00  0.00    +0.379 N 
ATOM      9  C   UNL     1       7.232  -9.376   0.847  0.00  0.00    -0.082 C 
ATOM     10  C   UNL     1       6.491  -8.064   1.120  0.00  0.00    -0.010 C 
ATOM     11  C   UNL     1       7.246  -5.376  -1.932  0.00  0.00    +0.247 C 
ATOM     12  O   UNL     1       7.137  -4.168  -2.011  0.00  0.00    -0.270 OA
ATOM     13  H   UNL     1       5.758 -10.510   1.683  0.00  0.00    -0.086 HD
ATOM     14  H   UNL     1       6.768 -11.356   0.696  0.00  0.00    -0.086 HD
ENDROOT
BRANCH  11  15
ATOM     15  C   UNL     1       8.493  -6.036  -2.373  0.00  0.00    +0.037 A 
ATOM     16  C   UNL     1       8.460  -7.343  -2.861  0.00  0.00    +0.013 A 
ATOM     17  C   UNL     1       9.627  -7.954  -3.271  0.00  0.00    +0.001 A 
ATOM     18  C   UNL     1      10.829  -7.273  -3.198  0.00  0.00    +0.003 A 
ATOM     19  C   UNL     1      10.870  -5.977  -2.716  0.00  0.00    -0.050 A 
ATOM     20  C   UNL     1       9.708  -5.353  -2.308  0.00  0.00    +0.016 A 
ATOM     21  C   UNL     1      12.184  -5.243  -2.640  0.00  0.00    +0.044 C 
ENDBRANCH  11  15
BRANCH   1  23
ATOM     22  N   UNL     1       2.621  -7.098   1.605  0.00  0.00    -0.312 N 
ATOM     23  C   UNL     1       3.183  -6.858   0.404  0.00  0.00    +0.218 C 
ATOM     24  O   UNL     1       2.505  -6.890  -0.601  0.00  0.00    -0.275 OA
ATOM     25  H   UNL     1       3.163  -7.072   2.409  0.00  0.00    +0.149 HD
BRANCH  22  26
ATOM     26  C   UNL     1       1.190  -7.397   1.697  0.00  0.00    +0.148 C 
BRANCH  26  27
ATOM     27  C   UNL     1       0.810  -7.627   3.161  0.00  0.00    +0.187 C 
ATOM     28  C   UNL     1      -0.655  -8.061   3.246  0.00  0.00    +0.053 C 
BRANCH  27  29
ATOM     29  O   UNL     1       0.991  -6.415   3.896  0.00  0.00    -0.488 OA
BRANCH  29  34
ATOM     30  C   UNL     1       2.240  -6.904   9.366  0.00  0.00    +0.044 C 
ATOM     31  C   UNL     1       1.905  -6.773   7.903  0.00  0.00    -0.050 A 
ATOM     32  C   UNL     1       1.610  -7.900   7.159  0.00  0.00    +0.007 A 
ATOM     33  C   UNL     1       1.303  -7.783   5.817  0.00  0.00    +0.046 A 
ATOM     34  C   UNL     1       1.292  -6.533   5.216  0.00  0.00    +0.121 A 
ATOM     35  C   UNL     1       1.588  -5.403   5.965  0.00  0.00    +0.046 A 
ATOM     36  C   UNL     1       1.889  -5.525   7.308  0.00  0.00    +0.007 A 
ENDBRANCH  29  34
ENDBRANCH  27  29
ENDBRANCH  26  27
ENDBRANCH  22  26
ENDBRANCH   1  23
TORSDOF 6
