REMARK  Name = ZINC39353658
REMARK  6 active torsions:
REMARK  status: ('A' for Active; 'I' for Inactive)
REMARK    1  A    between atoms: C_7  and  C_10
REMARK    2  A    between atoms: C_10  and  C_11
REMARK    3  A    between atoms: C_11  and  C_12
REMARK    4  A    between atoms: C_17  and  N_20
REMARK    5  A    between atoms: C_24  and  C_36
REMARK    6  A    between atoms: C_28  and  C_30
REMARK                            x       y       z     vdW  Elec       q    Type
REMARK                         _______ _______ _______ _____ _____    ______ ____
ROOT
ATOM      1  C   UNL     1      -4.978   5.087  -1.361  0.00  0.00    +0.216 C 
ATOM      2  O   UNL     1      -5.271   5.614  -0.309  0.00  0.00    -0.276 OA
ATOM      3  N   UNL     1      -5.135   5.758  -2.519  0.00  0.00    -0.301 N 
ATOM      4  C   UNL     1      -4.790   5.130  -3.802  0.00  0.00    +0.109 C 
ATOM      5  C   UNL     1      -5.999   5.224  -4.738  0.00  0.00    +0.041 C 
ATOM      6  C   UNL     1      -6.439   6.685  -4.852  0.00  0.00    +0.078 C 
ATOM      7  C   UNL     1      -6.854   7.203  -3.473  0.00  0.00    +0.041 C 
ATOM      8  C   UNL     1      -5.661   7.130  -2.523  0.00  0.00    +0.109 C 
ENDROOT
BRANCH   6   9
ATOM      9  N   UNL     1      -7.575   6.782  -5.772  0.00  0.00    -0.305 N 
ATOM     10  C   UNL     1      -8.820   6.156  -5.624  0.00  0.00    +0.053 A 
ATOM     11  C   UNL     1      -9.295   5.318  -4.622  0.00  0.00    +0.025 A 
ATOM     12  C   UNL     1     -10.579   4.812  -4.691  0.00  0.00    +0.014 A 
ATOM     13  C   UNL     1     -11.396   5.137  -5.758  0.00  0.00    +0.057 A 
ATOM     14  C   UNL     1     -10.933   5.970  -6.758  0.00  0.00    +0.037 A 
ATOM     15  C   UNL     1      -9.643   6.484  -6.697  0.00  0.00    +0.050 A 
ATOM     16  N   UNL     1      -8.959   7.333  -7.577  0.00  0.00    -0.322 N 
ATOM     17  C   UNL     1      -7.621   7.558  -7.017  0.00  0.00    +0.188 C 
ATOM     18  H   UNL     1      -9.307   7.706  -8.403  0.00  0.00    +0.148 HD
BRANCH  17  19
ATOM     19  C   UNL     1      -6.553   7.058  -7.991  0.00  0.00    +0.157 C 
ATOM     20  C   UNL     1      -6.528   7.956  -9.247  0.00  0.00    +0.037 C 
ATOM     21  C   UNL     1      -6.303   6.924 -10.386  0.00  0.00    +0.031 C 
ATOM     22  C   UNL     1      -7.086   5.705  -9.836  0.00  0.00    +0.160 C 
ATOM     23  O   UNL     1      -6.867   5.726  -8.415  0.00  0.00    -0.373 OA
ENDBRANCH  17  19
BRANCH  13  24
ATOM     24  C   UNL     1     -12.796   4.583  -5.829  0.00  0.00    +0.417 C 
ATOM     25  F   UNL     1     -13.034   3.773  -4.713  0.00  0.00    -0.166 F 
ATOM     26  F   UNL     1     -13.715   5.637  -5.846  0.00  0.00    -0.166 F 
ATOM     27  F   UNL     1     -12.937   3.822  -6.995  0.00  0.00    -0.166 F 
ENDBRANCH  13  24
ENDBRANCH   6   9
BRANCH   1  28
ATOM     28  C   UNL     1      -4.437   3.680  -1.374  0.00  0.00    +0.100 C 
BRANCH  28  29
ATOM     29  C   UNL     1      -4.358   3.151   0.060  0.00  0.00    +0.046 C 
BRANCH  29  36
ATOM     30  C   UNL     1      -0.017   1.384   0.010  0.00  0.00    +0.001 A 
ATOM     31  C   UNL     1       0.002  -0.004   0.002  0.00  0.00    +0.002 A 
ATOM     32  C   UNL     1      -1.173  -0.723   0.009  0.00  0.00    +0.026 A 
ATOM     33  C   UNL     1      -2.392  -0.053   0.024  0.00  0.00    +0.047 A 
ATOM     34  N   UNL     1      -3.704  -0.472   0.034  0.00  0.00    -0.360 N 
ATOM     35  C   UNL     1      -4.539   0.612   0.047  0.00  0.00    +0.087 A 
ATOM     36  C   UNL     1      -3.818   1.744   0.047  0.00  0.00    -0.022 A 
ATOM     37  C   UNL     1      -2.406   1.353   0.032  0.00  0.00    +0.003 A 
ATOM     38  C   UNL     1      -1.203   2.062   0.030  0.00  0.00    +0.010 A 
ATOM     39  H   UNL     1      -3.993  -1.398   0.030  0.00  0.00    +0.165 HD
ENDBRANCH  29  36
ENDBRANCH  28  29
ENDBRANCH   1  28
TORSDOF 6
