REMARK  Name = ZINC34733738
REMARK  5 active torsions:
REMARK  status: ('A' for Active; 'I' for Inactive)
REMARK    1  A    between atoms: C_2  and  C_3
REMARK    2  A    between atoms: C_3  and  N_4
REMARK    3  A    between atoms: C_6  and  C_18
REMARK    4  A    between atoms: C_10  and  C_12
REMARK    5  A    between atoms: N_23  and  C_26
REMARK                            x       y       z     vdW  Elec       q    Type
REMARK                         _______ _______ _______ _____ _____    ______ ____
ROOT
ATOM      1  N   UNL     1      -0.627  -1.568  -0.903  0.00  0.00    +0.387 N 
ATOM      2  C   UNL     1       0.162  -2.805  -0.948  0.00  0.00    -0.065 C 
ATOM      3  C   UNL     1      -0.227  -3.618  -2.185  0.00  0.00    +0.059 C 
ATOM      4  C   UNL     1      -1.718  -3.963  -2.115  0.00  0.00    +0.009 C 
ATOM      5  C   UNL     1      -2.526  -2.668  -1.993  0.00  0.00    -0.010 C 
ATOM      6  C   UNL     1      -2.052  -1.891  -0.763  0.00  0.00    -0.037 C 
ATOM      7  H   UNL     1      -0.483  -1.049  -1.756  0.00  0.00    -0.080 HD
ENDROOT
BRANCH   3   8
ATOM      8  C   UNL     1       0.044  -2.806  -3.426  0.00  0.00    +0.217 C 
ATOM      9  O   UNL     1      -0.878  -2.417  -4.110  0.00  0.00    -0.275 OA
ATOM     10  N   UNL     1       1.313  -2.514  -3.775  0.00  0.00    -0.298 N 
ATOM     11  C   UNL     1       2.444  -3.079  -3.027  0.00  0.00    +0.126 C 
ATOM     12  C   UNL     1       3.365  -3.812  -4.011  0.00  0.00    +0.124 C 
ATOM     13  N   UNL     1       3.641  -2.921  -5.147  0.00  0.00    -0.325 N 
ATOM     14  C   UNL     1       2.510  -2.356  -5.895  0.00  0.00    +0.124 C 
ATOM     15  C   UNL     1       1.589  -1.628  -4.915  0.00  0.00    +0.126 C 
BRANCH  13  16
ATOM     16  C   UNL     1       4.957  -2.618  -5.510  0.00  0.00    +0.065 A 
ATOM     17  C   UNL     1       5.625  -3.410  -6.434  0.00  0.00    +0.026 A 
ATOM     18  C   UNL     1       6.925  -3.107  -6.790  0.00  0.00    +0.002 A 
ATOM     19  C   UNL     1       7.562  -2.016  -6.229  0.00  0.00    +0.003 A 
ATOM     20  C   UNL     1       6.901  -1.224  -5.308  0.00  0.00    +0.040 A 
ATOM     21  C   UNL     1       5.598  -1.517  -4.951  0.00  0.00    +0.144 A 
ATOM     22  F   UNL     1       4.950  -0.740  -4.056  0.00  0.00    -0.204 F 
ENDBRANCH  13  16
ENDBRANCH   3   8
BRANCH   6  23
ATOM     23  C   UNL     1      -2.845  -0.615  -0.639  0.00  0.00    -0.061 A 
ATOM     24  C   UNL     1      -2.519   0.480  -1.417  0.00  0.00    +0.002 A 
ATOM     25  C   UNL     1      -3.246   1.650  -1.303  0.00  0.00    +0.000 A 
ATOM     26  C   UNL     1      -4.300   1.724  -0.411  0.00  0.00    +0.000 A 
ATOM     27  C   UNL     1      -4.627   0.629   0.366  0.00  0.00    +0.000 A 
ATOM     28  C   UNL     1      -3.902  -0.542   0.249  0.00  0.00    +0.002 A 
ENDBRANCH   6  23
BRANCH   1  29
ATOM     29  C   UNL     1      -0.195  -0.756   0.243  0.00  0.00    -0.051 C 
BRANCH  29  31
ATOM     30  C   UNL     1       1.544   0.950   0.088  0.00  0.00    +0.002 C 
ATOM     31  C   UNL     1       1.234  -0.321   0.041  0.00  0.00    -0.053 C 
ENDBRANCH  29  31
ENDBRANCH   1  29
TORSDOF 5
