REMARK  Name = ZINC09665056
REMARK  7 active torsions:
REMARK  status: ('A' for Active; 'I' for Inactive)
REMARK    1  A    between atoms: C_3  and  N_8
REMARK    2  A    between atoms: C_9  and  S_13
REMARK    3  A    between atoms: S_13  and  C_14
REMARK    4  A    between atoms: C_14  and  C_15
REMARK    5  A    between atoms: N_17  and  C_18
REMARK    6  A    between atoms: C_18  and  C_19
REMARK    7  A    between atoms: C_19  and  N_57
REMARK                            x       y       z     vdW  Elec       q    Type
REMARK                         _______ _______ _______ _____ _____    ______ ____
ROOT
ATOM      1  C   UNL     1       0.755  -1.906   1.269  0.00  0.00    +0.223 C 
ATOM      2  O   UNL     1       0.273  -2.651   0.443  0.00  0.00    -0.275 OA
ATOM      3  N   UNL     1       0.616  -0.572   1.136  0.00  0.00    -0.316 N 
ATOM      4  H   UNL     1       1.001   0.024   1.797  0.00  0.00    +0.149 HD
ENDROOT
BRANCH   1   5
ATOM      5  C   UNL     1       1.510  -2.472   2.444  0.00  0.00    +0.173 C 
BRANCH   5   6
ATOM      6  S   UNL     1       1.522  -4.279   2.341  0.00  0.00    -0.075 S 
BRANCH   6   8
ATOM      7  N   UNL     1       2.767  -5.907   4.242  0.00  0.00    -0.187 N 
ATOM      8  C   UNL     1       2.442  -4.663   3.793  0.00  0.00    +0.214 A 
ATOM      9  N   UNL     1       2.941  -3.802   4.655  0.00  0.00    -0.101 NA
ATOM     10  N   UNL     1       3.555  -4.416   5.601  0.00  0.00    -0.022 NA
ATOM     11  N   UNL     1       3.499  -5.691   5.423  0.00  0.00    -0.038 NA
BRANCH   7  14
ATOM     12  C   UNL     1       0.913  -8.511   2.419  0.00  0.00    +0.005 A 
ATOM     13  C   UNL     1       1.228  -7.300   3.004  0.00  0.00    +0.028 A 
ATOM     14  C   UNL     1       2.444  -7.138   3.652  0.00  0.00    +0.073 A 
ATOM     15  C   UNL     1       3.338  -8.197   3.720  0.00  0.00    +0.066 A 
ATOM     16  C   UNL     1       3.017  -9.410   3.138  0.00  0.00    +0.125 A 
ATOM     17  C   UNL     1       1.804  -9.566   2.487  0.00  0.00    +0.038 A 
ATOM     18  F   UNL     1       3.886 -10.442   3.203  0.00  0.00    -0.205 F 
ENDBRANCH   7  14
ENDBRANCH   6   8
ENDBRANCH   5   6
ENDBRANCH   1   5
BRANCH   3  19
ATOM     19  C   UNL     1      -0.118  -0.022  -0.006  0.00  0.00    +0.092 C 
BRANCH  19  20
ATOM     20  C   UNL     1       0.025   1.501  -0.019  0.00  0.00    -0.049 C 
ATOM     21  C   UNL     1      -0.345   2.059   1.357  0.00  0.00    -0.010 C 
ATOM     22  C   UNL     1      -1.791   1.686   1.687  0.00  0.00    -0.001 C 
ATOM     23  C   UNL     1      -2.725   2.277   0.629  0.00  0.00    -0.000 C 
ATOM     24  C   UNL     1      -2.355   1.718  -0.747  0.00  0.00    -0.001 C 
ATOM     25  C   UNL     1      -0.909   2.092  -1.077  0.00  0.00    -0.010 C 
BRANCH  20  31
ATOM     26  C   UNL     1       1.747   1.501  -1.722  0.00  0.00    -0.049 C 
ATOM     27  C   UNL     1       3.180   1.945  -2.028  0.00  0.00    +0.141 C 
ATOM     28  O   UNL     1       4.071   1.345  -1.084  0.00  0.00    -0.383 OA
ATOM     29  C   UNL     1       3.776   1.673   0.276  0.00  0.00    +0.141 C 
ATOM     30  C   UNL     1       2.349   1.226   0.605  0.00  0.00    -0.049 C 
ATOM     31  N   UNL     1       1.417   1.886  -0.334  0.00  0.00    +0.387 N 
ATOM     32  H   UNL     1       1.512   2.904  -0.238  0.00  0.00    -0.081 HD
ENDBRANCH  20  31
ENDBRANCH  19  20
ENDBRANCH   3  19
TORSDOF 7
