REMARK  Name = ZINC59015369
REMARK  7 active torsions:
REMARK  status: ('A' for Active; 'I' for Inactive)
REMARK    1  A    between atoms: C_3  and  O_29
REMARK    2  A    between atoms: C_6  and  C_7
REMARK    3  A    between atoms: N_8  and  N_9
REMARK    4  A    between atoms: C_12  and  S_15
REMARK    5  A    between atoms: S_15  and  C_16
REMARK    6  A    between atoms: C_16  and  C_17
REMARK    7  A    between atoms: C_17  and  C_19
REMARK                            x       y       z     vdW  Elec       q    Type
REMARK                         _______ _______ _______ _____ _____    ______ ____
ROOT
ATOM      1  N   UNL     1      -2.396  -2.800  -0.741  0.00  0.00    -0.205 N 
ATOM      2  C   UNL     1      -2.381  -4.180  -0.648  0.00  0.00    +0.232 A 
ATOM      3  N   UNL     1      -1.318  -4.931  -0.452  0.00  0.00    -0.186 NA
ATOM      4  C   UNL     1      -1.677  -6.219  -0.417  0.00  0.00    +0.210 A 
ATOM      5  N   UNL     1      -2.975  -6.304  -0.591  0.00  0.00    -0.144 NA
ATOM      6  N   UNL     1      -3.455  -4.993  -0.738  0.00  0.00    -0.245 N 
ATOM      7  H   UNL     1      -3.233  -2.333  -0.883  0.00  0.00    +0.177 HD
ATOM      8  H   UNL     1      -4.377  -4.724  -0.877  0.00  0.00    +0.192 HD
ENDROOT
BRANCH   1  10
ATOM      9  C   UNL     1      -1.214  -0.783  -0.717  0.00  0.00    +0.138 C 
ATOM     10  N   UNL     1      -1.200  -2.078  -0.630  0.00  0.00    -0.188 NA
BRANCH   9  16
ATOM     11  C   UNL     1       0.032   1.371  -0.693  0.00  0.00    +0.013 A 
ATOM     12  C   UNL     1       1.210   2.077  -0.582  0.00  0.00    +0.046 A 
ATOM     13  C   UNL     1       2.408   1.405  -0.379  0.00  0.00    +0.117 A 
ATOM     14  C   UNL     1       2.425   0.020  -0.286  0.00  0.00    +0.046 A 
ATOM     15  C   UNL     1       1.252  -0.695  -0.395  0.00  0.00    +0.013 A 
ATOM     16  C   UNL     1       0.044  -0.023  -0.600  0.00  0.00    -0.005 A 
BRANCH  13  17
ATOM     17  O   UNL     1       3.568   2.106  -0.272  0.00  0.00    -0.507 OA
ATOM     18  H   UNL     1       3.787   2.366   0.633  0.00  0.00    +0.292 HD
ENDBRANCH  13  17
ENDBRANCH   9  16
ENDBRANCH   1  10
BRANCH   4  19
ATOM     19  S   UNL     1      -0.585  -7.580  -0.177  0.00  0.00    -0.077 S 
BRANCH  19  20
ATOM     20  C   UNL     1      -1.673  -9.031  -0.232  0.00  0.00    +0.152 C 
BRANCH  20  21
ATOM     21  C   UNL     1      -0.855 -10.281  -0.037  0.00  0.00    +0.147 C 
ATOM     22  O   UNL     1       0.340 -10.201   0.123  0.00  0.00    -0.296 OA
BRANCH  21  23
ATOM     23  C   UNL     1      -1.526 -11.630  -0.041  0.00  0.00    +0.062 C 
ATOM     24  C   UNL     1      -2.293 -11.822   1.269  0.00  0.00    +0.000 C 
ATOM     25  C   UNL     1      -2.975 -13.192   1.264  0.00  0.00    +0.007 C 
ATOM     26  C   UNL     1      -1.917 -14.288   1.128  0.00  0.00    -0.010 C 
ATOM     27  C   UNL     1      -0.944 -14.207   2.306  0.00  0.00    +0.007 C 
ATOM     28  C   UNL     1      -0.262 -12.837   2.310  0.00  0.00    -0.010 C 
ATOM     29  C   UNL     1      -1.320 -11.741   2.446  0.00  0.00    +0.007 C 
ATOM     30  C   UNL     1       0.505 -12.645   1.000  0.00  0.00    +0.007 C 
ATOM     31  C   UNL     1      -0.468 -12.726  -0.177  0.00  0.00    +0.000 C 
ATOM     32  C   UNL     1      -1.150 -14.096  -0.182  0.00  0.00    +0.007 C 
ENDBRANCH  21  23
ENDBRANCH  20  21
ENDBRANCH  19  20
ENDBRANCH   4  19
TORSDOF 7
