REMARK  Name = ZINC06350831
REMARK  10 active torsions:
REMARK  status: ('A' for Active; 'I' for Inactive)
REMARK    1  A    between atoms: C_1  and  C_2
REMARK    2  A    between atoms: C_2  and  C_3
REMARK    3  A    between atoms: C_3  and  C_5
REMARK    4  A    between atoms: C_3  and  N_6
REMARK    5  A    between atoms: C_7  and  C_9
REMARK    6  A    between atoms: C_9  and  S_10
REMARK    7  A    between atoms: S_10  and  C_11
REMARK    8  A    between atoms: C_15  and  C_19
REMARK    9  A    between atoms: N_22  and  C_23
REMARK   10  A    between atoms: C_28  and  C_29
REMARK                            x       y       z     vdW  Elec       q    Type
REMARK                         _______ _______ _______ _____ _____    ______ ____
ROOT
ATOM      1  C   UNL     1      -2.528   7.606   2.990  0.00  0.00    +0.177 A 
ATOM      2  N   UNL     1      -1.476   8.008   2.320  0.00  0.00    -0.201 NA
ATOM      3  C   UNL     1      -1.147   9.304   2.209  0.00  0.00    +0.187 A 
ATOM      4  C   UNL     1      -1.944  10.277   2.827  0.00  0.00    +0.082 A 
ATOM      5  C   UNL     1      -1.370  11.529   2.549  0.00  0.00    +0.046 A 
ATOM      6  N   UNL     1      -0.305  11.340   1.817  0.00  0.00    -0.279 N 
ATOM      7  N   UNL     1      -0.136   9.969   1.587  0.00  0.00    -0.153 NA
ATOM      8  H   UNL     1       0.295  12.200   1.487  0.00  0.00    +0.189 HD
ATOM      9  C   UNL     1      -1.893  12.863   3.015  0.00  0.00    +0.066 C 
ATOM     10  C   UNL     1      -3.124   9.834   3.581  0.00  0.00    +0.124 A 
ATOM     11  N   UNL     1      -3.911  10.692   4.183  0.00  0.00    -0.384 N 
ATOM     12  N   UNL     1      -3.375   8.471   3.627  0.00  0.00    -0.274 N 
ATOM     13  H   UNL     1      -4.789  10.336   4.742  0.00  0.00    +0.157 HD
ATOM     14  H   UNL     1      -3.693  11.769   4.129  0.00  0.00    +0.157 HD
ENDROOT
BRANCH  12  15
ATOM     15  C   UNL     1      -4.488   7.983   4.324  0.00  0.00    +0.053 A 
ATOM     16  C   UNL     1      -4.375   7.650   5.668  0.00  0.00    +0.026 A 
ATOM     17  C   UNL     1      -5.475   7.174   6.354  0.00  0.00    +0.002 A 
ATOM     18  C   UNL     1      -6.685   7.018   5.701  0.00  0.00    +0.000 A 
ATOM     19  C   UNL     1      -6.798   7.343   4.362  0.00  0.00    +0.005 A 
ATOM     20  C   UNL     1      -5.703   7.825   3.672  0.00  0.00    -0.026 A 
ATOM     21  C   UNL     1      -5.828   8.179   2.212  0.00  0.00    +0.046 C 
ENDBRANCH  12  15
BRANCH   1  22
ATOM     22  S   UNL     1      -2.868   5.878   3.070  0.00  0.00    -0.078 S 
BRANCH  22  23
ATOM     23  C   UNL     1      -1.488   5.240   2.089  0.00  0.00    +0.173 C 
BRANCH  23  25
ATOM     24  N   UNL     1      -0.645   3.040   1.335  0.00  0.00    -0.312 N 
ATOM     25  C   UNL     1      -1.575   3.737   2.018  0.00  0.00    +0.224 C 
ATOM     26  O   UNL     1      -2.481   3.155   2.576  0.00  0.00    -0.275 OA
ATOM     27  H   UNL     1       0.176   3.568   0.829  0.00  0.00    +0.149 HD
BRANCH  24  28
ATOM     28  C   UNL     1      -0.730   1.579   1.266  0.00  0.00    +0.070 C 
ATOM     29  C   UNL     1      -0.065   0.971   2.502  0.00  0.00    +0.028 C 
BRANCH  28  31
ATOM     30  C   UNL     1      -0.753   1.593  -1.233  0.00  0.00    +0.005 C 
ATOM     31  C   UNL     1      -0.013   1.086   0.007  0.00  0.00    +0.018 C 
ENDBRANCH  28  31
ENDBRANCH  24  28
ENDBRANCH  23  25
ENDBRANCH  22  23
ENDBRANCH   1  22
TORSDOF 6
