REMARK  Name = ZINC16027303
REMARK  6 active torsions:
REMARK  status: ('A' for Active; 'I' for Inactive)
REMARK    1  A    between atoms: C_1  and  C_2
REMARK    2  A    between atoms: C_4  and  C_32
REMARK    3  A    between atoms: C_9  and  C_17
REMARK    4  A    between atoms: N_19  and  C_20
REMARK    5  A    between atoms: C_25  and  O_26
REMARK    6  A    between atoms: O_26  and  C_27
REMARK                            x       y       z     vdW  Elec       q    Type
REMARK                         _______ _______ _______ _____ _____    ______ ____
ROOT
ATOM      1  C   UNL     1       0.062  -3.479   0.476  0.00  0.00    +0.044 C 
ATOM      2  C   UNL     1       1.040  -2.425   0.928  0.00  0.00    -0.050 A 
ATOM      3  C   UNL     1       1.791  -2.622   2.072  0.00  0.00    +0.008 A 
ATOM      4  C   UNL     1       2.688  -1.661   2.491  0.00  0.00    -0.029 A 
ATOM      5  C   UNL     1       2.843  -0.483   1.764  0.00  0.00    +0.039 A 
ATOM      6  C   UNL     1       2.082  -0.296   0.614  0.00  0.00    -0.027 A 
ATOM      7  C   UNL     1       1.188  -1.258   0.199  0.00  0.00    +0.008 A 
ATOM      8  C   UNL     1       2.477   1.050   0.068  0.00  0.00    +0.052 C 
ATOM      9  C   UNL     1       1.273   1.993   0.001  0.00  0.00    +0.076 C 
ATOM     10  C   UNL     1       1.423   2.754  -1.330  0.00  0.00    -0.003 C 
ATOM     11  C   UNL     1       2.713   2.219  -1.977  0.00  0.00    -0.066 C 
ATOM     12  C   UNL     1       2.316  -0.112  -2.059  0.00  0.00    -0.077 C 
ATOM     13  C   UNL     1       2.526   0.329  -3.530  0.00  0.00    -0.020 C 
ATOM     14  C   UNL     1       2.418   1.869  -3.449  0.00  0.00    -0.017 C 
ATOM     15  C   UNL     1       3.514   1.566   1.033  0.00  0.00    +0.212 C 
ATOM     16  O   UNL     1       4.098   2.627   0.968  0.00  0.00    -0.277 OA
ATOM     17  N   UNL     1       3.669   0.622   1.980  0.00  0.00    -0.286 N 
ATOM     18  C   UNL     1       3.503  -1.886   3.739  0.00  0.00    +0.045 C 
ATOM     19  H   UNL     1       4.283   0.700   2.727  0.00  0.00    +0.155 HD
ATOM     20  N   UNL     1       2.997   0.965  -1.308  0.00  0.00    +0.394 N 
ATOM     21  H   UNL     1       4.009   0.792  -1.288  0.00  0.00    -0.079 HD
ENDROOT
BRANCH   9  22
ATOM     22  C   UNL     1      -0.010   1.202   0.009  0.00  0.00    +0.220 C 
ATOM     23  O   UNL     1      -0.513   0.853  -1.038  0.00  0.00    -0.275 OA
ATOM     24  N   UNL     1      -0.601   0.888   1.179  0.00  0.00    -0.282 N 
ATOM     25  H   UNL     1      -0.230   1.216   2.013  0.00  0.00    +0.155 HD
BRANCH  24  26
ATOM     26  C   UNL     1      -1.750   0.087   1.190  0.00  0.00    +0.077 A 
ATOM     27  C   UNL     1      -2.579   0.045   0.079  0.00  0.00    +0.047 A 
ATOM     28  C   UNL     1      -3.710  -0.752   0.090  0.00  0.00    +0.043 A 
ATOM     29  C   UNL     1      -4.023  -1.498   1.213  0.00  0.00    +0.024 A 
ATOM     30  C   UNL     1      -3.204  -1.456   2.326  0.00  0.00    +0.049 A 
ATOM     31  C   UNL     1      -2.066  -0.665   2.320  0.00  0.00    +0.141 A 
ATOM     32 CL   UNL     1      -4.742  -0.810  -1.304  0.00  0.00    -0.083 Cl
BRANCH  31  33
ATOM     33  O   UNL     1      -1.260  -0.623   3.414  0.00  0.00    -0.493 OA
ATOM     34  C   UNL     1      -1.646  -1.419   4.535  0.00  0.00    +0.277 C 
ENDBRANCH  31  33
ENDBRANCH  24  26
ENDBRANCH   9  22
TORSDOF 3
