REMARK  Name = ZINC66790503
REMARK  8 active torsions:
REMARK  status: ('A' for Active; 'I' for Inactive)
REMARK    1  A    between atoms: C_1  and  C_2
REMARK    2  A    between atoms: C_2  and  C_4
REMARK    3  A    between atoms: C_2  and  N_17
REMARK    4  A    between atoms: N_6  and  N_7
REMARK    5  A    between atoms: C_8  and  C_10
REMARK    6  A    between atoms: C_10  and  C_11
REMARK    7  A    between atoms: C_18  and  C_20
REMARK    8  A    between atoms: C_21  and  C_22
REMARK                            x       y       z     vdW  Elec       q    Type
REMARK                         _______ _______ _______ _____ _____    ______ ____
ROOT
ATOM      1  C   UNL     1       0.707  -0.490  -1.238  0.00  0.00    +0.249 C 
ATOM      2  O   UNL     1       1.704  -1.174  -1.140  0.00  0.00    -0.272 OA
ATOM      3  N   UNL     1       0.231  -0.164  -2.456  0.00  0.00    -0.233 N 
ATOM      4  H   UNL     1      -0.566   0.383  -2.534  0.00  0.00    +0.173 HD
ENDROOT
BRANCH   3   5
ATOM      5  N   UNL     1       0.887  -0.616  -3.608  0.00  0.00    -0.234 N 
ATOM      6  C   UNL     1       0.410  -0.290  -4.826  0.00  0.00    +0.229 C 
ATOM      7  O   UNL     1      -0.586   0.394  -4.924  0.00  0.00    -0.274 OA
ATOM      8  H   UNL     1       1.684  -1.163  -3.530  0.00  0.00    +0.173 HD
BRANCH   6   9
ATOM      9  C   UNL     1       1.116  -0.776  -6.066  0.00  0.00    +0.101 C 
BRANCH   9  10
ATOM     10  C   UNL     1       0.376  -0.269  -7.306  0.00  0.00    -0.002 C 
ATOM     11  C   UNL     1      -1.018  -0.898  -7.360  0.00  0.00    +0.004 C 
ATOM     12  C   UNL     1      -1.758  -0.391  -8.600  0.00  0.00    +0.000 C 
ATOM     13  C   UNL     1      -0.975  -0.778  -9.855  0.00  0.00    +0.000 C 
ATOM     14  C   UNL     1       0.419  -0.150  -9.801  0.00  0.00    +0.000 C 
ATOM     15  C   UNL     1       1.159  -0.657  -8.561  0.00  0.00    +0.004 C 
ENDBRANCH   9  10
ENDBRANCH   6   9
ENDBRANCH   3   5
BRANCH   1  17
ATOM     16  C   UNL     1      -0.019   1.526   0.010  0.00  0.00    +0.038 C 
ATOM     17  C   UNL     1       0.002  -0.004   0.002  0.00  0.00    +0.158 C 
BRANCH  17  18
ATOM     18  N   UNL     1       0.711  -0.489   1.189  0.00  0.00    -0.301 N 
ATOM     19  C   UNL     1       0.051  -0.633   2.355  0.00  0.00    +0.237 C 
ATOM     20  O   UNL     1      -1.133  -0.360   2.423  0.00  0.00    -0.271 OA
ATOM     21  H   UNL     1       1.654  -0.707   1.135  0.00  0.00    +0.150 HD
BRANCH  19  22
ATOM     22  C   UNL     1       0.759  -1.119   3.542  0.00  0.00    +0.068 C 
ATOM     23  C   UNL     1       0.100  -1.263   4.709  0.00  0.00    +0.013 C 
BRANCH  23  24
ATOM     24  C   UNL     1       0.812  -1.750   5.901  0.00  0.00    -0.025 A 
ATOM     25  C   UNL     1       2.174  -2.060   5.829  0.00  0.00    +0.008 A 
ATOM     26  C   UNL     1       2.833  -2.516   6.951  0.00  0.00    +0.001 A 
ATOM     27  C   UNL     1       2.151  -2.668   8.145  0.00  0.00    +0.000 A 
ATOM     28  C   UNL     1       0.804  -2.364   8.225  0.00  0.00    +0.001 A 
ATOM     29  C   UNL     1       0.131  -1.901   7.113  0.00  0.00    +0.008 A 
ENDBRANCH  23  24
ENDBRANCH  19  22
ENDBRANCH  17  18
ENDBRANCH   1  17
TORSDOF 7
