REMARK  Name = ZINC16534007
REMARK  19 active torsions:
REMARK  status: ('A' for Active; 'I' for Inactive)
REMARK    1  A    between atoms: C_1  and  C_2
REMARK    2  A    between atoms: C_2  and  C_3
REMARK    3  A    between atoms: C_3  and  N_4
REMARK    4  A    between atoms: N_4  and  C_5
REMARK    5  A    between atoms: C_5  and  C_6
REMARK    6  A    between atoms: N_10  and  C_11
REMARK    7  A    between atoms: C_11  and  C_12
REMARK    8  A    between atoms: C_15  and  C_17
REMARK    9  A    between atoms: N_19  and  C_20
REMARK   10  A    between atoms: C_20  and  C_22
REMARK   11  A    between atoms: C_20  and  C_23
REMARK   12  A    between atoms: C_23  and  C_24
REMARK   13  A    between atoms: C_24  and  C_25
REMARK   14  A    between atoms: C_25  and  N_81
REMARK   15  A    between atoms: C_26  and  C_27
REMARK   16  A    between atoms: C_26  and  N_81
REMARK   17  A    between atoms: C_28  and  C_29
REMARK   18  A    between atoms: C_28  and  N_81
REMARK   19  A    between atoms: N_32  and  C_33
REMARK                            x       y       z     vdW  Elec       q    Type
REMARK                         _______ _______ _______ _____ _____    ______ ____
ROOT
ATOM      1  C   UNL     1      -0.254   6.245   2.898  0.00  0.00    +0.037 A 
ATOM      2  C   UNL     1       0.058   6.434   4.196  0.00  0.00    +0.024 A 
ATOM      3  C   UNL     1       1.204   5.662   4.471  0.00  0.00    +0.019 A 
ATOM      4  C   UNL     1       1.544   5.025   3.332  0.00  0.00    +0.086 A 
ATOM      5  N   UNL     1       0.656   5.383   2.362  0.00  0.00    -0.342 N 
ENDROOT
BRANCH   1   6
ATOM      6  C   UNL     1      -1.411   6.876   2.166  0.00  0.00    +0.162 C 
BRANCH   6   7
ATOM      7  N   UNL     1      -0.956   8.096   1.494  0.00  0.00    -0.280 N 
ATOM      8  C   UNL     1      -0.595   8.056   0.196  0.00  0.00    +0.307 C 
ATOM      9  O   UNL     1      -0.737   7.032  -0.443  0.00  0.00    -0.252 OA
ATOM     10  N   UNL     1      -0.078   9.152  -0.393  0.00  0.00    -0.267 N 
ATOM     11  H   UNL     1       0.133   9.935   0.139  0.00  0.00    +0.156 HD
BRANCH  10  12
ATOM     12  C   UNL     1       0.156   9.160  -1.774  0.00  0.00    +0.070 A 
ATOM     13  C   UNL     1      -0.449   8.212  -2.588  0.00  0.00    +0.026 A 
ATOM     14  C   UNL     1      -0.222   8.226  -3.950  0.00  0.00    +0.002 A 
ATOM     15  C   UNL     1       0.617   9.176  -4.504  0.00  0.00    +0.003 A 
ATOM     16  C   UNL     1       1.226  10.119  -3.697  0.00  0.00    +0.040 A 
ATOM     17  C   UNL     1       0.998  10.115  -2.333  0.00  0.00    +0.145 A 
ATOM     18  F   UNL     1       1.594  11.036  -1.545  0.00  0.00    -0.204 F 
ENDBRANCH  10  12
BRANCH   7  19
ATOM     19  C   UNL     1      -0.892   9.359   2.234  0.00  0.00    +0.109 C 
BRANCH  19  21
ATOM     20  C   UNL     1       0.554  10.824   3.650  0.00  0.00    +0.005 C 
ATOM     21  C   UNL     1       0.488   9.505   2.877  0.00  0.00    +0.016 C 
ENDBRANCH  19  21
ENDBRANCH   7  19
ENDBRANCH   6   7
ENDBRANCH   1   6
BRANCH   5  22
ATOM     22  C   UNL     1       0.675   4.916   0.973  0.00  0.00    +0.195 C 
BRANCH  22  23
ATOM     23  C   UNL     1       1.735   3.857   0.814  0.00  0.00    +0.126 A 
ATOM     24  C   UNL     1       1.532   2.523   0.886  0.00  0.00    +0.047 A 
ATOM     25  C   UNL     1       2.776   1.904   0.685  0.00  0.00    +0.055 A 
ATOM     26  C   UNL     1       3.685   2.904   0.491  0.00  0.00    +0.190 A 
ATOM     27  O   UNL     1       3.033   4.083   0.573  0.00  0.00    -0.453 OA
BRANCH  26  28
ATOM     28  C   UNL     1       5.119   2.728   0.238  0.00  0.00    +0.280 C 
ATOM     29  O   UNL     1       5.612   1.617   0.278  0.00  0.00    -0.267 OA
ATOM     30  N   UNL     1       5.890   3.798  -0.039  0.00  0.00    -0.306 N 
ATOM     31  H   UNL     1       5.513   4.691   0.000  0.00  0.00    +0.149 HD
BRANCH  30  32
ATOM     32  C   UNL     1       7.298   3.612  -0.399  0.00  0.00    +0.070 C 
ATOM     33  C   UNL     1       8.130   3.432   0.872  0.00  0.00    +0.028 C 
BRANCH  32  34
ATOM     34  C   UNL     1       7.795   4.841  -1.164  0.00  0.00    +0.020 C 
BRANCH  34  35
ATOM     35  C   UNL     1       7.048   4.950  -2.495  0.00  0.00    -0.017 C 
BRANCH  35  36
ATOM     36  C   UNL     1       7.545   6.178  -3.260  0.00  0.00    -0.079 C 
BRANCH  36  37
ATOM     37  N   UNL     1       6.830   6.258  -4.551  0.00  0.00    +0.379 N 
ATOM     38  H   UNL     1       6.905   5.353  -5.030  0.00  0.00    -0.082 HD
BRANCH  37  39
ATOM     39  C   UNL     1       5.402   6.561  -4.319  0.00  0.00    -0.082 C 
ATOM     40  C   UNL     1       5.252   7.839  -3.493  0.00  0.00    -0.017 C 
ENDBRANCH  37  39
BRANCH  37  41
ATOM     41  C   UNL     1       7.436   7.303  -5.401  0.00  0.00    -0.082 C 
ATOM     42  C   UNL     1       6.806   7.235  -6.793  0.00  0.00    -0.017 C 
ENDBRANCH  37  41
ENDBRANCH  36  37
ENDBRANCH  35  36
ENDBRANCH  34  35
ENDBRANCH  32  34
ENDBRANCH  30  32
ENDBRANCH  26  28
ENDBRANCH  22  23
ENDBRANCH   5  22
TORSDOF 15
