REMARK  Name = ZINC36075094
REMARK  13 active torsions:
REMARK  status: ('A' for Active; 'I' for Inactive)
REMARK    1  A    between atoms: C_1  and  C_2
REMARK    2  A    between atoms: C_2  and  C_3
REMARK    3  A    between atoms: N_9  and  C_10
REMARK    4  A    between atoms: C_10  and  C_11
REMARK    5  A    between atoms: C_11  and  C_12
REMARK    6  A    between atoms: C_12  and  N_13
REMARK    7  A    between atoms: C_14  and  C_16
REMARK    8  A    between atoms: C_31  and  O_40
REMARK    9  A    between atoms: C_32  and  O_37
REMARK   10  A    between atoms: O_37  and  C_38
REMARK   11  A    between atoms: C_38  and  C_39
REMARK   12  A    between atoms: O_40  and  C_41
REMARK   13  A    between atoms: C_41  and  C_42
REMARK                            x       y       z     vdW  Elec       q    Type
REMARK                         _______ _______ _______ _____ _____    ______ ____
ROOT
ATOM      1  C   UNL     1      -3.201   5.314  -6.446  0.00  0.00    +0.130 C 
ATOM      2  C   UNL     1      -2.340   4.497  -7.382  0.00  0.00    -0.021 A 
ATOM      3  C   UNL     1      -2.331   3.123  -7.296  0.00  0.00    +0.005 A 
ATOM      4  C   UNL     1      -1.546   2.381  -8.163  0.00  0.00    +0.000 A 
ATOM      5  C   UNL     1      -0.771   3.018  -9.116  0.00  0.00    +0.001 A 
ATOM      6  C   UNL     1      -0.771   4.393  -9.207  0.00  0.00    +0.013 A 
ATOM      7  C   UNL     1      -1.557   5.151  -8.334  0.00  0.00    +0.041 A 
ATOM      8  C   UNL     1      -1.537   6.623  -8.424  0.00  0.00    +0.247 C 
ATOM      9  O   UNL     1      -0.854   7.146  -9.284  0.00  0.00    -0.270 OA
ATOM     10  N   UNL     1      -2.241   7.408  -7.598  0.00  0.00    -0.289 N 
ATOM     11  C   UNL     1      -3.180   6.839  -6.630  0.00  0.00    +0.123 C 
ATOM     12  C   UNL     1      -2.915   7.466  -5.289  0.00  0.00    -0.019 A 
ATOM     13  C   UNL     1      -3.482   6.863  -4.172  0.00  0.00    +0.055 A 
ATOM     14  C   UNL     1      -3.290   7.393  -2.911  0.00  0.00    +0.162 A 
ATOM     15  C   UNL     1      -2.521   8.543  -2.760  0.00  0.00    +0.162 A 
ATOM     16  C   UNL     1      -1.954   9.137  -3.871  0.00  0.00    +0.053 A 
ATOM     17  C   UNL     1      -2.144   8.598  -5.139  0.00  0.00    -0.037 A 
ATOM     18  C   UNL     1      -1.464   9.289  -6.292  0.00  0.00    +0.054 C 
ATOM     19  C   UNL     1      -2.085   8.868  -7.624  0.00  0.00    +0.113 C 
ENDROOT
BRANCH   1  21
ATOM     20  N   UNL     1      -1.609   5.512  -4.563  0.00  0.00    -0.315 N 
ATOM     21  C   UNL     1      -2.768   5.012  -5.034  0.00  0.00    +0.223 C 
ATOM     22  O   UNL     1      -3.463   4.318  -4.322  0.00  0.00    -0.275 OA
ATOM     23  H   UNL     1      -1.088   6.123  -5.107  0.00  0.00    +0.149 HD
BRANCH  20  24
ATOM     24  C   UNL     1      -1.135   5.134  -3.229  0.00  0.00    +0.102 C 
BRANCH  24  25
ATOM     25  C   UNL     1       0.251   5.735  -2.990  0.00  0.00    +0.000 C 
BRANCH  25  26
ATOM     26  C   UNL     1       0.745   5.339  -1.598  0.00  0.00    -0.077 C 
BRANCH  26  32
ATOM     27  C   UNL     1       2.506   5.621   0.004  0.00  0.00    -0.069 C 
ATOM     28  C   UNL     1       3.856   6.290   0.274  0.00  0.00    -0.015 C 
ATOM     29  C   UNL     1       4.893   5.750  -0.715  0.00  0.00    -0.003 C 
ATOM     30  C   UNL     1       4.399   5.997  -2.143  0.00  0.00    -0.019 C 
ATOM     31  C   UNL     1       3.029   5.339  -2.324  0.00  0.00    -0.078 C 
ATOM     32  N   UNL     1       2.076   5.917  -1.368  0.00  0.00    +0.382 N 
ATOM     33  H   UNL     1       2.034   6.916  -1.498  0.00  0.00    -0.081 HD
BRANCH  27  35
ATOM     34  C   UNL     1       1.891   5.809   2.418  0.00  0.00    +0.002 C 
ATOM     35  C   UNL     1       1.466   6.157   0.990  0.00  0.00    -0.019 C 
ENDBRANCH  27  35
ENDBRANCH  26  32
ENDBRANCH  25  26
ENDBRANCH  24  25
ENDBRANCH  20  24
ENDBRANCH   1  21
BRANCH  15  36
ATOM     36  O   UNL     1      -2.328   9.080  -1.525  0.00  0.00    -0.489 OA
BRANCH  36  37
ATOM     37  C   UNL     1      -1.527  10.261  -1.449  0.00  0.00    +0.226 C 
ATOM     38  C   UNL     1      -1.424  10.714   0.009  0.00  0.00    +0.048 C 
ENDBRANCH  36  37
ENDBRANCH  15  36
BRANCH  14  39
ATOM     39  O   UNL     1      -3.848   6.795  -1.824  0.00  0.00    -0.489 OA
BRANCH  39  40
ATOM     40  C   UNL     1      -4.533   5.560  -2.044  0.00  0.00    +0.226 C 
ATOM     41  C   UNL     1      -5.212   5.116  -0.747  0.00  0.00    +0.048 C 
ENDBRANCH  39  40
ENDBRANCH  14  39
TORSDOF 10
