REMARK  Name = ZINC39465469
REMARK  4 active torsions:
REMARK  status: ('A' for Active; 'I' for Inactive)
REMARK    1  A    between atoms: C_1  and  C_2
REMARK    2  A    between atoms: C_2  and  O_3
REMARK    3  A    between atoms: O_3  and  C_4
REMARK    4  A    between atoms: C_9  and  O_10
REMARK                            x       y       z     vdW  Elec       q    Type
REMARK                         _______ _______ _______ _____ _____    ______ ____
ROOT
ATOM      1  C   UNL     1       0.777  -1.811  -1.336  0.00  0.00    +0.162 A 
ATOM      2  C   UNL     1       0.245  -2.670  -0.391  0.00  0.00    +0.053 A 
ATOM      3  C   UNL     1       0.351  -4.043  -0.552  0.00  0.00    -0.038 A 
ATOM      4  C   UNL     1       0.989  -4.561  -1.660  0.00  0.00    -0.020 A 
ATOM      5  C   UNL     1       1.523  -3.703  -2.611  0.00  0.00    +0.054 A 
ATOM      6  C   UNL     1       1.415  -2.332  -2.457  0.00  0.00    +0.159 A 
ATOM      7  C   UNL     1       1.128  -6.044  -1.882  0.00  0.00    +0.130 C 
ATOM      8  C   UNL     1       2.543  -6.343  -2.386  0.00  0.00    +0.196 C 
ATOM      9  O   UNL     1       2.632  -7.745  -2.708  0.00  0.00    -0.292 OA
ATOM     10  P   UNL     1       2.122  -8.823  -1.603  0.00  0.00    +0.448 P 
ATOM     11  O   UNL     1       1.748 -10.156  -2.289  0.00  0.00    -0.236 OA
ATOM     12  N   UNL     1       0.785  -8.146  -0.904  0.00  0.00    -0.154 NA
ATOM     13  N   UNL     1       0.857  -6.791  -0.654  0.00  0.00    -0.224 NA
ATOM     14  C   UNL     1      -0.403  -6.347  -0.037  0.00  0.00    +0.108 C 
ATOM     15  C   UNL     1      -0.240  -4.939   0.505  0.00  0.00    +0.052 C 
ATOM     16  O   UNL     1       3.220  -9.060  -0.542  0.00  0.00    -0.126 OA
ATOM     17  H   UNL     1       0.004  -8.676  -0.678  0.00  0.00    +0.153 HD
ENDROOT
BRANCH   6  18
ATOM     18  O   UNL     1       1.937  -1.497  -3.396  0.00  0.00    -0.503 OA
ATOM     19  H   UNL     1       2.857  -1.248  -3.233  0.00  0.00    +0.292 HD
ENDBRANCH   6  18
BRANCH   1  20
ATOM     20  O   UNL     1       0.671  -0.465  -1.174  0.00  0.00    -0.489 OA
BRANCH  20  22
ATOM     21  C   UNL     1      -0.019   1.526   0.010  0.00  0.00    +0.048 C 
ATOM     22  C   UNL     1       0.002  -0.004   0.002  0.00  0.00    +0.226 C 
ENDBRANCH  20  22
ENDBRANCH   1  20
TORSDOF 3
