REMARK  Name = ZINC36104812
REMARK  7 active torsions:
REMARK  status: ('A' for Active; 'I' for Inactive)
REMARK    1  A    between atoms: C_1  and  C_2
REMARK    2  A    between atoms: C_2  and  C_3
REMARK    3  A    between atoms: C_9  and  C_11
REMARK    4  A    between atoms: C_11  and  C_13
REMARK    5  A    between atoms: C_11  and  N_20
REMARK    6  A    between atoms: C_22  and  C_29
REMARK    7  A    between atoms: C_25  and  C_28
REMARK                            x       y       z     vdW  Elec       q    Type
REMARK                         _______ _______ _______ _____ _____    ______ ____
ROOT
ATOM      1  C   UNL     1       4.172  -2.393  -5.702  0.00  0.00    +0.006 C 
ENDROOT
BRANCH   1   8
ATOM      2  C   UNL     1       0.707  -0.490  -1.238  0.00  0.00    +0.152 A 
ATOM      3  N   UNL     1       0.124  -0.743  -2.408  0.00  0.00    -0.205 NA
ATOM      4  C   UNL     1       1.025  -1.146  -3.261  0.00  0.00    +0.199 A 
ATOM      5  N   UNL     1       2.247  -1.167  -2.660  0.00  0.00    -0.170 N 
ATOM      6  N   UNL     1       1.988  -0.724  -1.336  0.00  0.00    -0.146 NA
ATOM      7  C   UNL     1       3.316  -1.572  -3.422  0.00  0.00    +0.282 A 
ATOM      8  C   UNL     1       3.147  -1.926  -4.701  0.00  0.00    +0.050 A 
ATOM      9  S   UNL     1       1.388  -1.698  -4.910  0.00  0.00    -0.050 S 
ATOM     10  O   UNL     1       4.559  -1.612  -2.870  0.00  0.00    -0.265 OA
BRANCH   2  12
ATOM     11  C   UNL     1      -0.019   1.526   0.010  0.00  0.00    +0.012 C 
ATOM     12  C   UNL     1       0.002  -0.004   0.002  0.00  0.00    +0.075 C 
ENDBRANCH   2  12
ENDBRANCH   1   8
BRANCH   1  13
ATOM     13  N   UNL     1       4.112  -1.541  -6.898  0.00  0.00    +0.388 N 
ATOM     14  C   UNL     1       5.104  -2.002  -7.876  0.00  0.00    -0.074 C 
ATOM     15  C   UNL     1       4.990  -1.170  -9.155  0.00  0.00    -0.031 C 
ATOM     16  C   UNL     1       5.245   0.303  -8.823  0.00  0.00    +0.003 C 
ATOM     17  C   UNL     1       4.252   0.753  -7.748  0.00  0.00    -0.031 C 
ATOM     18  C   UNL     1       4.393  -0.150  -6.521  0.00  0.00    -0.074 C 
ATOM     19  C   UNL     1       4.547   2.201  -7.354  0.00  0.00    +0.005 C 
ATOM     20  C   UNL     1       3.587  -1.327  -9.744  0.00  0.00    +0.005 C 
ATOM     21  H   UNL     1       3.190  -1.598  -7.304  0.00  0.00    -0.080 HD
ENDBRANCH   1  13
BRANCH   1  22
ATOM     22  C   UNL     1       3.884  -3.821  -6.088  0.00  0.00    -0.056 A 
ATOM     23  C   UNL     1       2.903  -4.100  -7.021  0.00  0.00    +0.004 A 
ATOM     24  C   UNL     1       2.638  -5.409  -7.375  0.00  0.00    +0.020 A 
ATOM     25  C   UNL     1       3.354  -6.441  -6.795  0.00  0.00    +0.041 A 
ATOM     26  C   UNL     1       4.336  -6.161  -5.861  0.00  0.00    +0.020 A 
ATOM     27  C   UNL     1       4.604  -4.851  -5.512  0.00  0.00    +0.004 A 
ATOM     28 CL   UNL     1       3.022  -8.086  -7.239  0.00  0.00    -0.084 Cl
ENDBRANCH   1  22
TORSDOF 4
