REMARK  Name = ZINC63362887
REMARK  5 active torsions:
REMARK  status: ('A' for Active; 'I' for Inactive)
REMARK    1  A    between atoms: C_1  and  C_2
REMARK    2  A    between atoms: C_2  and  C_3
REMARK    3  A    between atoms: C_6  and  N_9
REMARK    4  A    between atoms: C_10  and  C_12
REMARK    5  A    between atoms: N_13  and  N_14
REMARK                            x       y       z     vdW  Elec       q    Type
REMARK                         _______ _______ _______ _____ _____    ______ ____
ROOT
ATOM      1  N   UNL     1       6.664  -2.675  -7.126  0.00  0.00    -0.183 N 
ATOM      2  C   UNL     1       5.934  -2.918  -8.384  0.00  0.00    +0.230 C 
ATOM      3  C   UNL     1       6.573  -2.091  -9.479  0.00  0.00    +0.236 C 
ATOM      4  O   UNL     1       5.904  -1.477 -10.284  0.00  0.00    -0.274 OA
ATOM      5  N   UNL     1       7.946  -2.067  -9.519  0.00  0.00    -0.286 N 
ATOM      6  C   UNL     1       8.565  -1.139 -10.455  0.00  0.00    +0.137 C 
ATOM      7  C   UNL     1      10.005  -1.534 -10.779  0.00  0.00    +0.124 C 
ATOM      8  C   UNL     1      10.657  -1.874  -9.441  0.00  0.00    -0.035 C 
ATOM      9  C   UNL     1      11.667  -1.030  -9.283  0.00  0.00    -0.001 A 
ATOM     10  C   UNL     1      12.669  -0.891  -8.214  0.00  0.00    +0.010 A 
ATOM     11  C   UNL     1      13.581   0.105  -8.373  0.00  0.00    +0.001 A 
ATOM     12  C   UNL     1      13.596   0.966  -9.474  0.00  0.00    +0.002 A 
ATOM     13  C   UNL     1      12.713   0.910 -10.503  0.00  0.00    +0.026 A 
ATOM     14  C   UNL     1      11.707  -0.099 -10.451  0.00  0.00    +0.043 A 
ATOM     15  N   UNL     1      10.748  -0.384 -11.309  0.00  0.00    -0.376 N 
ATOM     16  C   UNL     1      10.115  -2.972  -8.566  0.00  0.00    +0.065 C 
ATOM     17  C   UNL     1       8.609  -2.931  -8.565  0.00  0.00    +0.168 C 
ATOM     18  C   UNL     1       8.028  -2.698  -7.192  0.00  0.00    +0.256 C 
ATOM     19  O   UNL     1       8.726  -2.546  -6.213  0.00  0.00    -0.272 OA
ATOM     20  H   UNL     1      10.558   0.078 -12.141  0.00  0.00    +0.160 HD
ENDROOT
BRANCH   1  22
ATOM     21  C   UNL     1       4.694  -2.518  -5.872  0.00  0.00    +0.198 C 
ATOM     22  N   UNL     1       5.991  -2.428  -5.923  0.00  0.00    -0.180 NA
BRANCH  21  24
ATOM     23  N   UNL     1       2.648  -2.372  -4.554  0.00  0.00    -0.281 N 
ATOM     24  C   UNL     1       3.991  -2.278  -4.607  0.00  0.00    +0.261 C 
ATOM     25  O   UNL     1       4.621  -1.993  -3.605  0.00  0.00    -0.269 OA
ATOM     26  H   UNL     1       2.152  -2.669  -5.333  0.00  0.00    +0.155 HD
BRANCH  23  30
ATOM     27  C   UNL     1       0.628  -1.387  -1.047  0.00  0.00    -0.048 A 
ATOM     28  C   UNL     1       0.161  -2.414  -1.847  0.00  0.00    +0.005 A 
ATOM     29  C   UNL     1       0.828  -2.743  -3.011  0.00  0.00    +0.023 A 
ATOM     30  C   UNL     1       1.970  -2.041  -3.377  0.00  0.00    +0.034 A 
ATOM     31  C   UNL     1       2.436  -1.010  -2.571  0.00  0.00    +0.023 A 
ATOM     32  C   UNL     1       1.761  -0.683  -1.411  0.00  0.00    +0.005 A 
BRANCH  27  34
ATOM     33  C   UNL     1      -1.167   0.025  -0.082  0.00  0.00    +0.009 C 
ATOM     34  C   UNL     1      -0.103  -1.031   0.222  0.00  0.00    +0.032 C 
ENDBRANCH  27  34
ENDBRANCH  23  30
ENDBRANCH  21  24
ENDBRANCH   1  22
TORSDOF 4
