REMARK  Name = ZINC35778561
REMARK  14 active torsions:
REMARK  status: ('A' for Active; 'I' for Inactive)
REMARK    1  A    between atoms: C_1  and  C_2
REMARK    2  A    between atoms: C_6  and  O_8
REMARK    3  A    between atoms: O_8  and  C_9
REMARK    4  A    between atoms: C_9  and  C_10
REMARK    5  A    between atoms: C_20  and  C_22
REMARK    6  A    between atoms: C_22  and  N_23
REMARK    7  A    between atoms: N_23  and  C_24
REMARK    8  A    between atoms: N_23  and  C_34
REMARK    9  A    between atoms: C_24  and  C_25
REMARK   10  A    between atoms: C_25  and  C_27
REMARK   11  A    between atoms: C_25  and  O_33
REMARK   12  A    between atoms: C_34  and  C_35
REMARK   13  A    between atoms: C_35  and  C_36
REMARK   14  A    between atoms: C_35  and  C_37
REMARK                            x       y       z     vdW  Elec       q    Type
REMARK                         _______ _______ _______ _____ _____    ______ ____
ROOT
ATOM      1  C   UNL     1       2.169  -3.241   2.322  0.00  0.00    +0.144 C 
ATOM      2  C   UNL     1       0.812  -2.587   2.577  0.00  0.00    -0.014 A 
ATOM      3  C   UNL     1      -0.228  -2.603   1.649  0.00  0.00    +0.013 A 
ATOM      4  C   UNL     1      -1.403  -1.999   1.941  0.00  0.00    +0.046 A 
ATOM      5  S   UNL     1      -1.093  -1.363   3.581  0.00  0.00    -0.101 S 
ATOM      6  C   UNL     1       0.572  -1.950   3.755  0.00  0.00    -0.004 A 
ATOM      7  C   UNL     1       1.496  -1.790   4.918  0.00  0.00    +0.061 C 
ATOM      8  C   UNL     1       2.927  -2.104   4.456  0.00  0.00    +0.113 C 
ATOM      9  N   UNL     1       2.886  -3.303   3.603  0.00  0.00    -0.292 N 
ATOM     10  C   UNL     1       3.496  -4.440   3.991  0.00  0.00    +0.200 C 
ATOM     11  O   UNL     1       3.455  -5.423   3.282  0.00  0.00    -0.278 OA
ENDROOT
BRANCH   1  12
ATOM     12  C   UNL     1       2.968  -2.405   1.321  0.00  0.00    +0.256 C 
BRANCH  12  13
ATOM     13  O   UNL     1       3.052  -1.056   1.786  0.00  0.00    -0.490 OA
BRANCH  13  19
ATOM     14  C   UNL     1       4.678   3.483   1.030  0.00  0.00    +0.044 C 
ATOM     15  C   UNL     1       4.547   2.043   0.605  0.00  0.00    -0.047 A 
ATOM     16  C   UNL     1       5.120   1.617  -0.579  0.00  0.00    +0.003 A 
ATOM     17  C   UNL     1       5.002   0.297  -0.971  0.00  0.00    +0.004 A 
ATOM     18  C   UNL     1       4.309  -0.601  -0.181  0.00  0.00    +0.045 A 
ATOM     19  C   UNL     1       3.733  -0.175   1.007  0.00  0.00    +0.121 A 
ATOM     20  C   UNL     1       3.859   1.149   1.402  0.00  0.00    +0.049 A 
ENDBRANCH  13  19
ENDBRANCH  12  13
ENDBRANCH   1  12
BRANCH  10  21
ATOM     21  C   UNL     1       4.229  -4.491   5.307  0.00  0.00    +0.019 C 
BRANCH  21  22
ATOM     22  N   UNL     1       4.642  -5.873   5.585  0.00  0.00    +0.387 N 
ATOM     23  H   UNL     1       4.956  -6.308   4.730  0.00  0.00    -0.081 HD
BRANCH  22  24
ATOM     24  C   UNL     1       5.737  -5.870   6.564  0.00  0.00    -0.042 C 
BRANCH  24  25
ATOM     25  C   UNL     1       6.477  -7.208   6.505  0.00  0.00    +0.128 C 
BRANCH  25  26
ATOM     26  C   UNL     1       7.724  -7.129   7.348  0.00  0.00    -0.021 A 
ATOM     27  C   UNL     1       7.658  -7.383   8.705  0.00  0.00    +0.006 A 
ATOM     28  C   UNL     1       8.802  -7.310   9.478  0.00  0.00    +0.000 A 
ATOM     29  C   UNL     1      10.011  -6.985   8.894  0.00  0.00    +0.000 A 
ATOM     30  C   UNL     1      10.078  -6.733   7.536  0.00  0.00    +0.000 A 
ATOM     31  C   UNL     1       8.935  -6.809   6.763  0.00  0.00    +0.006 A 
ENDBRANCH  25  26
BRANCH  25  32
ATOM     32  O   UNL     1       5.629  -8.244   7.004  0.00  0.00    -0.389 OA
ATOM     33  H   UNL     1       5.347  -8.114   7.920  0.00  0.00    +0.210 HD
ENDBRANCH  25  32
ENDBRANCH  24  25
ENDBRANCH  22  24
BRANCH  22  34
ATOM     34  C   UNL     1       3.502  -6.626   6.126  0.00  0.00    -0.075 C 
BRANCH  34  35
ATOM     35  C   UNL     1       2.558  -7.012   4.986  0.00  0.00    -0.034 C 
ATOM     36  C   UNL     1       3.259  -8.006   4.058  0.00  0.00    +0.005 C 
ATOM     37  C   UNL     1       1.297  -7.658   5.565  0.00  0.00    +0.005 C 
ENDBRANCH  34  35
ENDBRANCH  22  34
ENDBRANCH  21  22
ENDBRANCH  10  21
TORSDOF 11
