REMARK  Name = ZINC44901619
REMARK  10 active torsions:
REMARK  status: ('A' for Active; 'I' for Inactive)
REMARK    1  A    between atoms: C_1  and  C_2
REMARK    2  A    between atoms: C_2  and  C_3
REMARK    3  A    between atoms: N_9  and  C_10
REMARK    4  A    between atoms: C_10  and  C_11
REMARK    5  A    between atoms: C_11  and  C_12
REMARK    6  A    between atoms: C_12  and  N_13
REMARK    7  A    between atoms: C_14  and  C_16
REMARK    8  A    between atoms: N_19  and  S_22
REMARK    9  A    between atoms: S_22  and  C_25
REMARK   10  A    between atoms: C_25  and  C_26
REMARK                            x       y       z     vdW  Elec       q    Type
REMARK                         _______ _______ _______ _____ _____    ______ ____
ROOT
ATOM      1  C   UNL     1      -3.499   5.794  -5.484  0.00  0.00    +0.077 C 
ATOM      2  C   UNL     1      -2.916   5.467  -6.861  0.00  0.00    +0.030 C 
ATOM      3  C   UNL     1      -3.897   5.918  -7.947  0.00  0.00    +0.110 C 
ATOM      4  N   UNL     1      -4.206   7.340  -7.745  0.00  0.00    -0.181 NA
ATOM      5  C   UNL     1      -4.688   7.778  -6.428  0.00  0.00    +0.110 C 
ATOM      6  C   UNL     1      -3.697   7.307  -5.359  0.00  0.00    +0.030 C 
ENDROOT
BRANCH   1   8
ATOM      7  N   UNL     1      -2.227   4.016  -4.328  0.00  0.00    -0.315 N 
ATOM      8  C   UNL     1      -2.551   5.322  -4.412  0.00  0.00    +0.216 C 
ATOM      9  O   UNL     1      -2.081   6.116  -3.626  0.00  0.00    -0.276 OA
ATOM     10  H   UNL     1      -2.603   3.381  -4.957  0.00  0.00    +0.149 HD
BRANCH   7  11
ATOM     11  C   UNL     1      -1.305   3.557  -3.286  0.00  0.00    +0.102 C 
BRANCH  11  12
ATOM     12  C   UNL     1      -1.107   2.045  -3.411  0.00  0.00    +0.000 C 
BRANCH  12  13
ATOM     13  C   UNL     1      -0.145   1.565  -2.322  0.00  0.00    -0.077 C 
BRANCH  13  19
ATOM     14  C   UNL     1       0.869  -0.365  -1.325  0.00  0.00    -0.069 C 
ATOM     15  C   UNL     1       1.002  -1.888  -1.401  0.00  0.00    -0.015 C 
ATOM     16  C   UNL     1       1.666  -2.271  -2.727  0.00  0.00    -0.003 C 
ATOM     17  C   UNL     1       0.838  -1.703  -3.883  0.00  0.00    -0.019 C 
ATOM     18  C   UNL     1       0.711  -0.187  -3.716  0.00  0.00    -0.078 C 
ATOM     19  N   UNL     1       0.045   0.113  -2.442  0.00  0.00    +0.382 N 
ATOM     20  H   UNL     1      -0.853  -0.345  -2.417  0.00  0.00    -0.081 HD
BRANCH  14  22
ATOM     21  C   UNL     1       1.093  -0.424   1.163  0.00  0.00    +0.002 C 
ATOM     22  C   UNL     1       0.207   0.023  -0.002  0.00  0.00    -0.019 C 
ENDBRANCH  14  22
ENDBRANCH  13  19
ENDBRANCH  12  13
ENDBRANCH  11  12
ENDBRANCH   7  11
ENDBRANCH   1   8
BRANCH   4  23
ATOM     23  S   UNL     1      -4.013   8.428  -8.979  0.00  0.00    +0.036 S 
ATOM     24  O   UNL     1      -3.789   9.673  -8.332  0.00  0.00    -0.158 OA
ATOM     25  O   UNL     1      -3.017   7.857  -9.815  0.00  0.00    -0.158 OA
BRANCH  23  26
ATOM     26  C   UNL     1      -5.612   8.449  -9.836  0.00  0.00    +0.220 C 
BRANCH  26  27
ATOM     27  C   UNL     1      -5.551   9.416 -10.989  0.00  0.00    -0.024 A 
ATOM     28  C   UNL     1      -5.892  10.743 -10.798  0.00  0.00    +0.005 A 
ATOM     29  C   UNL     1      -5.837  11.631 -11.856  0.00  0.00    +0.001 A 
ATOM     30  C   UNL     1      -5.440  11.193 -13.105  0.00  0.00    +0.015 A 
ATOM     31  C   UNL     1      -5.098   9.867 -13.297  0.00  0.00    +0.018 A 
ATOM     32  C   UNL     1      -5.149   8.979 -12.237  0.00  0.00    +0.020 A 
ATOM     33 BR   UNL     1      -4.556   9.268 -15.007  0.00  0.00    -0.050 Br
ENDBRANCH  26  27
ENDBRANCH  23  26
ENDBRANCH   4  23
TORSDOF 9
