REMARK  Name = ZINC07497023
REMARK  6 active torsions:
REMARK  status: ('A' for Active; 'I' for Inactive)
REMARK    1  A    between atoms: C_1  and  C_2
REMARK    2  A    between atoms: C_15  and  C_17
REMARK    3  A    between atoms: C_17  and  N_54
REMARK    4  A    between atoms: C_18  and  C_19
REMARK    5  A    between atoms: C_18  and  C_25
REMARK    6  A    between atoms: C_18  and  N_54
REMARK                            x       y       z     vdW  Elec       q    Type
REMARK                         _______ _______ _______ _____ _____    ______ ____
ROOT
ATOM      1  C   UNL     1      -0.013   1.086   0.008  0.00  0.00    +0.017 C 
ENDROOT
BRANCH   1  15
ATOM      2  C   UNL     1      -1.738   0.575   4.278  0.00  0.00    +0.029 C 
ATOM      3  C   UNL     1      -0.913   1.716   3.679  0.00  0.00    +0.087 C 
ATOM      4  C   UNL     1       0.119   2.180   4.702  0.00  0.00    +0.118 C 
ATOM      5  C   UNL     1       1.178   3.009   4.024  0.00  0.00    +0.219 C 
ATOM      6  O   UNL     1       1.173   4.215   4.154  0.00  0.00    -0.275 OA
ATOM      7  N   UNL     1       2.133   2.418   3.273  0.00  0.00    -0.284 N 
ATOM      8  C   UNL     1       2.097   1.040   3.035  0.00  0.00    +0.055 A 
ATOM      9  C   UNL     1       3.231   0.262   3.197  0.00  0.00    +0.025 A 
ATOM     10  C   UNL     1       3.187  -1.089   2.903  0.00  0.00    +0.002 A 
ATOM     11  C   UNL     1       2.014  -1.664   2.447  0.00  0.00    +0.002 A 
ATOM     12  C   UNL     1       0.875  -0.896   2.293  0.00  0.00    +0.025 A 
ATOM     13  C   UNL     1       0.909   0.456   2.594  0.00  0.00    +0.058 A 
ATOM     14  N   UNL     1      -0.242   1.246   2.466  0.00  0.00    -0.268 N 
ATOM     15  C   UNL     1      -0.718   1.572   1.248  0.00  0.00    +0.203 C 
ATOM     16  O   UNL     1      -1.715   2.256   1.150  0.00  0.00    -0.277 OA
ATOM     17  H   UNL     1       2.848   2.954   2.896  0.00  0.00    +0.155 HD
ENDBRANCH   1  15
BRANCH   1  18
ATOM     18  N   UNL     1      -0.732   1.579  -1.182  0.00  0.00    +0.392 N 
ATOM     19  H   UNL     1      -0.746   2.605  -1.168  0.00  0.00    -0.084 HD
ATOM     20  H   UNL     1      -1.695   1.223  -1.167  0.00  0.00    -0.084 HD
BRANCH  18  21
ATOM     21  C   UNL     1      -0.062   1.117  -2.413  0.00  0.00    -0.009 C 
BRANCH  21  22
ATOM     22  C   UNL     1      -0.552  -0.264  -2.764  0.00  0.00    -0.057 A 
ATOM     23  C   UNL     1      -1.886  -0.587  -2.600  0.00  0.00    +0.002 A 
ATOM     24  C   UNL     1      -2.337  -1.852  -2.927  0.00  0.00    +0.000 A 
ATOM     25  C   UNL     1      -1.451  -2.798  -3.409  0.00  0.00    +0.000 A 
ATOM     26  C   UNL     1      -0.116  -2.477  -3.569  0.00  0.00    +0.000 A 
ATOM     27  C   UNL     1       0.333  -1.210  -3.246  0.00  0.00    +0.002 A 
ENDBRANCH  21  22
BRANCH  21  28
ATOM     28  C   UNL     1      -0.386   2.067  -3.537  0.00  0.00    -0.057 A 
ATOM     29  C   UNL     1      -1.662   2.583  -3.661  0.00  0.00    +0.002 A 
ATOM     30  C   UNL     1      -1.958   3.457  -4.690  0.00  0.00    +0.000 A 
ATOM     31  C   UNL     1      -0.980   3.808  -5.601  0.00  0.00    +0.000 A 
ATOM     32  C   UNL     1       0.295   3.288  -5.481  0.00  0.00    +0.000 A 
ATOM     33  C   UNL     1       0.592   2.417  -4.449  0.00  0.00    +0.002 A 
ENDBRANCH  21  28
ENDBRANCH  18  21
ENDBRANCH   1  18
TORSDOF 5
