REMARK  Name = ZINC57719953
REMARK  5 active torsions:
REMARK  status: ('A' for Active; 'I' for Inactive)
REMARK    1  A    between atoms: N_11  and  C_14
REMARK    2  A    between atoms: C_14  and  C_15
REMARK    3  A    between atoms: C_15  and  C_17
REMARK    4  A    between atoms: C_15  and  O_25
REMARK    5  A    between atoms: C_17  and  C_18
REMARK                            x       y       z     vdW  Elec       q    Type
REMARK                         _______ _______ _______ _____ _____    ______ ____
ROOT
ATOM      1  C   UNL     1      -0.017   1.378   0.010  0.00  0.00    +0.002 A 
ATOM      2  C   UNL     1       1.167   2.094   0.002  0.00  0.00    +0.002 A 
ATOM      3  C   UNL     1       2.380   1.430  -0.025  0.00  0.00    +0.028 A 
ATOM      4  C   UNL     1       2.406   0.049  -0.045  0.00  0.00    +0.067 A 
ATOM      5  C   UNL     1       1.213  -0.679  -0.014  0.00  0.00    +0.052 A 
ATOM      6  C   UNL     1       0.002  -0.004   0.002  0.00  0.00    +0.025 A 
ATOM      7  N   UNL     1       1.245  -2.079   0.035  0.00  0.00    -0.331 N 
ATOM      8  C   UNL     1       2.367  -2.813  -0.564  0.00  0.00    +0.069 C 
ATOM      9  C   UNL     1       2.482  -4.193   0.085  0.00  0.00    +0.013 C 
ATOM     10  C   UNL     1       1.222  -5.005  -0.228  0.00  0.00    -0.076 C 
ATOM     11  N   UNL     1       1.079  -5.149  -1.682  0.00  0.00    +0.381 N 
ATOM     12  C   UNL     1       0.890  -3.830  -2.299  0.00  0.00    -0.076 C 
ATOM     13  C   UNL     1       2.136  -2.972  -2.067  0.00  0.00    +0.013 C 
ATOM     14  C   UNL     1       3.630  -2.026  -0.320  0.00  0.00    +0.047 A 
ATOM     15  N   UNL     1       3.612  -0.667  -0.092  0.00  0.00    -0.316 N 
ATOM     16  C   UNL     1       4.887  -0.238   0.066  0.00  0.00    +0.092 A 
ATOM     17  C   UNL     1       5.707  -1.308  -0.037  0.00  0.00    +0.020 A 
ATOM     18  C   UNL     1       4.900  -2.442  -0.279  0.00  0.00    +0.025 A 
ATOM     19  H   UNL     1       0.524  -2.564   0.465  0.00  0.00    +0.147 HD
ATOM     20  H   UNL     1       1.910  -5.580  -2.060  0.00  0.00    -0.082 HD
ENDROOT
BRANCH  11  21
ATOM     21  C   UNL     1      -0.085  -5.996  -1.976  0.00  0.00    -0.047 C 
BRANCH  21  22
ATOM     22  C   UNL     1      -0.163  -6.250  -3.482  0.00  0.00    +0.102 C 
BRANCH  22  23
ATOM     23  O   UNL     1       0.973  -7.011  -3.897  0.00  0.00    -0.393 OA
ATOM     24  H   UNL     1       1.047  -7.874  -3.466  0.00  0.00    +0.210 HD
ENDBRANCH  22  23
BRANCH  22  25
ATOM     25  C   UNL     1      -1.442  -7.027  -3.803  0.00  0.00    +0.064 C 
BRANCH  25  26
ATOM     26  C   UNL     1      -1.582  -7.170  -5.296  0.00  0.00    -0.045 A 
ATOM     27  C   UNL     1      -2.254  -6.206  -6.023  0.00  0.00    +0.005 A 
ATOM     28  C   UNL     1      -2.382  -6.337  -7.393  0.00  0.00    +0.015 A 
ATOM     29  C   UNL     1      -1.837  -7.433  -8.037  0.00  0.00    +0.018 A 
ATOM     30  C   UNL     1      -1.164  -8.398  -7.309  0.00  0.00    +0.015 A 
ATOM     31  C   UNL     1      -1.032  -8.264  -5.940  0.00  0.00    +0.005 A 
ATOM     32 BR   UNL     1      -2.013  -7.614  -9.911  0.00  0.00    -0.050 Br
ENDBRANCH  25  26
ENDBRANCH  22  25
ENDBRANCH  21  22
ENDBRANCH  11  21
TORSDOF 5
