REMARK  Name = ZINC05275528
REMARK  7 active torsions:
REMARK  status: ('A' for Active; 'I' for Inactive)
REMARK    1  A    between atoms: C_1  and  C_2
REMARK    2  A    between atoms: C_15  and  O_31
REMARK    3  A    between atoms: C_18  and  C_30
REMARK    4  A    between atoms: C_23  and  C_25
REMARK    5  A    between atoms: C_25  and  C_27
REMARK    6  A    between atoms: C_25  and  O_29
REMARK    7  A    between atoms: C_27  and  O_28
REMARK                            x       y       z     vdW  Elec       q    Type
REMARK                         _______ _______ _______ _____ _____    ______ ____
ROOT
ATOM      1  C   UNL     1       0.999  -0.364  -0.966  0.00  0.00    +0.016 C 
ATOM      2  C   UNL     1       0.622  -0.300   0.516  0.00  0.00    -0.005 C 
ATOM      3  C   UNL     1       1.629   0.543   1.289  0.00  0.00    +0.019 C 
ATOM      4  C   UNL     1       1.601   1.993   0.804  0.00  0.00    +0.080 C 
ATOM      5  C   UNL     1       0.191   2.521   0.871  0.00  0.00    +0.156 C 
ATOM      6  O   UNL     1      -0.005   3.715   0.975  0.00  0.00    -0.293 OA
ATOM      7  C   UNL     1      -0.940   1.600   0.809  0.00  0.00    +0.046 C 
ATOM      8  C   UNL     1      -0.762   0.293   0.646  0.00  0.00    -0.060 C 
ATOM      9  C   UNL     1      -1.957  -0.628   0.580  0.00  0.00    +0.032 C 
ATOM     10  C   UNL     1      -1.868  -1.657   1.709  0.00  0.00    +0.008 C 
ATOM     11  C   UNL     1      -0.443  -1.729   2.237  0.00  0.00    -0.001 C 
ATOM     12  C   UNL     1       0.571  -1.724   1.095  0.00  0.00    +0.031 C 
ATOM     13  C   UNL     1       1.941  -2.166   1.584  0.00  0.00    +0.119 C 
ATOM     14  C   UNL     1       1.938  -3.610   2.111  0.00  0.00    +0.039 C 
ATOM     15  C   UNL     1       0.561  -4.036   2.539  0.00  0.00    -0.021 C 
ATOM     16  C   UNL     1      -0.213  -2.870   3.185  0.00  0.00    -0.001 C 
ATOM     17  C   UNL     1      -1.473  -3.571   3.718  0.00  0.00    +0.005 C 
ATOM     18  C   UNL     1      -0.957  -4.954   4.197  0.00  0.00    +0.007 C 
ATOM     19  C   UNL     1       0.490  -5.096   3.655  0.00  0.00    +0.026 C 
ATOM     20  C   UNL     1      -0.202  -4.626   1.341  0.00  0.00    +0.012 C 
ENDROOT
BRANCH  13  21
ATOM     21  O   UNL     1       2.895  -2.088   0.517  0.00  0.00    -0.391 OA
ATOM     22  H   UNL     1       3.789  -2.358   0.769  0.00  0.00    +0.210 HD
ENDBRANCH  13  21
BRANCH  19  23
ATOM     23  C   UNL     1       1.490  -4.825   4.774  0.00  0.00    +0.143 C 
BRANCH  23  24
ATOM     24  O   UNL     1       2.819  -4.979   4.272  0.00  0.00    -0.389 OA
ATOM     25  H   UNL     1       3.010  -5.862   3.926  0.00  0.00    +0.210 HD
ENDBRANCH  23  24
BRANCH  23  26
ATOM     26  C   UNL     1       1.258  -5.817   5.915  0.00  0.00    +0.187 C 
BRANCH  26  27
ATOM     27  O   UNL     1       2.116  -5.491   7.011  0.00  0.00    -0.392 OA
ATOM     28  H   UNL     1       2.023  -6.080   7.772  0.00  0.00    +0.210 HD
ENDBRANCH  26  27
ENDBRANCH  23  26
ENDBRANCH  19  23
TORSDOF 5
