REMARK  Name = ZINC19168189
REMARK  9 active torsions:
REMARK  status: ('A' for Active; 'I' for Inactive)
REMARK    1  A    between atoms: C_1  and  C_2
REMARK    2  A    between atoms: C_2  and  C_3
REMARK    3  A    between atoms: C_3  and  N_4
REMARK    4  A    between atoms: N_4  and  C_5
REMARK    5  A    between atoms: C_6  and  N_21
REMARK    6  A    between atoms: N_7  and  C_14
REMARK    7  A    between atoms: C_14  and  C_15
REMARK    8  A    between atoms: C_22  and  C_24
REMARK    9  A    between atoms: C_27  and  C_29
REMARK                            x       y       z     vdW  Elec       q    Type
REMARK                         _______ _______ _______ _____ _____    ______ ____
ROOT
ATOM      1  C   UNL     1       2.226   1.080  -0.147  0.00  0.00    +0.140 A 
ATOM      2  C   UNL     1       2.877   0.434   0.884  0.00  0.00    +0.128 A 
ATOM      3  N   UNL     1       4.118  -0.114   0.656  0.00  0.00    -0.276 N 
ATOM      4  C   UNL     1       4.695  -0.013  -0.555  0.00  0.00    +0.331 A 
ATOM      5  O   UNL     1       5.794  -0.501  -0.735  0.00  0.00    -0.246 OA
ATOM      6  N   UNL     1       4.078   0.617  -1.570  0.00  0.00    -0.273 N 
ATOM      7  H   UNL     1       4.529   0.678  -2.461  0.00  0.00    +0.173 HD
ATOM      8  C   UNL     1       2.860   1.167  -1.401  0.00  0.00    +0.277 A 
ATOM      9  O   UNL     1       2.309   1.736  -2.329  0.00  0.00    -0.266 OA
ENDROOT
BRANCH   1  10
ATOM     10  N   UNL     1       0.951   1.648   0.053  0.00  0.00    -0.258 N 
ATOM     11  C   UNL     1      -0.112   0.853   0.290  0.00  0.00    +0.286 C 
ATOM     12  O   UNL     1       0.009  -0.357   0.233  0.00  0.00    -0.266 OA
BRANCH  11  13
ATOM     13  C   UNL     1      -1.413   1.446   0.609  0.00  0.00    +0.190 A 
ATOM     14  C   UNL     1      -2.581   0.753   0.844  0.00  0.00    +0.055 A 
ATOM     15  C   UNL     1      -3.568   1.707   1.110  0.00  0.00    +0.051 A 
ATOM     16  C   UNL     1      -2.976   2.934   1.019  0.00  0.00    +0.139 A 
ATOM     17  O   UNL     1      -1.678   2.765   0.717  0.00  0.00    -0.450 OA
BRANCH  16  18
ATOM     18  C   UNL     1      -3.650   4.232   1.220  0.00  0.00    +0.052 A 
ATOM     19  C   UNL     1      -3.096   5.186   2.078  0.00  0.00    +0.014 A 
ATOM     20  C   UNL     1      -3.731   6.396   2.260  0.00  0.00    +0.001 A 
ATOM     21  C   UNL     1      -4.915   6.669   1.597  0.00  0.00    +0.003 A 
ATOM     22  C   UNL     1      -5.471   5.732   0.746  0.00  0.00    +0.039 A 
ATOM     23  C   UNL     1      -4.844   4.516   0.549  0.00  0.00    +0.134 A 
ATOM     24  F   UNL     1      -5.385   3.602  -0.287  0.00  0.00    -0.205 F 
ENDBRANCH  16  18
ENDBRANCH  11  13
BRANCH  10  25
ATOM     25  C   UNL     1       0.781   3.102   0.005  0.00  0.00    +0.114 C 
BRANCH  25  27
ATOM     26  C   UNL     1       0.698   5.193   1.370  0.00  0.00    +0.005 C 
ATOM     27  C   UNL     1       0.875   3.674   1.421  0.00  0.00    +0.016 C 
ENDBRANCH  25  27
ENDBRANCH  10  25
ENDBRANCH   1  10
BRANCH   2  28
ATOM     28  N   UNL     1       2.290   0.335   2.123  0.00  0.00    -0.343 N 
ATOM     29  H   UNL     1       1.397   0.686   2.266  0.00  0.00    +0.144 HD
ATOM     30  H   UNL     1       2.768  -0.087   2.854  0.00  0.00    +0.144 HD
ENDBRANCH   2  28
BRANCH   3  31
ATOM     31  C   UNL     1       4.818  -0.807   1.741  0.00  0.00    +0.163 C 
BRANCH  31  32
ATOM     32  C   UNL     1       5.664   0.180   2.503  0.00  0.00    -0.028 A 
ATOM     33  C   UNL     1       6.973   0.407   2.122  0.00  0.00    +0.005 A 
ATOM     34  C   UNL     1       7.748   1.316   2.818  0.00  0.00    +0.000 A 
ATOM     35  C   UNL     1       7.217   1.989   3.902  0.00  0.00    +0.000 A 
ATOM     36  C   UNL     1       5.909   1.758   4.287  0.00  0.00    +0.000 A 
ATOM     37  C   UNL     1       5.133   0.853   3.587  0.00  0.00    +0.005 A 
ENDBRANCH  31  32
ENDBRANCH   3  31
TORSDOF 8
