REMARK  Name = ZINC12995590
REMARK  7 active torsions:
REMARK  status: ('A' for Active; 'I' for Inactive)
REMARK    1  A    between atoms: C_3  and  C_6
REMARK    2  A    between atoms: C_6  and  N_41
REMARK    3  A    between atoms: C_7  and  C_8
REMARK    4  A    between atoms: C_7  and  N_41
REMARK    5  A    between atoms: C_13  and  C_14
REMARK    6  A    between atoms: C_13  and  N_41
REMARK    7  A    between atoms: N_16  and  C_17
REMARK                            x       y       z     vdW  Elec       q    Type
REMARK                         _______ _______ _______ _____ _____    ______ ____
ROOT
ATOM      1  N   UNL     1      -0.788  -0.431   1.833  0.00  0.00    +0.393 N 
ATOM      2  H   UNL     1      -0.641   0.278   2.562  0.00  0.00    -0.080 HD
ENDROOT
BRANCH   1   3
ATOM      3  C   UNL     1      -2.227  -0.762   1.768  0.00  0.00    -0.002 C 
BRANCH   3   6
ATOM      4  C   UNL     1      -4.096   2.272   0.831  0.00  0.00    +0.041 A 
ATOM      5  C   UNL     1      -3.375   1.105   0.487  0.00  0.00    +0.042 A 
ATOM      6  C   UNL     1      -3.015   0.516   1.641  0.00  0.00    +0.089 A 
ATOM      7  O   UNL     1      -3.481   1.256   2.659  0.00  0.00    -0.470 OA
ATOM      8  C   UNL     1      -4.133   2.326   2.174  0.00  0.00    +0.195 A 
ENDBRANCH   3   6
ENDBRANCH   1   3
BRANCH   1   9
ATOM      9  C   UNL     1      -0.336   0.115   0.536  0.00  0.00    -0.034 C 
BRANCH   9  10
ATOM     10  C   UNL     1       1.068   0.641   0.692  0.00  0.00    -0.027 A 
ATOM     11  C   UNL     1       2.246  -0.009   0.528  0.00  0.00    +0.009 A 
ATOM     12  C   UNL     1       3.426   0.682   0.727  0.00  0.00    +0.008 A 
ATOM     13  C   UNL     1       3.370   1.990   1.080  0.00  0.00    +0.045 A 
ATOM     14  S   UNL     1       1.610   2.281   1.142  0.00  0.00    -0.103 S 
ENDBRANCH   9  10
ENDBRANCH   1   9
BRANCH   1  15
ATOM     15  C   UNL     1      -0.006  -1.638   2.173  0.00  0.00    +0.020 C 
BRANCH  15  16
ATOM     16  C   UNL     1      -0.210  -1.952   3.633  0.00  0.00    +0.201 C 
ATOM     17  O   UNL     1      -0.847  -1.193   4.333  0.00  0.00    -0.278 OA
ATOM     18  N   UNL     1       0.314  -3.076   4.161  0.00  0.00    -0.287 N 
ATOM     19  H   UNL     1       0.907  -3.630   3.629  0.00  0.00    +0.155 HD
BRANCH  18  20
ATOM     20  C   UNL     1       0.004  -3.443   5.475  0.00  0.00    +0.033 A 
ATOM     21  C   UNL     1      -1.250  -3.158   5.999  0.00  0.00    +0.024 A 
ATOM     22  C   UNL     1      -1.556  -3.527   7.294  0.00  0.00    +0.016 A 
ATOM     23  C   UNL     1      -0.610  -4.169   8.073  0.00  0.00    +0.013 A 
ATOM     24  C   UNL     1       0.642  -4.448   7.556  0.00  0.00    +0.016 A 
ATOM     25  C   UNL     1       0.951  -4.087   6.260  0.00  0.00    +0.024 A 
ATOM     26  I   UNL     1      -1.075  -4.719  10.041  0.00  0.00    -0.044 I 
ENDBRANCH  18  20
ENDBRANCH  15  16
ENDBRANCH   1  15
TORSDOF 7
