REMARK  Name = ZINC38705017
REMARK  11 active torsions:
REMARK  status: ('A' for Active; 'I' for Inactive)
REMARK    1  A    between atoms: C_1  and  C_2
REMARK    2  A    between atoms: C_5  and  C_8
REMARK    3  A    between atoms: C_8  and  N_9
REMARK    4  A    between atoms: C_10  and  C_29
REMARK    5  A    between atoms: C_13  and  C_20
REMARK    6  A    between atoms: C_21  and  C_28
REMARK    7  A    between atoms: C_23  and  C_27
REMARK    8  A    between atoms: C_25  and  O_26
REMARK    9  A    between atoms: C_32  and  O_37
REMARK   10  A    between atoms: C_33  and  O_35
REMARK   11  A    between atoms: O_35  and  C_36
REMARK                            x       y       z     vdW  Elec       q    Type
REMARK                         _______ _______ _______ _____ _____    ______ ____
ROOT
ATOM      1  N   UNL     1       1.468  -4.366  -0.346  0.00  0.00    -0.281 N 
ATOM      2  C   UNL     1       2.562  -4.705  -1.265  0.00  0.00    +0.142 C 
ATOM      3  C   UNL     1       3.687  -5.211  -0.404  0.00  0.00    +0.035 A 
ATOM      4  C   UNL     1       4.990  -5.716  -0.343  0.00  0.00    +0.102 A 
ATOM      5  N   UNL     1       5.270  -5.934   0.927  0.00  0.00    -0.173 NA
ATOM      6  N   UNL     1       4.273  -5.617   1.674  0.00  0.00    -0.272 N 
ATOM      7  H   UNL     1       4.254  -5.693   2.640  0.00  0.00    +0.189 HD
ATOM      8  C   UNL     1       3.244  -5.155   0.903  0.00  0.00    +0.126 A 
ATOM      9  C   UNL     1       1.875  -4.626   0.909  0.00  0.00    +0.266 C 
ATOM     10  O   UNL     1       1.204  -4.449   1.908  0.00  0.00    -0.268 OA
ENDROOT
BRANCH   4  11
ATOM     11  C   UNL     1       5.892  -5.963  -1.496  0.00  0.00    +0.047 A 
ATOM     12  C   UNL     1       7.201  -5.488  -1.474  0.00  0.00    -0.037 A 
ATOM     13  C   UNL     1       8.036  -5.720  -2.548  0.00  0.00    +0.007 A 
ATOM     14  C   UNL     1       7.577  -6.423  -3.648  0.00  0.00    -0.047 A 
ATOM     15  C   UNL     1       6.280  -6.898  -3.680  0.00  0.00    +0.049 A 
ATOM     16  C   UNL     1       5.433  -6.677  -2.606  0.00  0.00    +0.127 A 
ATOM     17  C   UNL     1       8.496  -6.670  -4.817  0.00  0.00    +0.044 C 
ATOM     18  C   UNL     1       7.705  -4.721  -0.279  0.00  0.00    +0.044 C 
BRANCH  16  19
ATOM     19  O   UNL     1       4.159  -7.149  -2.634  0.00  0.00    -0.506 OA
ATOM     20  H   UNL     1       3.534  -6.565  -3.084  0.00  0.00    +0.292 HD
ENDBRANCH  16  19
ENDBRANCH   4  11
BRANCH   2  21
ATOM     21  C   UNL     1       3.000  -3.480  -2.025  0.00  0.00    -0.019 A 
ATOM     22  C   UNL     1       3.297  -2.315  -1.344  0.00  0.00    +0.009 A 
ATOM     23  C   UNL     1       3.699  -1.188  -2.037  0.00  0.00    +0.049 A 
ATOM     24  C   UNL     1       3.806  -1.226  -3.418  0.00  0.00    +0.158 A 
ATOM     25  C   UNL     1       3.507  -2.399  -4.104  0.00  0.00    +0.162 A 
ATOM     26  C   UNL     1       3.110  -3.526  -3.403  0.00  0.00    +0.055 A 
BRANCH  25  27
ATOM     27  O   UNL     1       3.610  -2.440  -5.459  0.00  0.00    -0.491 OA
ATOM     28  C   UNL     1       3.288  -3.678  -6.097  0.00  0.00    +0.277 C 
ENDBRANCH  25  27
BRANCH  24  29
ATOM     29  O   UNL     1       4.200  -0.118  -4.101  0.00  0.00    -0.503 OA
ATOM     30  H   UNL     1       5.157  -0.054  -4.227  0.00  0.00    +0.292 HD
ENDBRANCH  24  29
ENDBRANCH   2  21
BRANCH   1  31
ATOM     31  C   UNL     1       0.160  -3.830  -0.730  0.00  0.00    +0.144 C 
BRANCH  31  36
ATOM     32  C   UNL     1       0.389   1.943  -0.819  0.00  0.00    +0.044 C 
ATOM     33  C   UNL     1       0.330   0.438  -0.796  0.00  0.00    -0.050 A 
ATOM     34  C   UNL     1       0.629  -0.283  -1.937  0.00  0.00    +0.003 A 
ATOM     35  C   UNL     1       0.574  -1.665  -1.915  0.00  0.00    +0.005 A 
ATOM     36  C   UNL     1       0.221  -2.325  -0.753  0.00  0.00    -0.030 A 
ATOM     37  C   UNL     1      -0.078  -1.603   0.388  0.00  0.00    +0.005 A 
ATOM     38  C   UNL     1      -0.019  -0.222   0.368  0.00  0.00    +0.003 A 
ENDBRANCH  31  36
ENDBRANCH   1  31
TORSDOF 7
