REMARK  Name = ZINC14981243
REMARK  8 active torsions:
REMARK  status: ('A' for Active; 'I' for Inactive)
REMARK    1  A    between atoms: C_1  and  N_2
REMARK    2  A    between atoms: N_2  and  C_3
REMARK    3  A    between atoms: C_3  and  C_5
REMARK    4  A    between atoms: C_3  and  C_12
REMARK    5  A    between atoms: C_5  and  C_6
REMARK    6  A    between atoms: C_17  and  C_18
REMARK    7  A    between atoms: C_17  and  N_64
REMARK    8  A    between atoms: C_25  and  C_27
REMARK                            x       y       z     vdW  Elec       q    Type
REMARK                         _______ _______ _______ _____ _____    ______ ____
ROOT
ATOM      1  C   UNL     1       4.519  -0.623   0.287  0.00  0.00    +0.083 C 
ENDROOT
BRANCH   1   2
ATOM      2  C   UNL     1       4.621  -1.401   1.601  0.00  0.00    +0.006 C 
ATOM      3  C   UNL     1       3.968  -2.775   1.433  0.00  0.00    -0.013 C 
ATOM      4  C   UNL     1       4.019  -3.525   2.767  0.00  0.00    -0.078 C 
ATOM      5  C   UNL     1       3.949  -1.443   4.005  0.00  0.00    -0.078 C 
ATOM      6  C   UNL     1       3.896  -0.631   2.708  0.00  0.00    -0.013 C 
ATOM      7  N   UNL     1       3.283  -2.744   3.784  0.00  0.00    +0.380 N 
ATOM      8  H   UNL     1       2.327  -2.576   3.448  0.00  0.00    -0.082 HD
BRANCH   7   9
ATOM      9  C   UNL     1       3.220  -3.500   5.052  0.00  0.00    -0.075 C 
BRANCH   9  10
ATOM     10  C   UNL     1       2.631  -4.885   4.777  0.00  0.00    -0.024 C 
ATOM     11  C   UNL     1       1.177  -4.744   4.309  0.00  0.00    +0.006 C 
ATOM     12  C   UNL     1       0.674  -6.122   3.873  0.00  0.00    +0.027 C 
ATOM     13  C   UNL     1       0.978  -7.142   4.930  0.00  0.00    -0.031 C 
ATOM     14  C   UNL     1       1.840  -6.967   5.880  0.00  0.00    -0.031 C 
ATOM     15  C   UNL     1       2.652  -5.717   6.062  0.00  0.00    +0.028 C 
ENDBRANCH   9  10
ENDBRANCH   7   9
ENDBRANCH   1   2
BRANCH   1  17
ATOM     16  C   UNL     1       6.506  -1.863  -0.688  0.00  0.00    +0.132 C 
ATOM     17  N   UNL     1       5.117  -1.410  -0.794  0.00  0.00    -0.297 N 
ATOM     18  C   UNL     1       4.390  -1.717  -1.887  0.00  0.00    +0.247 C 
ATOM     19  O   UNL     1       3.258  -1.287  -2.004  0.00  0.00    -0.270 OA
BRANCH  18  20
ATOM     20  C   UNL     1       4.965  -2.571  -2.938  0.00  0.00    +0.044 A 
ATOM     21  C   UNL     1       4.141  -3.451  -3.728  0.00  0.00    +0.020 A 
ATOM     22  C   UNL     1       4.760  -4.194  -4.666  0.00  0.00    +0.046 A 
ATOM     23  S   UNL     1       6.466  -3.710  -4.502  0.00  0.00    -0.104 S 
ATOM     24  C   UNL     1       6.317  -2.566  -3.210  0.00  0.00    +0.058 A 
ENDBRANCH  18  20
ENDBRANCH   1  17
BRANCH   1  25
ATOM     25  C   UNL     1       5.263   0.707   0.422  0.00  0.00    +0.058 C 
BRANCH  25  26
ATOM     26  C   UNL     1       5.060   1.526  -0.826  0.00  0.00    -0.046 A 
ATOM     27  C   UNL     1       5.946   1.409  -1.881  0.00  0.00    +0.004 A 
ATOM     28  C   UNL     1       5.757   2.156  -3.029  0.00  0.00    +0.000 A 
ATOM     29  C   UNL     1       4.688   3.028  -3.117  0.00  0.00    +0.000 A 
ATOM     30  C   UNL     1       3.805   3.149  -2.060  0.00  0.00    +0.000 A 
ATOM     31  C   UNL     1       3.991   2.398  -0.915  0.00  0.00    +0.004 A 
ENDBRANCH  25  26
ENDBRANCH   1  25
TORSDOF 7
