REMARK  Name = ZINC12195265
REMARK  6 active torsions:
REMARK  status: ('A' for Active; 'I' for Inactive)
REMARK    1  A    between atoms: C_1  and  C_2
REMARK    2  A    between atoms: C_6  and  S_31
REMARK    3  A    between atoms: C_15  and  N_63
REMARK    4  A    between atoms: C_18  and  C_19
REMARK    5  A    between atoms: C_18  and  N_63
REMARK    6  A    between atoms: S_31  and  C_34
REMARK                            x       y       z     vdW  Elec       q    Type
REMARK                         _______ _______ _______ _____ _____    ______ ____
ROOT
ATOM      1  C   UNL     1       2.545  -0.342  -0.025  0.00  0.00    +0.066 C 
ATOM      2  C   UNL     1       2.444   1.161  -0.016  0.00  0.00    +0.051 A 
ATOM      3  C   UNL     1       1.189   1.799   0.000  0.00  0.00    +0.022 A 
ATOM      4  C   UNL     1      -0.013   1.076   0.008  0.00  0.00    +0.013 A 
ATOM      5  C   UNL     1      -1.199   1.746   0.017  0.00  0.00    +0.028 A 
ATOM      6  C   UNL     1      -1.235   3.139   0.032  0.00  0.00    +0.090 A 
ATOM      7  C   UNL     1      -0.087   3.872   0.024  0.00  0.00    +0.055 A 
ATOM      8  C   UNL     1       1.153   3.217   0.008  0.00  0.00    +0.078 A 
ATOM      9  N   UNL     1       2.311   3.890   0.001  0.00  0.00    -0.214 NA
ATOM     10  C   UNL     1       3.457   3.239  -0.014  0.00  0.00    +0.219 A 
ATOM     11  N   UNL     1       3.528   1.909  -0.022  0.00  0.00    -0.219 NA
ATOM     12  N   UNL     1       4.634   3.966  -0.022  0.00  0.00    -0.300 N 
ATOM     13  C   UNL     1       4.688   4.892   1.116  0.00  0.00    +0.106 C 
ATOM     14  C   UNL     1       5.929   5.779   0.995  0.00  0.00    +0.003 C 
ATOM     15  C   UNL     1       7.181   4.897   0.971  0.00  0.00    -0.069 C 
ATOM     16  C   UNL     1       7.077   3.909  -0.195  0.00  0.00    +0.003 C 
ATOM     17  C   UNL     1       5.802   3.076  -0.039  0.00  0.00    +0.106 C 
ENDROOT
BRANCH   6  18
ATOM     18  S   UNL     1      -2.791   3.965   0.052  0.00  0.00    -0.006 S 
ATOM     19  O   UNL     1      -3.684   3.042   0.658  0.00  0.00    -0.170 OA
ATOM     20  O   UNL     1      -2.526   5.223   0.659  0.00  0.00    -0.170 OA
ATOM     21  C   UNL     1      -3.220   4.194  -1.696  0.00  0.00    +0.200 C 
ENDBRANCH   6  18
BRANCH  15  22
ATOM     22  N   UNL     1       8.377   5.740   0.788  0.00  0.00    +0.381 N 
ATOM     23  H   UNL     1       8.144   6.531   0.176  0.00  0.00    -0.086 HD
ATOM     24  H   UNL     1       9.122   5.181   0.355  0.00  0.00    -0.086 HD
BRANCH  22  25
ATOM     25  C   UNL     1       8.846   6.252   2.089  0.00  0.00    -0.078 C 
BRANCH  25  26
ATOM     26  C   UNL     1      10.086   7.122   1.867  0.00  0.00    -0.020 C 
ATOM     27  C   UNL     1       9.701   8.453   1.172  0.00  0.00    +0.010 C 
ATOM     28  C   UNL     1      10.121   9.548   2.213  0.00  0.00    +0.018 C 
ATOM     29  C   UNL     1       9.145   9.311   3.379  0.00  0.00    -0.027 C 
ATOM     30  C   UNL     1       9.467   8.154   3.981  0.00  0.00    -0.027 C 
ATOM     31  C   UNL     1      10.689   7.582   3.239  0.00  0.00    +0.019 C 
ATOM     32  C   UNL     1      11.390   8.891   2.805  0.00  0.00    -0.017 C 
ATOM     33  C   UNL     1      12.764   8.980   2.216  0.00  0.00    +0.008 C 
ATOM     34  C   UNL     1      12.450   9.604   3.585  0.00  0.00    +0.008 C 
ENDBRANCH  25  26
ENDBRANCH  22  25
ENDBRANCH  15  22
TORSDOF 4
