REMARK  Name = ZINC20465212
REMARK  7 active torsions:
REMARK  status: ('A' for Active; 'I' for Inactive)
REMARK    1  A    between atoms: N_9  and  C_11
REMARK    2  A    between atoms: C_13  and  C_23
REMARK    3  A    between atoms: C_16  and  C_21
REMARK    4  A    between atoms: C_18  and  O_20
REMARK    5  A    between atoms: C_21  and  O_22
REMARK    6  A    between atoms: C_23  and  N_24
REMARK    7  A    between atoms: C_25  and  C_27
REMARK                            x       y       z     vdW  Elec       q    Type
REMARK                         _______ _______ _______ _____ _____    ______ ____
ROOT
ATOM      1  C   UNL     1       0.063   1.573  -0.000  0.00  0.00    -0.006 C 
ATOM      2  C   UNL     1      -0.531   1.760  -1.414  0.00  0.00    +0.125 C 
ATOM      3  O   UNL     1       0.281   2.788  -2.023  0.00  0.00    -0.369 OA
ATOM      4  C   UNL     1       1.635   2.491  -1.619  0.00  0.00    +0.171 C 
ATOM      5  C   UNL     1       1.521   2.065  -0.138  0.00  0.00    +0.135 C 
ENDROOT
BRANCH   1  14
ATOM      6  C   UNL     1      -2.998   6.183   3.268  0.00  0.00    +0.000 A 
ATOM      7  C   UNL     1      -2.077   6.773   2.423  0.00  0.00    +0.000 A 
ATOM      8  C   UNL     1      -1.331   5.990   1.565  0.00  0.00    +0.002 A 
ATOM      9  C   UNL     1      -1.499   4.613   1.547  0.00  0.00    -0.061 A 
ATOM     10  C   UNL     1      -2.415   4.025   2.393  0.00  0.00    -0.048 A 
ATOM     11  C   UNL     1      -3.166   4.813   3.253  0.00  0.00    +0.004 A 
ATOM     12  C   UNL     1      -2.629   2.534   2.414  0.00  0.00    +0.017 C 
ATOM     13  C   UNL     1      -2.044   1.905   1.149  0.00  0.00    -0.073 C 
ATOM     14  N   UNL     1      -0.665   2.389   0.980  0.00  0.00    +0.388 N 
ATOM     15  C   UNL     1      -0.668   3.802   0.588  0.00  0.00    -0.042 C 
ATOM     16  H   UNL     1      -0.142   2.300   1.943  0.00  0.00    -0.081 HD
ENDBRANCH   1  14
BRANCH   5  17
ATOM     17  O   UNL     1       1.757   3.181   0.724  0.00  0.00    -0.391 OA
ATOM     18  H   UNL     1       2.748   3.656   0.750  0.00  0.00    +0.210 HD
ENDBRANCH   5  17
BRANCH   4  19
ATOM     19  C   UNL     1       2.516   3.736  -1.748  0.00  0.00    +0.190 C 
BRANCH  19  20
ATOM     20  O   UNL     1       2.704   4.044  -3.131  0.00  0.00    -0.392 OA
ATOM     21  H   UNL     1       3.314   4.912  -3.423  0.00  0.00    +0.210 HD
ENDBRANCH  19  20
ENDBRANCH   4  19
BRANCH   2  22
ATOM     22  C   UNL     1      -1.988   2.217  -1.323  0.00  0.00    +0.134 C 
BRANCH  22  23
ATOM     23  N   UNL     1      -2.469   2.585  -2.656  0.00  0.00    -0.306 N 
ATOM     24  C   UNL     1      -3.734   3.020  -2.821  0.00  0.00    +0.279 C 
ATOM     25  O   UNL     1      -4.477   3.107  -1.861  0.00  0.00    -0.267 OA
ATOM     26  H   UNL     1      -1.798   2.506  -3.524  0.00  0.00    +0.149 HD
BRANCH  24  27
ATOM     27  C   UNL     1      -4.216   3.389  -4.156  0.00  0.00    +0.189 A 
ATOM     28  C   UNL     1      -5.469   3.837  -4.462  0.00  0.00    +0.054 A 
ATOM     29  C   UNL     1      -5.487   4.070  -5.846  0.00  0.00    +0.042 A 
ATOM     30  C   UNL     1      -4.263   3.749  -6.320  0.00  0.00    +0.196 A 
ATOM     31  O   UNL     1      -3.500   3.339  -5.298  0.00  0.00    -0.458 OA
ENDBRANCH  24  27
ENDBRANCH  22  23
ENDBRANCH   2  22
TORSDOF 7
