REMARK  Name = ZINC36827846
REMARK  10 active torsions:
REMARK  status: ('A' for Active; 'I' for Inactive)
REMARK    1  A    between atoms: C_1  and  C_2
REMARK    2  A    between atoms: C_5  and  N_8
REMARK    3  A    between atoms: C_9  and  C_34
REMARK    4  A    between atoms: C_10  and  N_14
REMARK    5  A    between atoms: C_11  and  C_13
REMARK    6  A    between atoms: C_15  and  C_17
REMARK    7  A    between atoms: C_17  and  S_18
REMARK    8  A    between atoms: S_18  and  C_19
REMARK    9  A    between atoms: N_29  and  C_30
REMARK   10  A    between atoms: C_30  and  C_31
REMARK                            x       y       z     vdW  Elec       q    Type
REMARK                         _______ _______ _______ _____ _____    ______ ____
ROOT
ATOM      1  N   UNL     1       1.101  -7.275   1.306  0.00  0.00    -0.282 N 
ATOM      2  C   UNL     1       0.561  -8.506   1.212  0.00  0.00    +0.228 C 
ATOM      3  O   UNL     1      -0.348  -8.712   0.435  0.00  0.00    -0.275 OA
ATOM      4  H   UNL     1       1.875  -7.127   1.871  0.00  0.00    +0.155 HD
ENDROOT
BRANCH   1   7
ATOM      5  N   UNL     1      -0.561  -4.378   0.074  0.00  0.00    -0.235 N 
ATOM      6  C   UNL     1      -0.224  -5.207   1.099  0.00  0.00    +0.063 A 
ATOM      7  C   UNL     1       0.540  -6.204   0.585  0.00  0.00    +0.078 A 
ATOM      8  C   UNL     1       0.673  -5.977  -0.793  0.00  0.00    +0.082 A 
ATOM      9  N   UNL     1       0.011  -4.890  -1.098  0.00  0.00    -0.170 NA
ATOM     10  C   UNL     1       1.443  -6.840  -1.759  0.00  0.00    +0.069 C 
ATOM     11  C   UNL     1      -0.625  -5.046   2.543  0.00  0.00    +0.068 C 
BRANCH   5  16
ATOM     12  C   UNL     1      -3.741   0.306   0.469  0.00  0.00    +0.044 C 
ATOM     13  C   UNL     1      -2.897  -0.938   0.364  0.00  0.00    -0.050 A 
ATOM     14  C   UNL     1      -1.849  -0.986  -0.537  0.00  0.00    +0.005 A 
ATOM     15  C   UNL     1      -1.073  -2.125  -0.635  0.00  0.00    +0.028 A 
ATOM     16  C   UNL     1      -1.346  -3.221   0.172  0.00  0.00    +0.066 A 
ATOM     17  C   UNL     1      -2.399  -3.169   1.076  0.00  0.00    +0.028 A 
ATOM     18  C   UNL     1      -3.168  -2.026   1.173  0.00  0.00    +0.005 A 
ENDBRANCH   5  16
ENDBRANCH   1   7
BRANCH   2  19
ATOM     19  C   UNL     1       1.087  -9.627   2.070  0.00  0.00    +0.173 C 
BRANCH  19  20
ATOM     20  S   UNL     1       0.164 -11.147   1.714  0.00  0.00    -0.078 S 
BRANCH  20  21
ATOM     21  C   UNL     1       0.887 -12.347   2.782  0.00  0.00    +0.173 A 
ATOM     22  N   UNL     1       1.863 -11.972   3.572  0.00  0.00    -0.223 NA
ATOM     23  C   UNL     1       2.463 -12.842   4.418  0.00  0.00    +0.080 A 
ATOM     24  C   UNL     1       3.504 -12.444   5.261  0.00  0.00    +0.048 A 
ATOM     25  C   UNL     1       4.084 -13.365   6.106  0.00  0.00    +0.043 A 
ATOM     26  C   UNL     1       3.646 -14.685   6.128  0.00  0.00    +0.021 A 
ATOM     27  C   UNL     1       2.631 -15.098   5.312  0.00  0.00    +0.017 A 
ATOM     28  C   UNL     1       2.026 -14.186   4.447  0.00  0.00    +0.065 A 
ATOM     29  C   UNL     1       0.930 -14.579   3.551  0.00  0.00    +0.263 A 
ATOM     30  O   UNL     1       0.509 -15.721   3.531  0.00  0.00    -0.267 OA
ATOM     31  N   UNL     1       0.402 -13.623   2.752  0.00  0.00    -0.283 N 
ATOM     32 CL   UNL     1       5.377 -12.873   7.154  0.00  0.00    -0.083 Cl
BRANCH  31  33
ATOM     33  C   UNL     1      -0.697 -13.961   1.843  0.00  0.00    +0.154 C 
BRANCH  33  34
ATOM     34  C   UNL     1      -0.133 -14.411   0.520  0.00  0.00    -0.013 C 
ATOM     35  C   UNL     1      -0.475 -15.574   0.024  0.00  0.00    +0.005 C 
ENDBRANCH  33  34
ENDBRANCH  31  33
ENDBRANCH  20  21
ENDBRANCH  19  20
ENDBRANCH   2  19
TORSDOF 7
