REMARK  Name = ZINC06015190
REMARK  13 active torsions:
REMARK  status: ('A' for Active; 'I' for Inactive)
REMARK    1  A    between atoms: C_1  and  C_2
REMARK    2  A    between atoms: C_2  and  C_3
REMARK    3  A    between atoms: C_2  and  C_4
REMARK    4  A    between atoms: C_7  and  C_10
REMARK    5  A    between atoms: C_13  and  C_24
REMARK    6  A    between atoms: C_19  and  N_23
REMARK    7  A    between atoms: C_20  and  C_21
REMARK    8  A    between atoms: C_26  and  O_34
REMARK    9  A    between atoms: C_27  and  O_32
REMARK   10  A    between atoms: C_28  and  O_30
REMARK   11  A    between atoms: O_30  and  C_31
REMARK   12  A    between atoms: O_32  and  C_33
REMARK   13  A    between atoms: O_34  and  C_35
REMARK                            x       y       z     vdW  Elec       q    Type
REMARK                         _______ _______ _______ _____ _____    ______ ____
ROOT
ATOM      1  C   UNL     1      -5.419  -2.005   0.043  0.00  0.00    +0.102 C 
ATOM      2  C   UNL     1      -6.148  -1.526  -1.186  0.00  0.00    +0.054 A 
ATOM      3  C   UNL     1      -6.614  -0.245  -1.495  0.00  0.00    +0.101 A 
ATOM      4  N   UNL     1      -7.190  -0.298  -2.681  0.00  0.00    -0.171 NA
ATOM      5  N   UNL     1      -7.105  -1.616  -3.155  0.00  0.00    -0.246 N 
ATOM      6  H   UNL     1      -7.447  -1.940  -4.003  0.00  0.00    +0.192 HD
ATOM      7  C   UNL     1      -6.464  -2.353  -2.225  0.00  0.00    +0.223 A 
ATOM      8  O   UNL     1      -6.149  -3.672  -2.232  0.00  0.00    -0.423 OA
ATOM      9  C   UNL     1      -5.754  -4.227  -1.068  0.00  0.00    +0.200 C 
ATOM     10  C   UNL     1      -5.404  -3.513   0.026  0.00  0.00    +0.098 C 
ENDROOT
BRANCH   1  14
ATOM     11  C   UNL     1      -1.412  -0.526   0.013  0.00  0.00    -0.045 A 
ATOM     12  C   UNL     1      -2.259  -0.204   1.056  0.00  0.00    +0.004 A 
ATOM     13  C   UNL     1      -3.556  -0.683   1.066  0.00  0.00    +0.005 A 
ATOM     14  C   UNL     1      -4.006  -1.482   0.032  0.00  0.00    -0.035 A 
ATOM     15  C   UNL     1      -3.159  -1.803  -1.012  0.00  0.00    +0.005 A 
ATOM     16  C   UNL     1      -1.863  -1.321  -1.024  0.00  0.00    +0.004 A 
BRANCH  11  18
ATOM     17  C   UNL     1      -0.019   1.526   0.010  0.00  0.00    +0.012 C 
ATOM     18  C   UNL     1       0.002  -0.004   0.002  0.00  0.00    +0.013 C 
ATOM     19  C   UNL     1       0.742  -0.511   1.242  0.00  0.00    +0.012 C 
ENDBRANCH  11  18
ENDBRANCH   1  14
BRANCH   3  20
ATOM     20  C   UNL     1      -6.483   0.962  -0.641  0.00  0.00    +0.010 A 
ATOM     21  C   UNL     1      -6.551   0.845   0.746  0.00  0.00    +0.059 A 
ATOM     22  C   UNL     1      -6.430   1.971   1.542  0.00  0.00    +0.166 A 
ATOM     23  C   UNL     1      -6.240   3.219   0.958  0.00  0.00    +0.204 A 
ATOM     24  C   UNL     1      -6.173   3.337  -0.426  0.00  0.00    +0.166 A 
ATOM     25  C   UNL     1      -6.287   2.211  -1.224  0.00  0.00    +0.059 A 
BRANCH  24  26
ATOM     26  O   UNL     1      -5.987   4.558  -0.996  0.00  0.00    -0.491 OA
ATOM     27  C   UNL     1      -5.928   4.606  -2.423  0.00  0.00    +0.277 C 
ENDBRANCH  24  26
BRANCH  23  28
ATOM     28  O   UNL     1      -6.121   4.325   1.741  0.00  0.00    -0.488 OA
ATOM     29  C   UNL     1      -4.804   4.683   2.162  0.00  0.00    +0.277 C 
ENDBRANCH  23  28
BRANCH  22  30
ATOM     30  O   UNL     1      -6.496   1.857   2.895  0.00  0.00    -0.491 OA
ATOM     31  C   UNL     1      -6.693   0.545   3.427  0.00  0.00    +0.277 C 
ENDBRANCH  22  30
ENDBRANCH   3  20
BRANCH   9  32
ATOM     32  N   UNL     1      -5.703  -5.596  -0.989  0.00  0.00    -0.328 N 
ATOM     33  H   UNL     1      -5.949  -6.136  -1.757  0.00  0.00    +0.145 HD
ATOM     34  H   UNL     1      -5.423  -6.025  -0.165  0.00  0.00    +0.145 HD
ENDBRANCH   9  32
BRANCH  10  35
ATOM     35  C   UNL     1      -5.005  -4.213   1.210  0.00  0.00    +0.101 C 
ATOM     36  N   UNL     1      -4.689  -4.768   2.149  0.00  0.00    -0.191 NA
ENDBRANCH  10  35
TORSDOF 8
