REMARK  Name = ZINC12128451
REMARK  8 active torsions:
REMARK  status: ('A' for Active; 'I' for Inactive)
REMARK    1  A    between atoms: C_1  and  C_2
REMARK    2  A    between atoms: C_7  and  C_8
REMARK    3  A    between atoms: C_8  and  N_65
REMARK    4  A    between atoms: C_20  and  N_26
REMARK    5  A    between atoms: C_22  and  O_24
REMARK    6  A    between atoms: O_24  and  C_25
REMARK    7  A    between atoms: C_27  and  C_29
REMARK    8  A    between atoms: C_29  and  C_30
REMARK                            x       y       z     vdW  Elec       q    Type
REMARK                         _______ _______ _______ _____ _____    ______ ____
ROOT
ATOM      1  C   UNL     1       1.438   2.063  -0.123  0.00  0.00    -0.077 C 
ATOM      2  C   UNL     1       2.261   1.666   1.106  0.00  0.00    -0.005 C 
ATOM      3  C   UNL     1       2.308   0.144   1.211  0.00  0.00    +0.021 C 
ATOM      4  C   UNL     1       0.893  -0.427   1.263  0.00  0.00    -0.005 C 
ATOM      5  C   UNL     1       0.114   0.038   0.030  0.00  0.00    -0.077 C 
ATOM      6  C   UNL     1       3.091  -0.275   2.431  0.00  0.00    -0.034 A 
ATOM      7  C   UNL     1       3.064   0.205   3.730  0.00  0.00    +0.004 A 
ATOM      8  C   UNL     1       3.888  -0.344   4.693  0.00  0.00    +0.000 A 
ATOM      9  C   UNL     1       4.744  -1.377   4.361  0.00  0.00    +0.000 A 
ATOM     10  C   UNL     1       4.772  -1.859   3.067  0.00  0.00    +0.006 A 
ATOM     11  C   UNL     1       3.947  -1.311   2.100  0.00  0.00    -0.021 A 
ATOM     12  C   UNL     1       3.789  -1.657   0.634  0.00  0.00    +0.133 C 
ATOM     13  C   UNL     1       3.068  -0.443   0.008  0.00  0.00    +0.153 C 
ATOM     14  N   UNL     1       0.071   1.516   0.020  0.00  0.00    +0.382 N 
ATOM     15  H   UNL     1      -0.327   1.843   0.908  0.00  0.00    -0.081 HD
ENDROOT
BRANCH  12  16
ATOM     16  N   UNL     1       2.976  -2.865   0.482  0.00  0.00    -0.306 N 
ATOM     17  C   UNL     1       3.557  -4.080   0.535  0.00  0.00    +0.218 C 
ATOM     18  O   UNL     1       4.754  -4.173   0.708  0.00  0.00    -0.275 OA
ATOM     19  H   UNL     1       2.018  -2.792   0.344  0.00  0.00    +0.149 HD
BRANCH  17  20
ATOM     20  C   UNL     1       2.720  -5.324   0.378  0.00  0.00    +0.138 C 
BRANCH  20  21
ATOM     21  C   UNL     1       3.605  -6.540   0.475  0.00  0.00    -0.001 A 
ATOM     22  C   UNL     1       3.953  -7.257   1.571  0.00  0.00    +0.011 A 
ATOM     23  C   UNL     1       4.786  -8.350   1.421  0.00  0.00    +0.008 A 
ATOM     24  C   UNL     1       5.231  -8.671   0.181  0.00  0.00    +0.045 A 
ATOM     25  S   UNL     1       4.460  -7.415  -0.826  0.00  0.00    -0.101 S 
ENDBRANCH  20  21
ENDBRANCH  17  20
ENDBRANCH  12  16
BRANCH  13  26
ATOM     26  O   UNL     1       4.012   0.499  -0.506  0.00  0.00    -0.377 OA
ATOM     27  C   UNL     1       4.254   0.374  -1.909  0.00  0.00    +0.194 C 
ENDBRANCH  13  26
BRANCH  14  28
ATOM     28  C   UNL     1      -0.780   1.988  -1.091  0.00  0.00    -0.043 C 
BRANCH  28  35
ATOM     29  C   UNL     1      -2.652   2.751   0.973  0.00  0.00    +0.044 C 
ATOM     30  C   UNL     1      -1.998   3.808   0.120  0.00  0.00    -0.049 A 
ATOM     31  C   UNL     1      -2.294   5.143   0.326  0.00  0.00    +0.003 A 
ATOM     32  C   UNL     1      -1.694   6.112  -0.455  0.00  0.00    +0.000 A 
ATOM     33  C   UNL     1      -0.798   5.747  -1.443  0.00  0.00    +0.000 A 
ATOM     34  C   UNL     1      -0.499   4.413  -1.645  0.00  0.00    +0.002 A 
ATOM     35  C   UNL     1      -1.102   3.443  -0.867  0.00  0.00    -0.061 A 
ENDBRANCH  28  35
ENDBRANCH  14  28
TORSDOF 6
