REMARK  Name = ZINC12299018
REMARK  12 active torsions:
REMARK  status: ('A' for Active; 'I' for Inactive)
REMARK    1  A    between atoms: C_1  and  C_2
REMARK    2  A    between atoms: C_2  and  C_3
REMARK    3  A    between atoms: C_2  and  C_4
REMARK    4  A    between atoms: C_2  and  C_30
REMARK    5  A    between atoms: C_4  and  N_5
REMARK    6  A    between atoms: C_6  and  C_8
REMARK    7  A    between atoms: C_8  and  C_9
REMARK    8  A    between atoms: C_16  and  C_17
REMARK    9  A    between atoms: C_16  and  N_62
REMARK   10  A    between atoms: C_21  and  O_23
REMARK   11  A    between atoms: O_23  and  C_24
REMARK   12  A    between atoms: C_30  and  O_31
REMARK                            x       y       z     vdW  Elec       q    Type
REMARK                         _______ _______ _______ _____ _____    ______ ____
ROOT
ATOM      1  C   UNL     1      -0.432   1.763   1.657  0.00  0.00    +0.028 C 
ATOM      2  C   UNL     1       0.284   1.407   2.929  0.00  0.00    +0.200 C 
ATOM      3  O   UNL     1       0.788   0.308   3.024  0.00  0.00    -0.278 OA
ATOM      4  N   UNL     1       0.387   2.248   3.962  0.00  0.00    -0.318 N 
ATOM      5  C   UNL     1      -0.151   3.605   3.936  0.00  0.00    +0.085 C 
ATOM      6  C   UNL     1      -1.186   3.738   2.818  0.00  0.00    -0.058 C 
ATOM      7  H   UNL     1       0.841   1.944   4.764  0.00  0.00    +0.149 HD
ATOM      8  N   UNL     1      -0.580   3.228   1.571  0.00  0.00    +0.391 N 
ATOM      9  H   UNL     1       0.347   3.653   1.450  0.00  0.00    -0.080 HD
ENDROOT
BRANCH   1  10
ATOM     10  C   UNL     1       0.387   1.276   0.460  0.00  0.00    +0.089 C 
BRANCH  10  12
ATOM     11  N   UNL     1       2.650   1.639  -0.470  0.00  0.00    -0.315 N 
ATOM     12  C   UNL     1       1.716   1.986   0.437  0.00  0.00    +0.212 C 
ATOM     13  O   UNL     1       1.944   2.870   1.236  0.00  0.00    -0.276 OA
ATOM     14  H   UNL     1       2.467   0.932  -1.108  0.00  0.00    +0.149 HD
BRANCH  11  15
ATOM     15  C   UNL     1       3.942   2.330  -0.492  0.00  0.00    +0.112 C 
BRANCH  15  17
ATOM     16  C   UNL     1       5.036   0.257  -1.356  0.00  0.00    +0.015 C 
ATOM     17  C   UNL     1       4.812   1.749  -1.608  0.00  0.00    +0.004 C 
ATOM     18  C   UNL     1       4.109   1.939  -2.954  0.00  0.00    +0.015 C 
BRANCH  17  19
ATOM     19  C   UNL     1       6.161   2.470  -1.631  0.00  0.00    +0.163 C 
BRANCH  19  20
ATOM     20  O   UNL     1       6.974   1.928  -2.674  0.00  0.00    -0.394 OA
ATOM     21  H   UNL     1       7.846   2.339  -2.747  0.00  0.00    +0.209 HD
ENDBRANCH  19  20
ENDBRANCH  17  19
ENDBRANCH  15  17
ENDBRANCH  11  15
ENDBRANCH  10  12
ENDBRANCH   1  10
BRANCH   8  22
ATOM     22  C   UNL     1      -1.429   3.585   0.411  0.00  0.00    -0.042 C 
BRANCH  22  23
ATOM     23  C   UNL     1      -1.244   5.048   0.104  0.00  0.00    -0.060 A 
ATOM     24  C   UNL     1      -2.072   5.987   0.691  0.00  0.00    +0.002 A 
ATOM     25  C   UNL     1      -1.902   7.332   0.416  0.00  0.00    +0.004 A 
ATOM     26  C   UNL     1      -0.911   7.739  -0.456  0.00  0.00    +0.046 A 
ATOM     27  C   UNL     1      -0.082   6.798  -1.051  0.00  0.00    +0.129 A 
ATOM     28  C   UNL     1      -0.252   5.450  -0.769  0.00  0.00    +0.048 A 
BRANCH  27  29
ATOM     29  O   UNL     1       0.893   7.197  -1.909  0.00  0.00    -0.456 OA
BRANCH  29  30
ATOM     30  C   UNL     1       1.975   7.837  -1.393  0.00  0.00    +0.128 A 
ATOM     31  C   UNL     1       2.107   7.979  -0.019  0.00  0.00    +0.046 A 
ATOM     32  C   UNL     1       3.210   8.626   0.504  0.00  0.00    +0.004 A 
ATOM     33  C   UNL     1       4.176   9.142  -0.341  0.00  0.00    +0.000 A 
ATOM     34  C   UNL     1       4.043   9.007  -1.710  0.00  0.00    +0.004 A 
ATOM     35  C   UNL     1       2.945   8.356  -2.238  0.00  0.00    +0.046 A 
ENDBRANCH  29  30
ENDBRANCH  27  29
ENDBRANCH  22  23
ENDBRANCH   8  22
TORSDOF 10
