REMARK  Name = ZINC13624182
REMARK  8 active torsions:
REMARK  status: ('A' for Active; 'I' for Inactive)
REMARK    1  A    between atoms: C_1  and  C_2
REMARK    2  A    between atoms: C_9  and  C_30
REMARK    3  A    between atoms: C_10  and  C_16
REMARK    4  A    between atoms: C_16  and  C_17
REMARK    5  A    between atoms: C_17  and  C_18
REMARK    6  A    between atoms: C_23  and  C_29
REMARK    7  A    between atoms: C_24  and  C_26
REMARK    8  A    between atoms: C_26  and  C_28
REMARK                            x       y       z     vdW  Elec       q    Type
REMARK                         _______ _______ _______ _____ _____    ______ ____
ROOT
ATOM      1  C   UNL     1      -0.018   1.503   0.010  0.00  0.00    +0.047 C 
ATOM      2  C   UNL     1       0.002  -0.004   0.002  0.00  0.00    -0.005 A 
ATOM      3  C   UNL     1       0.009  -0.802  -1.073  0.00  0.00    +0.199 A 
ATOM      4  O   UNL     1       0.028  -2.093  -0.695  0.00  0.00    -0.463 OA
ATOM      5  C   UNL     1       0.035  -2.202   0.649  0.00  0.00    +0.139 A 
ATOM      6  C   UNL     1       0.025  -0.893   1.172  0.00  0.00    +0.024 A 
ATOM      7  C   UNL     1       0.035  -0.683   2.544  0.00  0.00    +0.023 A 
ATOM      8  C   UNL     1       0.058  -1.782   3.403  0.00  0.00    +0.022 A 
ATOM      9  C   UNL     1       0.068  -1.597   4.857  0.00  0.00    -0.030 A 
ATOM     10  C   UNL     1       0.090  -2.703   5.644  0.00  0.00    +0.041 A 
ATOM     11  C   UNL     1       0.102  -3.985   5.054  0.00  0.00    +0.341 A 
ATOM     12  O   UNL     1       0.121  -4.968   5.772  0.00  0.00    -0.245 OA
ATOM     13  O   UNL     1       0.092  -4.149   3.722  0.00  0.00    -0.422 OA
ATOM     14  C   UNL     1       0.071  -3.092   2.879  0.00  0.00    +0.143 A 
ATOM     15  C   UNL     1       0.053  -3.290   1.510  0.00  0.00    +0.093 A 
ATOM     16  C   UNL     1       0.056  -0.217   5.462  0.00  0.00    +0.045 C 
ENDROOT
BRANCH  10  17
ATOM     17  C   UNL     1       0.102  -2.562   7.144  0.00  0.00    +0.052 C 
BRANCH  17  18
ATOM     18  C   UNL     1      -1.329  -2.659   7.677  0.00  0.00    +0.101 C 
BRANCH  18  19
ATOM     19  C   UNL     1      -1.318  -2.518   9.177  0.00  0.00    +0.219 C 
ATOM     20  O   UNL     1      -0.268  -2.357   9.763  0.00  0.00    -0.275 OA
ATOM     21  N   UNL     1      -2.474  -2.572   9.868  0.00  0.00    -0.265 N 
ATOM     22  C   UNL     1      -2.463  -2.443  11.245  0.00  0.00    +0.165 A 
ATOM     23  N   UNL     1      -1.423  -2.257  12.040  0.00  0.00    -0.229 NA
ATOM     24  C   UNL     1      -1.563  -2.151  13.335  0.00  0.00    +0.058 A 
ATOM     25  C   UNL     1      -2.865  -2.245  13.825  0.00  0.00    +0.078 A 
ATOM     26  S   UNL     1      -3.771  -2.478  12.303  0.00  0.00    -0.049 S 
ATOM     27  C   UNL     1      -0.383  -1.940  14.248  0.00  0.00    +0.067 C 
ATOM     28  H   UNL     1      -3.313  -2.701   9.400  0.00  0.00    +0.157 HD
BRANCH  25  29
ATOM     29  C   UNL     1      -3.335  -2.171  15.151  0.00  0.00    +0.168 C 
ATOM     30  O   UNL     1      -2.553  -2.002  16.064  0.00  0.00    -0.292 OA
ATOM     31  C   UNL     1      -4.809  -2.303  15.435  0.00  0.00    +0.092 C 
ENDBRANCH  25  29
ENDBRANCH  18  19
ENDBRANCH  17  18
ENDBRANCH  10  17
TORSDOF 4
