REMARK  Name = ZINC63403634
REMARK  4 active torsions:
REMARK  status: ('A' for Active; 'I' for Inactive)
REMARK    1  A    between atoms: C_7  and  C_10
REMARK    2  A    between atoms: C_10  and  C_11
REMARK    3  A    between atoms: C_16  and  C_19
REMARK    4  A    between atoms: C_22  and  C_24
REMARK                            x       y       z     vdW  Elec       q    Type
REMARK                         _______ _______ _______ _____ _____    ______ ____
ROOT
ATOM      1  C   UNL     1       0.460  -3.646  -1.440  0.00  0.00    +0.223 C 
ATOM      2  O   UNL     1       1.006  -3.075  -2.360  0.00  0.00    -0.275 OA
ATOM      3  N   UNL     1      -0.353  -4.693  -1.684  0.00  0.00    -0.264 N 
ATOM      4  C   UNL     1      -0.565  -5.118  -2.989  0.00  0.00    +0.165 A 
ATOM      5  N   UNL     1      -1.318  -6.105  -3.427  0.00  0.00    -0.225 NA
ATOM      6  C   UNL     1      -1.412  -6.382  -4.728  0.00  0.00    +0.078 A 
ATOM      7  C   UNL     1      -0.694  -5.604  -5.626  0.00  0.00    +0.076 A 
ATOM      8  S   UNL     1       0.107  -4.461  -4.508  0.00  0.00    -0.060 S 
ATOM      9  H   UNL     1      -0.790  -5.150  -0.948  0.00  0.00    +0.157 HD
ENDROOT
BRANCH   6  10
ATOM     10  C   UNL     1      -2.254  -7.484  -5.200  0.00  0.00    +0.003 C 
ATOM     11  C   UNL     1      -2.446  -7.891  -6.484  0.00  0.00    +0.117 C 
ATOM     12  N   UNL     1      -3.272  -8.923  -6.565  0.00  0.00    -0.254 NA
ATOM     13  C   UNL     1      -3.725  -9.329  -5.408  0.00  0.00    +0.107 C 
ATOM     14  C   UNL     1      -3.099  -8.427  -4.362  0.00  0.00    +0.099 C 
BRANCH  13  15
ATOM     15  C   UNL     1      -4.649 -10.439  -5.169  0.00  0.00    +0.256 C 
ATOM     16  O   UNL     1      -4.992 -10.712  -4.033  0.00  0.00    -0.269 OA
ATOM     17  N   UNL     1      -5.121 -11.159  -6.206  0.00  0.00    -0.324 N 
ATOM     18  H   UNL     1      -4.848 -10.942  -7.111  0.00  0.00    +0.145 HD
ATOM     19  H   UNL     1      -5.734 -11.894  -6.048  0.00  0.00    +0.145 HD
ENDBRANCH  13  15
ENDBRANCH   6  10
BRANCH   1  20
ATOM     20  C   UNL     1       0.691  -3.186  -0.024  0.00  0.00    +0.129 C 
BRANCH  20  27
ATOM     21  C   UNL     1      -0.016   1.348   0.009  0.00  0.00    +0.001 A 
ATOM     22  C   UNL     1       1.166   2.101   0.002  0.00  0.00    +0.002 A 
ATOM     23  C   UNL     1       2.391   1.535  -0.013  0.00  0.00    +0.026 A 
ATOM     24  C   UNL     1       2.529   0.120  -0.022  0.00  0.00    +0.043 A 
ATOM     25  N   UNL     1       3.587  -0.654  -0.037  0.00  0.00    -0.380 N 
ATOM     26  C   UNL     1       3.143  -2.053  -0.041  0.00  0.00    +0.145 C 
ATOM     27  C   UNL     1       1.631  -2.008  -0.025  0.00  0.00    -0.033 C 
ATOM     28  C   UNL     1       1.295  -0.698  -0.014  0.00  0.00    -0.001 A 
ATOM     29  C   UNL     1       0.002  -0.004   0.002  0.00  0.00    +0.010 A 
ATOM     30  H   UNL     1       4.509  -0.353  -0.045  0.00  0.00    +0.160 HD
ENDBRANCH  20  27
ENDBRANCH   1  20
TORSDOF 4
