REMARK  Name = ZINC35593396
REMARK  14 active torsions:
REMARK  status: ('A' for Active; 'I' for Inactive)
REMARK    1  A    between atoms: C_1  and  C_2
REMARK    2  A    between atoms: C_2  and  C_3
REMARK    3  A    between atoms: C_3  and  C_5
REMARK    4  A    between atoms: C_3  and  N_6
REMARK    5  A    between atoms: C_7  and  C_9
REMARK    6  A    between atoms: C_9  and  N_10
REMARK    7  A    between atoms: C_13  and  C_24
REMARK    8  A    between atoms: N_15  and  C_16
REMARK    9  A    between atoms: C_19  and  C_23
REMARK   10  A    between atoms: C_21  and  C_22
REMARK   11  A    between atoms: C_24  and  C_25
REMARK   12  A    between atoms: C_24  and  C_26
REMARK   13  A    between atoms: C_24  and  C_27
REMARK   14  A    between atoms: C_28  and  C_34
REMARK                            x       y       z     vdW  Elec       q    Type
REMARK                         _______ _______ _______ _____ _____    ______ ____
ROOT
ATOM      1  N   UNL     1      -5.734  -4.155  -4.774  0.00  0.00    -0.246 N 
ATOM      2  C   UNL     1      -7.015  -3.836  -4.299  0.00  0.00    +0.136 A 
ATOM      3  C   UNL     1      -7.269  -3.420  -3.037  0.00  0.00    +0.034 A 
ATOM      4  C   UNL     1      -8.641  -3.190  -2.929  0.00  0.00    +0.075 A 
ATOM      5  N   UNL     1      -9.195  -3.462  -4.086  0.00  0.00    -0.169 NA
ATOM      6  N   UNL     1      -8.189  -3.876  -4.973  0.00  0.00    -0.217 N 
ATOM      7  C   UNL     1      -6.227  -3.251  -1.961  0.00  0.00    +0.118 C 
ATOM      8  S   UNL     1      -5.241  -1.756  -2.333  0.00  0.00    -0.138 S 
ATOM      9  C   UNL     1      -5.034  -1.883  -4.141  0.00  0.00    +0.166 C 
ATOM     10  C   UNL     1      -4.735  -3.299  -4.538  0.00  0.00    +0.231 C 
ATOM     11  O   UNL     1      -3.585  -3.667  -4.649  0.00  0.00    -0.274 OA
ENDROOT
BRANCH   6  12
ATOM     12  C   UNL     1      -8.366  -4.259  -6.310  0.00  0.00    +0.070 A 
ATOM     13  C   UNL     1      -7.554  -3.724  -7.301  0.00  0.00    +0.028 A 
ATOM     14  C   UNL     1      -7.731  -4.104  -8.617  0.00  0.00    +0.005 A 
ATOM     15  C   UNL     1      -8.717  -5.016  -8.948  0.00  0.00    -0.050 A 
ATOM     16  C   UNL     1      -9.528  -5.550  -7.963  0.00  0.00    +0.008 A 
ATOM     17  C   UNL     1      -9.351  -5.178  -6.645  0.00  0.00    -0.025 A 
ATOM     18  C   UNL     1     -10.231  -5.766  -5.571  0.00  0.00    +0.046 C 
ATOM     19  C   UNL     1      -8.909  -5.427 -10.385  0.00  0.00    +0.044 C 
ENDBRANCH   6  12
BRANCH   7  20
ATOM     20  C   UNL     1      -6.903  -3.096  -0.623  0.00  0.00    +0.007 A 
ATOM     21  C   UNL     1      -7.450  -1.987  -0.066  0.00  0.00    +0.012 A 
ATOM     22  C   UNL     1      -8.023  -2.080   1.188  0.00  0.00    +0.008 A 
ATOM     23  C   UNL     1      -8.022  -3.277   1.825  0.00  0.00    +0.045 A 
ATOM     24  S   UNL     1      -7.198  -4.326   0.637  0.00  0.00    -0.100 S 
ENDBRANCH   7  20
BRANCH   4  25
ATOM     25  C   UNL     1      -9.363  -2.713  -1.695  0.00  0.00    +0.007 C 
ATOM     26  C   UNL     1      -8.893  -1.300  -1.344  0.00  0.00    +0.017 C 
ATOM     27  C   UNL     1     -10.870  -2.699  -1.958  0.00  0.00    +0.017 C 
ATOM     28  C   UNL     1      -9.057  -3.656  -0.529  0.00  0.00    +0.017 C 
ENDBRANCH   4  25
BRANCH   1  29
ATOM     29  C   UNL     1      -5.496  -5.402  -5.506  0.00  0.00    +0.210 C 
BRANCH  29  31
ATOM     30  N   UNL     1      -4.730  -7.699  -5.002  0.00  0.00    -0.311 N 
ATOM     31  C   UNL     1      -5.015  -6.462  -4.549  0.00  0.00    +0.231 C 
ATOM     32  O   UNL     1      -4.885  -6.202  -3.372  0.00  0.00    -0.274 OA
ATOM     33  H   UNL     1      -4.835  -7.907  -5.944  0.00  0.00    +0.149 HD
BRANCH  30  34
ATOM     34  C   UNL     1      -4.263  -8.730  -4.072  0.00  0.00    +0.070 C 
ATOM     35  C   UNL     1      -5.467  -9.407  -3.414  0.00  0.00    +0.028 C 
BRANCH  34  37
ATOM     36  C   UNL     1      -2.176  -9.122  -5.389  0.00  0.00    +0.005 C 
ATOM     37  C   UNL     1      -3.446  -9.774  -4.836  0.00  0.00    +0.018 C 
ENDBRANCH  34  37
ENDBRANCH  30  34
ENDBRANCH  29  31
ENDBRANCH   1  29
TORSDOF 7
