REMARK  Name = ZINC06655428
REMARK  6 active torsions:
REMARK  status: ('A' for Active; 'I' for Inactive)
REMARK    1  A    between atoms: C_1  and  C_2
REMARK    2  A    between atoms: C_2  and  O_3
REMARK    3  A    between atoms: O_3  and  C_4
REMARK    4  A    between atoms: C_4  and  C_6
REMARK    5  A    between atoms: C_17  and  C_18
REMARK    6  A    between atoms: C_27  and  C_29
REMARK                            x       y       z     vdW  Elec       q    Type
REMARK                         _______ _______ _______ _____ _____    ______ ____
ROOT
ATOM      1  C   UNL     1       1.657   3.272  -0.225  0.00  0.00    +0.101 C 
ATOM      2  C   UNL     1       1.033   3.695  -1.557  0.00  0.00    +0.033 C 
ATOM      3  C   UNL     1       0.790   5.207  -1.545  0.00  0.00    +0.107 C 
ATOM      4  N   UNL     1       2.054   5.886  -1.228  0.00  0.00    -0.311 N 
ATOM      5  C   UNL     1       2.783   5.491  -0.015  0.00  0.00    +0.107 C 
ATOM      6  C   UNL     1       3.003   3.976  -0.044  0.00  0.00    +0.033 C 
ATOM      7  C   UNL     1       2.543   6.870  -2.047  0.00  0.00    +0.154 C 
ATOM      8  N   UNL     1       3.654   7.577  -1.910  0.00  0.00    -0.154 NA
ATOM      9  C   UNL     1       4.013   8.500  -2.776  0.00  0.00    +0.276 C 
ATOM     10  O   UNL     1       5.040   9.146  -2.638  0.00  0.00    -0.267 OA
ATOM     11  C   UNL     1       3.105   8.715  -3.923  0.00  0.00    +0.079 C 
ATOM     12  C   UNL     1       3.207   9.588  -4.967  0.00  0.00    +0.027 C 
ATOM     13  S   UNL     1       1.839   7.504  -3.561  0.00  0.00    -0.052 S 
ENDROOT
BRANCH  12  14
ATOM     14  C   UNL     1       2.140   9.727  -5.875  0.00  0.00    -0.006 C 
ATOM     15  C   UNL     1       2.284  10.501  -6.986  0.00  0.00    +0.018 C 
ATOM     16  C   UNL     1       1.132  10.622  -7.891  0.00  0.00    +0.017 A 
ATOM     17  C   UNL     1       1.275  11.098  -9.194  0.00  0.00    +0.011 A 
ATOM     18  C   UNL     1       0.165  11.199 -10.007  0.00  0.00    +0.001 A 
ATOM     19  C   UNL     1      -1.085  10.831  -9.533  0.00  0.00    +0.004 A 
ATOM     20  C   UNL     1      -1.238  10.357  -8.243  0.00  0.00    +0.046 A 
ATOM     21  C   UNL     1      -0.137  10.249  -7.413  0.00  0.00    +0.128 A 
ATOM     22  O   UNL     1      -0.255   9.789  -6.143  0.00  0.00    -0.484 OA
ATOM     23  C   UNL     1       0.832   9.026  -5.619  0.00  0.00    +0.201 C 
ATOM     24  C   UNL     1       0.855   7.651  -6.291  0.00  0.00    +0.057 C 
ENDBRANCH  12  14
BRANCH   1  25
ATOM     25  C   UNL     1       1.866   1.779  -0.220  0.00  0.00    +0.310 C 
ATOM     26  O   UNL     1       2.977   1.325  -0.085  0.00  0.00    -0.251 OA
BRANCH  25  27
ATOM     27  O   UNL     1       0.817   0.954  -0.365  0.00  0.00    -0.465 OA
BRANCH  27  29
ATOM     28  C   UNL     1      -0.215  -1.246  -0.528  0.00  0.00    +0.048 C 
ATOM     29  C   UNL     1       1.093  -0.471  -0.351  0.00  0.00    +0.229 C 
ENDBRANCH  27  29
ENDBRANCH  25  27
ENDBRANCH   1  25
TORSDOF 4
