REMARK  Name = ZINC48035480
REMARK  8 active torsions:
REMARK  status: ('A' for Active; 'I' for Inactive)
REMARK    1  A    between atoms: C_1  and  C_2
REMARK    2  A    between atoms: C_7  and  N_27
REMARK    3  A    between atoms: C_12  and  C_14
REMARK    4  A    between atoms: N_16  and  C_17
REMARK    5  A    between atoms: C_17  and  C_18
REMARK    6  A    between atoms: C_18  and  C_20
REMARK    7  A    between atoms: C_18  and  C_21
REMARK    8  A    between atoms: C_21  and  N_22
REMARK                            x       y       z     vdW  Elec       q    Type
REMARK                         _______ _______ _______ _____ _____    ______ ____
ROOT
ATOM      1  C   UNL     1       1.588  -2.045   1.054  0.00  0.00    +0.029 C 
ATOM      2  C   UNL     1       1.631  -0.558   0.699  0.00  0.00    +0.083 C 
ATOM      3  C   UNL     1       1.626  -0.373  -0.827  0.00  0.00    +0.059 C 
ATOM      4  C   UNL     1       0.367   0.414  -1.111  0.00  0.00    -0.022 A 
ATOM      5  C   UNL     1      -0.166   0.875  -2.299  0.00  0.00    +0.038 A 
ATOM      6  C   UNL     1      -1.352   1.585  -2.300  0.00  0.00    +0.127 A 
ATOM      7  C   UNL     1      -2.005   1.834  -1.107  0.00  0.00    +0.034 A 
ATOM      8  C   UNL     1      -1.478   1.377   0.082  0.00  0.00    +0.026 A 
ATOM      9  C   UNL     1      -0.280   0.659   0.091  0.00  0.00    +0.040 A 
ATOM     10  N   UNL     1       0.418   0.114   1.173  0.00  0.00    -0.260 N 
ATOM     11  C   UNL     1       0.032   0.193   2.462  0.00  0.00    +0.306 C 
ATOM     12  O   UNL     1      -1.048   0.669   2.744  0.00  0.00    -0.265 OA
ENDROOT
BRANCH  11  13
ATOM     13  C   UNL     1       0.934  -0.306   3.543  0.00  0.00    +0.300 C 
ATOM     14  O   UNL     1       2.056  -0.682   3.272  0.00  0.00    -0.265 OA
ATOM     15  N   UNL     1       0.502  -0.338   4.819  0.00  0.00    -0.307 N 
ATOM     16  H   UNL     1      -0.394  -0.037   5.036  0.00  0.00    +0.149 HD
BRANCH  15  17
ATOM     17  C   UNL     1       1.387  -0.827   5.880  0.00  0.00    +0.106 C 
BRANCH  17  18
ATOM     18  C   UNL     1       0.659  -0.759   7.224  0.00  0.00    -0.014 C 
ATOM     19  C   UNL     1      -0.529  -1.724   7.210  0.00  0.00    +0.007 C 
BRANCH  18  20
ATOM     20  C   UNL     1       1.621  -1.151   8.346  0.00  0.00    -0.074 C 
BRANCH  20  21
ATOM     21  N   UNL     1       2.694  -0.151   8.443  0.00  0.00    +0.380 N 
ATOM     22  C   UNL     1       2.152   1.132   8.959  0.00  0.00    -0.079 C 
ATOM     23  C   UNL     1       3.407   1.844   9.524  0.00  0.00    -0.020 C 
ATOM     24  C   UNL     1       4.217   0.681  10.141  0.00  0.00    -0.020 C 
ATOM     25  C   UNL     1       3.709  -0.586   9.427  0.00  0.00    -0.079 C 
ATOM     26  H   UNL     1       3.122  -0.011   7.540  0.00  0.00    -0.082 HD
ENDBRANCH  20  21
ENDBRANCH  18  20
ENDBRANCH  17  18
ENDBRANCH  15  17
ENDBRANCH  11  13
BRANCH   6  27
ATOM     27  N   UNL     1      -1.921   2.078  -3.575  0.00  0.00    +0.056 N 
ATOM     28  O   UNL     1      -1.349   1.859  -4.617  0.00  0.00    -0.126 OA
ATOM     29  O   UNL     1      -2.958   2.699  -3.573  0.00  0.00    -0.126 OA
ENDBRANCH   6  27
TORSDOF 6
