REMARK  Name = ZINC12309084
REMARK  10 active torsions:
REMARK  status: ('A' for Active; 'I' for Inactive)
REMARK    1  A    between atoms: C_1  and  C_2
REMARK    2  A    between atoms: C_2  and  O_3
REMARK    3  A    between atoms: O_3  and  C_4
REMARK    4  A    between atoms: C_4  and  C_6
REMARK    5  A    between atoms: C_6  and  N_7
REMARK    6  A    between atoms: N_16  and  C_17
REMARK    7  A    between atoms: C_17  and  C_19
REMARK    8  A    between atoms: C_19  and  C_20
REMARK    9  A    between atoms: C_23  and  S_26
REMARK   10  A    between atoms: S_26  and  C_29
REMARK                            x       y       z     vdW  Elec       q    Type
REMARK                         _______ _______ _______ _____ _____    ______ ____
ROOT
ATOM      1  N   UNL     1      -2.102   5.873  -3.659  0.00  0.00    -0.310 N 
ATOM      2  C   UNL     1      -1.339   5.521  -2.560  0.00  0.00    +0.062 A 
ATOM      3  C   UNL     1      -0.583   4.355  -2.364  0.00  0.00    +0.076 A 
ATOM      4  C   UNL     1       0.129   4.155  -1.198  0.00  0.00    +0.164 A 
ATOM      5  C   UNL     1       0.115   5.111  -0.186  0.00  0.00    +0.163 A 
ATOM      6  C   UNL     1      -0.625   6.272  -0.357  0.00  0.00    +0.066 A 
ATOM      7  C   UNL     1      -1.332   6.462  -1.521  0.00  0.00    +0.043 A 
ATOM      8  S   UNL     1      -2.378   7.757  -2.137  0.00  0.00    -0.052 S 
ATOM      9  C   UNL     1      -2.774   7.055  -3.672  0.00  0.00    +0.167 A 
ATOM     10  N   UNL     1      -3.549   7.554  -4.633  0.00  0.00    -0.156 NA
ATOM     11  O   UNL     1       0.817   4.928   0.965  0.00  0.00    -0.485 OA
ATOM     12  C   UNL     1       1.249   3.592   1.249  0.00  0.00    +0.270 C 
ATOM     13  C   UNL     1       1.854   3.002  -0.032  0.00  0.00    +0.270 C 
ATOM     14  O   UNL     1       0.847   3.006  -1.049  0.00  0.00    -0.485 OA
ENDROOT
BRANCH  10  15
ATOM     15  C   UNL     1      -4.130   8.737  -4.471  0.00  0.00    +0.243 C 
ATOM     16  O   UNL     1      -3.955   9.365  -3.444  0.00  0.00    -0.273 OA
BRANCH  15  17
ATOM     17  C   UNL     1      -5.007   9.301  -5.559  0.00  0.00    +0.133 C 
BRANCH  17  18
ATOM     18  C   UNL     1      -5.540  10.643  -5.128  0.00  0.00    -0.038 A 
ATOM     19  C   UNL     1      -6.740  10.724  -4.446  0.00  0.00    +0.006 A 
ATOM     20  C   UNL     1      -7.227  11.955  -4.047  0.00  0.00    +0.027 A 
ATOM     21  C   UNL     1      -6.519  13.106  -4.339  0.00  0.00    +0.088 A 
ATOM     22  C   UNL     1      -5.322  13.026  -5.026  0.00  0.00    +0.027 A 
ATOM     23  C   UNL     1      -4.833  11.794  -5.421  0.00  0.00    +0.006 A 
BRANCH  21  24
ATOM     24  S   UNL     1      -7.142  14.675  -3.836  0.00  0.00    -0.006 S 
ATOM     25  O   UNL     1      -7.957  14.396  -2.705  0.00  0.00    -0.170 OA
ATOM     26  O   UNL     1      -5.992  15.500  -3.714  0.00  0.00    -0.170 OA
ATOM     27  C   UNL     1      -8.169  15.236  -5.223  0.00  0.00    +0.200 C 
ENDBRANCH  21  24
ENDBRANCH  17  18
ENDBRANCH  15  17
ENDBRANCH  10  15
BRANCH   1  28
ATOM     28  C   UNL     1      -2.187   4.971  -4.810  0.00  0.00    +0.244 C 
BRANCH  28  29
ATOM     29  C   UNL     1      -3.604   4.943  -5.323  0.00  0.00    +0.327 C 
ATOM     30  O   UNL     1      -4.486   5.471  -4.689  0.00  0.00    -0.249 OA
BRANCH  29  31
ATOM     31  O   UNL     1      -3.885   4.331  -6.484  0.00  0.00    -0.464 OA
BRANCH  31  33
ATOM     32  C   UNL     1      -5.396   3.602  -8.250  0.00  0.00    +0.048 C 
ATOM     33  C   UNL     1      -5.271   4.343  -6.917  0.00  0.00    +0.229 C 
ENDBRANCH  31  33
ENDBRANCH  29  31
ENDBRANCH  28  29
ENDBRANCH   1  28
TORSDOF 8
