REMARK  Name = ZINC13372541
REMARK  6 active torsions:
REMARK  status: ('A' for Active; 'I' for Inactive)
REMARK    1  A    between atoms: C_4  and  C_11
REMARK    2  A    between atoms: N_12  and  N_13
REMARK    3  A    between atoms: C_14  and  C_16
REMARK    4  A    between atoms: C_18  and  C_21
REMARK    5  A    between atoms: N_23  and  N_24
REMARK    6  A    between atoms: C_25  and  C_26
REMARK                            x       y       z     vdW  Elec       q    Type
REMARK                         _______ _______ _______ _____ _____    ______ ____
ROOT
ATOM      1  C   UNL     1       3.306   9.301  -1.400  0.00  0.00    +0.089 C 
ATOM      2  C   UNL     1       2.539   9.109  -0.090  0.00  0.00    +0.089 C 
ATOM      3  C   UNL     1       3.583   8.077  -0.524  0.00  0.00    +0.027 C 
ENDROOT
BRANCH   1   5
ATOM      4  N   UNL     1       2.658   9.973  -3.690  0.00  0.00    -0.207 N 
ATOM      5  C   UNL     1       2.552   9.080  -2.686  0.00  0.00    +0.236 C 
ATOM      6  O   UNL     1       1.850   8.099  -2.817  0.00  0.00    -0.274 OA
ATOM      7  H   UNL     1       3.219  10.757  -3.585  0.00  0.00    +0.177 HD
BRANCH   4   9
ATOM      8  C   UNL     1       2.058  10.629  -5.854  0.00  0.00    +0.140 C 
ATOM      9  N   UNL     1       1.957   9.768  -4.886  0.00  0.00    -0.188 NA
BRANCH   8  13
ATOM     10  C   UNL     1      -0.839   7.254  -7.323  0.00  0.00    +0.001 A 
ATOM     11  C   UNL     1       0.026   8.147  -6.729  0.00  0.00    +0.010 A 
ATOM     12  C   UNL     1       0.433   9.281  -7.427  0.00  0.00    +0.008 A 
ATOM     13  C   UNL     1       1.322  10.413  -7.110  0.00  0.00    +0.020 A 
ATOM     14  C   UNL     1       1.329  11.221  -8.205  0.00  0.00    +0.093 A 
ATOM     15  N   UNL     1       0.525  10.692  -9.171  0.00  0.00    -0.360 N 
ATOM     16  H   UNL     1       0.371  11.088 -10.042  0.00  0.00    +0.165 HD
ATOM     17  C   UNL     1      -0.036   9.511  -8.731  0.00  0.00    +0.047 A 
ATOM     18  C   UNL     1      -0.908   8.597  -9.314  0.00  0.00    +0.026 A 
ATOM     19  C   UNL     1      -1.303   7.480  -8.611  0.00  0.00    +0.002 A 
ENDBRANCH   8  13
ENDBRANCH   4   9
ENDBRANCH   1   5
BRANCH   2  20
ATOM     20  C   UNL     1       1.088   8.714  -0.184  0.00  0.00    +0.236 C 
ATOM     21  O   UNL     1       0.769   7.548  -0.088  0.00  0.00    -0.274 OA
ATOM     22  N   UNL     1       0.145   9.658  -0.376  0.00  0.00    -0.207 N 
ATOM     23  H   UNL     1       0.400  10.590  -0.453  0.00  0.00    +0.177 HD
BRANCH  22  24
ATOM     24  N   UNL     1      -1.205   9.291  -0.464  0.00  0.00    -0.188 NA
ATOM     25  C   UNL     1      -2.114  10.200  -0.649  0.00  0.00    +0.140 C 
BRANCH  25  26
ATOM     26  C   UNL     1      -3.531   9.815  -0.741  0.00  0.00    +0.020 A 
ATOM     27  C   UNL     1      -4.082   8.452  -0.639  0.00  0.00    +0.008 A 
ATOM     28  C   UNL     1      -5.473   8.584  -0.788  0.00  0.00    +0.047 A 
ATOM     29  N   UNL     1      -5.744   9.924  -0.966  0.00  0.00    -0.360 N 
ATOM     30  H   UNL     1      -6.630  10.299  -1.093  0.00  0.00    +0.165 HD
ATOM     31  C   UNL     1      -4.590  10.648  -0.931  0.00  0.00    +0.093 A 
ATOM     32  C   UNL     1      -6.276   7.449  -0.735  0.00  0.00    +0.026 A 
ATOM     33  C   UNL     1      -5.704   6.211  -0.539  0.00  0.00    +0.002 A 
ATOM     34  C   UNL     1      -4.331   6.082  -0.393  0.00  0.00    +0.001 A 
ATOM     35  C   UNL     1      -3.518   7.194  -0.442  0.00  0.00    +0.010 A 
ENDBRANCH  25  26
ENDBRANCH  22  24
ENDBRANCH   2  20
TORSDOF 6
