REMARK  Name = ZINC13790095
REMARK  8 active torsions:
REMARK  status: ('A' for Active; 'I' for Inactive)
REMARK    1  A    between atoms: C_1  and  C_2
REMARK    2  A    between atoms: C_2  and  O_3
REMARK    3  A    between atoms: O_3  and  C_4
REMARK    4  A    between atoms: C_4  and  C_6
REMARK    5  A    between atoms: C_10  and  N_11
REMARK    6  A    between atoms: C_12  and  C_14
REMARK    7  A    between atoms: N_19  and  S_21
REMARK    8  A    between atoms: S_21  and  C_24
REMARK                            x       y       z     vdW  Elec       q    Type
REMARK                         _______ _______ _______ _____ _____    ______ ____
ROOT
ATOM      1  C   UNL     1      -7.500   1.644  -1.701  0.00  0.00    +0.091 A 
ATOM      2  C   UNL     1      -8.833   1.152  -1.396  0.00  0.00    -0.021 A 
ATOM      3  C   UNL     1      -8.947   0.488  -0.225  0.00  0.00    -0.004 A 
ATOM      4  S   UNL     1      -7.317   0.503   0.466  0.00  0.00    -0.077 S 
ATOM      5  C   UNL     1      -6.495   1.388  -0.777  0.00  0.00    +0.086 A 
ATOM      6  C   UNL     1     -10.188  -0.126   0.347  0.00  0.00    +0.043 C 
ATOM      7  C   UNL     1     -11.399   0.431  -0.414  0.00  0.00    +0.005 C 
ATOM      8  C   UNL     1     -11.121   0.343  -1.917  0.00  0.00    +0.005 C 
ATOM      9  C   UNL     1     -10.038   1.351  -2.306  0.00  0.00    +0.037 C 
ENDROOT
BRANCH   5  10
ATOM     10  N   UNL     1      -5.157   1.747  -0.837  0.00  0.00    -0.279 N 
ATOM     11  C   UNL     1      -4.322   1.406   0.165  0.00  0.00    +0.222 C 
ATOM     12  O   UNL     1      -4.741   0.786   1.119  0.00  0.00    -0.275 OA
ATOM     13  H   UNL     1      -4.822   2.243  -1.601  0.00  0.00    +0.155 HD
BRANCH  11  14
ATOM     14  C   UNL     1      -2.868   1.797   0.099  0.00  0.00    +0.091 C 
ATOM     15  C   UNL     1      -2.228   1.174  -1.143  0.00  0.00    +0.015 C 
ATOM     16  C   UNL     1      -0.759   1.596  -1.228  0.00  0.00    +0.018 C 
ATOM     17  C   UNL     1      -0.013   1.086   0.008  0.00  0.00    +0.109 C 
ATOM     18  N   UNL     1      -0.706   1.562   1.213  0.00  0.00    -0.181 NA
ATOM     19  C   UNL     1      -2.146   1.289   1.351  0.00  0.00    +0.121 C 
BRANCH  18  20
ATOM     20  S   UNL     1       0.116   2.392   2.386  0.00  0.00    +0.029 S 
ATOM     21  O   UNL     1      -0.617   2.153   3.580  0.00  0.00    -0.158 OA
ATOM     22  O   UNL     1       1.463   1.955   2.264  0.00  0.00    -0.158 OA
ATOM     23  C   UNL     1      -0.021   4.136   1.907  0.00  0.00    +0.215 C 
ENDBRANCH  18  20
ENDBRANCH  11  14
ENDBRANCH   5  10
BRANCH   1  24
ATOM     24  C   UNL     1      -7.226   2.383  -2.935  0.00  0.00    +0.342 C 
ATOM     25  O   UNL     1      -6.892   1.785  -3.940  0.00  0.00    -0.245 OA
BRANCH  24  26
ATOM     26  O   UNL     1      -7.346   3.726  -2.958  0.00  0.00    -0.461 OA
BRANCH  26  28
ATOM     27  C   UNL     1      -7.247   5.901  -4.048  0.00  0.00    +0.048 C 
ATOM     28  C   UNL     1      -7.059   4.392  -4.216  0.00  0.00    +0.229 C 
ENDBRANCH  26  28
ENDBRANCH  24  26
ENDBRANCH   1  24
TORSDOF 6
