REMARK  Name = ZINC38680724
REMARK  8 active torsions:
REMARK  status: ('A' for Active; 'I' for Inactive)
REMARK    1  A    between atoms: C_4  and  C_7
REMARK    2  A    between atoms: C_7  and  C_8
REMARK    3  A    between atoms: C_7  and  C_14
REMARK    4  A    between atoms: C_14  and  O_16
REMARK    5  A    between atoms: O_16  and  C_17
REMARK    6  A    between atoms: C_24  and  N_38
REMARK    7  A    between atoms: C_25  and  C_36
REMARK    8  A    between atoms: C_26  and  C_28
REMARK                            x       y       z     vdW  Elec       q    Type
REMARK                         _______ _______ _______ _____ _____    ______ ____
ROOT
ATOM      1  C   UNL     1       4.062  -1.790  -3.615  0.00  0.00    +0.135 A 
ATOM      2  C   UNL     1       4.395  -3.124  -3.426  0.00  0.00    +0.047 A 
ATOM      3  C   UNL     1       4.578  -3.951  -4.516  0.00  0.00    +0.012 A 
ATOM      4  C   UNL     1       4.431  -3.456  -5.800  0.00  0.00    +0.008 A 
ATOM      5  C   UNL     1       4.099  -2.124  -5.995  0.00  0.00    +0.138 A 
ATOM      6  C   UNL     1       3.909  -1.292  -4.899  0.00  0.00    +0.093 A 
ATOM      7  O   UNL     1       3.950  -1.620  -7.245  0.00  0.00    -0.441 OA
ATOM      8  C   UNL     1       3.741  -2.449  -8.281  0.00  0.00    +0.199 C 
ATOM      9  C   UNL     1       4.045  -3.767  -8.217  0.00  0.00    +0.098 C 
ATOM     10  C   UNL     1       4.635  -4.374  -6.976  0.00  0.00    +0.102 C 
ENDROOT
BRANCH  10  11
ATOM     11  C   UNL     1       6.111  -4.598  -7.183  0.00  0.00    +0.019 A 
ATOM     12  C   UNL     1       6.946  -3.524  -7.440  0.00  0.00    +0.129 A 
ATOM     13  C   UNL     1       8.301  -3.731  -7.631  0.00  0.00    +0.039 A 
ATOM     14  C   UNL     1       8.821  -5.011  -7.564  0.00  0.00    +0.004 A 
ATOM     15  C   UNL     1       7.988  -6.083  -7.307  0.00  0.00    +0.020 A 
ATOM     16  C   UNL     1       6.633  -5.877  -7.111  0.00  0.00    +0.048 A 
ATOM     17 CL   UNL     1       5.589  -7.223  -6.781  0.00  0.00    -0.083 Cl
ATOM     18  F   UNL     1       6.438  -2.274  -7.506  0.00  0.00    -0.205 F 
ENDBRANCH  10  11
BRANCH   8  19
ATOM     19  N   UNL     1       3.204  -1.945  -9.439  0.00  0.00    -0.328 N 
ATOM     20  H   UNL     1       2.981  -1.003  -9.501  0.00  0.00    +0.145 HD
ATOM     21  H   UNL     1       3.047  -2.531 -10.196  0.00  0.00    +0.145 HD
ENDBRANCH   8  19
BRANCH   9  22
ATOM     22  C   UNL     1       3.797  -4.600  -9.355  0.00  0.00    +0.101 C 
ATOM     23  N   UNL     1       3.601  -5.261 -10.258  0.00  0.00    -0.191 NA
ENDBRANCH   9  22
BRANCH   1  24
ATOM     24  O   UNL     1       3.882  -0.974  -2.543  0.00  0.00    -0.425 OA
BRANCH  24  25
ATOM     25  C   UNL     1       4.973  -0.543  -1.889  0.00  0.00    +0.324 C 
ATOM     26  O   UNL     1       6.074  -0.805  -2.312  0.00  0.00    -0.249 OA
BRANCH  25  27
ATOM     27  C   UNL     1       4.823   0.268  -0.628  0.00  0.00    +0.158 C 
BRANCH  27  31
ATOM     28  C   UNL     1       2.704  -2.019   2.291  0.00  0.00    +0.000 A 
ATOM     29  C   UNL     1       2.352  -0.704   2.056  0.00  0.00    +0.000 A 
ATOM     30  C   UNL     1       3.038   0.037   1.111  0.00  0.00    +0.005 A 
ATOM     31  C   UNL     1       4.076  -0.539   0.403  0.00  0.00    -0.029 A 
ATOM     32  C   UNL     1       4.428  -1.854   0.639  0.00  0.00    +0.005 A 
ATOM     33  C   UNL     1       3.741  -2.595   1.583  0.00  0.00    +0.000 A 
ENDBRANCH  27  31
BRANCH  27  34
ATOM     34  C   UNL     1       6.187   0.624  -0.095  0.00  0.00    -0.029 A 
ATOM     35  C   UNL     1       7.058  -0.375   0.299  0.00  0.00    +0.005 A 
ATOM     36  C   UNL     1       8.309  -0.049   0.788  0.00  0.00    +0.000 A 
ATOM     37  C   UNL     1       8.690   1.277   0.883  0.00  0.00    +0.000 A 
ATOM     38  C   UNL     1       7.820   2.276   0.488  0.00  0.00    +0.000 A 
ATOM     39  C   UNL     1       6.570   1.949  -0.005  0.00  0.00    +0.005 A 
ENDBRANCH  27  34
ENDBRANCH  25  27
ENDBRANCH  24  25
ENDBRANCH   1  24
TORSDOF 8
