REMARK  Name = ZINC63755508
REMARK  10 active torsions:
REMARK  status: ('A' for Active; 'I' for Inactive)
REMARK    1  A    between atoms: C_1  and  C_2
REMARK    2  A    between atoms: C_2  and  O_3
REMARK    3  A    between atoms: O_3  and  C_4
REMARK    4  A    between atoms: C_7  and  C_10
REMARK    5  A    between atoms: C_10  and  C_11
REMARK    6  A    between atoms: N_13  and  C_14
REMARK    7  A    between atoms: C_14  and  C_15
REMARK    8  A    between atoms: C_15  and  S_16
REMARK    9  A    between atoms: S_16  and  C_17
REMARK   10  A    between atoms: C_25  and  C_27
REMARK                            x       y       z     vdW  Elec       q    Type
REMARK                         _______ _______ _______ _____ _____    ______ ____
ROOT
ATOM      1  S   UNL     1      -2.501 -10.534   4.729  0.00  0.00    -0.125 S 
ENDROOT
BRANCH   1   2
ATOM      2  C   UNL     1      -2.835 -12.152   4.566  0.00  0.00    +0.021 C 
ATOM      3  C   UNL     1      -2.925 -12.877   3.382  0.00  0.00    +0.010 A 
ATOM      4  C   UNL     1      -2.776 -12.510   2.027  0.00  0.00    +0.011 A 
ATOM      5  C   UNL     1      -2.922 -13.447   1.055  0.00  0.00    +0.001 A 
ATOM      6  C   UNL     1      -3.219 -14.776   1.361  0.00  0.00    +0.002 A 
ATOM      7  C   UNL     1      -3.376 -15.198   2.640  0.00  0.00    +0.026 A 
ATOM      8  C   UNL     1      -3.238 -14.277   3.709  0.00  0.00    +0.044 A 
ATOM      9  N   UNL     1      -3.340 -14.434   5.016  0.00  0.00    -0.373 N 
ATOM     10  C   UNL     1      -3.098 -13.147   5.676  0.00  0.00    +0.147 C 
ATOM     11  H   UNL     1      -3.540 -15.268   5.468  0.00  0.00    +0.161 HD
BRANCH  10  12
ATOM     12  C   UNL     1      -4.313 -12.734   6.465  0.00  0.00    -0.020 A 
ATOM     13  C   UNL     1      -5.578 -13.012   5.981  0.00  0.00    +0.009 A 
ATOM     14  C   UNL     1      -6.694 -12.635   6.705  0.00  0.00    +0.039 A 
ATOM     15  C   UNL     1      -6.544 -11.978   7.915  0.00  0.00    +0.123 A 
ATOM     16  C   UNL     1      -5.276 -11.700   8.398  0.00  0.00    +0.039 A 
ATOM     17  C   UNL     1      -4.162 -12.083   7.675  0.00  0.00    +0.009 A 
ATOM     18  F   UNL     1      -7.633 -11.608   8.623  0.00  0.00    -0.205 F 
ENDBRANCH  10  12
ENDBRANCH   1   2
BRANCH   1  19
ATOM     19  C   UNL     1      -2.448  -9.924   3.021  0.00  0.00    +0.093 C 
BRANCH  19  20
ATOM     20  C   UNL     1      -2.288  -8.402   3.029  0.00  0.00    +0.115 C 
BRANCH  20  23
ATOM     21  C   UNL     1      -2.107  -6.590   1.410  0.00  0.00    +0.217 C 
ATOM     22  O   UNL     1      -2.020  -5.811   2.336  0.00  0.00    -0.275 OA
ATOM     23  N   UNL     1      -2.244  -7.909   1.650  0.00  0.00    -0.314 N 
ATOM     24  H   UNL     1      -2.315  -8.532   0.910  0.00  0.00    +0.149 HD
BRANCH  21  25
ATOM     25  C   UNL     1      -2.063  -6.083  -0.008  0.00  0.00    +0.130 C 
BRANCH  25  29
ATOM     26  C   UNL     1      -1.616  -1.833   0.011  0.00  0.00    +0.121 A 
ATOM     27  C   UNL     1      -0.494  -2.649   0.001  0.00  0.00    +0.046 A 
ATOM     28  C   UNL     1      -0.642  -4.023  -0.005  0.00  0.00    +0.007 A 
ATOM     29  C   UNL     1      -1.905  -4.584  -0.001  0.00  0.00    -0.038 A 
ATOM     30  C   UNL     1      -3.025  -3.772   0.009  0.00  0.00    +0.007 A 
ATOM     31  C   UNL     1      -2.883  -2.398   0.021  0.00  0.00    +0.046 A 
BRANCH  26  32
ATOM     32  O   UNL     1      -1.474  -0.481   0.018  0.00  0.00    -0.492 OA
BRANCH  32  34
ATOM     33  C   UNL     1      -0.181   1.560   0.017  0.00  0.00    +0.048 C 
ATOM     34  C   UNL     1      -0.140   0.031   0.007  0.00  0.00    +0.225 C 
ENDBRANCH  32  34
ENDBRANCH  26  32
ENDBRANCH  25  29
ENDBRANCH  21  25
ENDBRANCH  20  23
ENDBRANCH  19  20
ENDBRANCH   1  19
TORSDOF 9
