REMARK  Name = ZINC39710567
REMARK  15 active torsions:
REMARK  status: ('A' for Active; 'I' for Inactive)
REMARK    1  A    between atoms: C_1  and  C_2
REMARK    2  A    between atoms: C_2  and  C_3
REMARK    3  A    between atoms: C_10  and  C_15
REMARK    4  A    between atoms: C_15  and  C_17
REMARK    5  A    between atoms: C_15  and  N_27
REMARK    6  A    between atoms: N_22  and  C_23
REMARK    7  A    between atoms: C_23  and  C_24
REMARK    8  A    between atoms: C_23  and  C_25
REMARK    9  A    between atoms: C_23  and  C_26
REMARK   10  A    between atoms: N_27  and  C_28
REMARK   11  A    between atoms: N_27  and  C_37
REMARK   12  A    between atoms: C_28  and  C_29
REMARK   13  A    between atoms: C_33  and  O_35
REMARK   14  A    between atoms: O_35  and  C_36
REMARK   15  A    between atoms: C_37  and  C_38
REMARK                            x       y       z     vdW  Elec       q    Type
REMARK                         _______ _______ _______ _____ _____    ______ ____
ROOT
ATOM      1  C   UNL     1       0.603  -0.918   6.833  0.00  0.00    -0.009 C 
ENDROOT
BRANCH   1   9
ATOM      2  C   UNL     1      -0.283   0.739   1.309  0.00  0.00    -0.047 A 
ATOM      3  C   UNL     1       1.087   0.771   1.048  0.00  0.00    +0.005 A 
ATOM      4  C   UNL     1       2.007   0.238   1.895  0.00  0.00    +0.024 A 
ATOM      5  C   UNL     1       1.603  -0.378   3.092  0.00  0.00    +0.040 A 
ATOM      6  N   UNL     1       2.514  -0.897   3.916  0.00  0.00    -0.285 N 
ATOM      7  C   UNL     1       2.203  -1.490   5.056  0.00  0.00    +0.223 C 
ATOM      8  O   UNL     1       3.079  -1.945   5.767  0.00  0.00    -0.275 OA
ATOM      9  C   UNL     1       0.753  -1.601   5.473  0.00  0.00    +0.088 C 
ATOM     10  C   UNL     1      -0.287  -1.013   4.540  0.00  0.00    -0.006 C 
ATOM     11  C   UNL     1       0.161  -0.427   3.394  0.00  0.00    -0.007 A 
ATOM     12  C   UNL     1      -0.774   0.171   2.440  0.00  0.00    +0.013 A 
ATOM     13  H   UNL     1       3.449  -0.836   3.667  0.00  0.00    +0.155 HD
BRANCH   2  15
ATOM     14  C   UNL     1      -1.454   2.827   0.663  0.00  0.00    +0.009 C 
ATOM     15  C   UNL     1      -1.237   1.353   0.317  0.00  0.00    +0.032 C 
ENDBRANCH   2  15
ENDBRANCH   1   9
BRANCH   1  16
ATOM     16  C   UNL     1       1.121   0.519   6.743  0.00  0.00    +0.205 C 
ATOM     17  N   UNL     1       2.587   0.531   6.656  0.00  0.00    -0.152 NA
ATOM     18  N   UNL     1       3.039   1.137   7.630  0.00  0.00    -0.070 NA
ATOM     19  N   UNL     1       2.044   1.609   8.485  0.00  0.00    -0.179 N 
ATOM     20  N   UNL     1       0.814   1.257   7.987  0.00  0.00    -0.183 NA
ATOM     21  H   UNL     1       2.196   2.108   9.303  0.00  0.00    +0.191 HD
BRANCH  20  22
ATOM     22  C   UNL     1      -0.003   2.445   7.706  0.00  0.00    +0.035 C 
ATOM     23  C   UNL     1      -1.280   2.025   6.976  0.00  0.00    +0.029 C 
ATOM     24  C   UNL     1      -0.370   3.134   9.022  0.00  0.00    +0.029 C 
ATOM     25  C   UNL     1       0.791   3.414   6.827  0.00  0.00    +0.029 C 
ENDBRANCH  20  22
ENDBRANCH   1  16
BRANCH   1  26
ATOM     26  N   UNL     1       1.378  -1.656   7.840  0.00  0.00    +0.389 N 
ATOM     27  H   UNL     1       2.362  -1.575   7.632  0.00  0.00    -0.081 HD
BRANCH  26  28
ATOM     28  C   UNL     1       0.987  -3.071   7.818  0.00  0.00    -0.042 C 
BRANCH  28  29
ATOM     29  C   UNL     1      -0.478  -3.193   8.147  0.00  0.00    -0.060 A 
ATOM     30  C   UNL     1      -0.889  -3.224   9.467  0.00  0.00    +0.002 A 
ATOM     31  C   UNL     1      -2.233  -3.336   9.773  0.00  0.00    +0.004 A 
ATOM     32  C   UNL     1      -3.169  -3.418   8.759  0.00  0.00    +0.045 A 
ATOM     33  C   UNL     1      -2.759  -3.388   7.434  0.00  0.00    +0.120 A 
ATOM     34  C   UNL     1      -1.410  -3.269   7.130  0.00  0.00    +0.047 A 
BRANCH  33  35
ATOM     35  O   UNL     1      -3.677  -3.468   6.436  0.00  0.00    -0.495 OA
ATOM     36  C   UNL     1      -5.048  -3.582   6.823  0.00  0.00    +0.277 C 
ENDBRANCH  33  35
ENDBRANCH  28  29
ENDBRANCH  26  28
BRANCH  26  37
ATOM     37  C   UNL     1       1.111  -1.095   9.171  0.00  0.00    -0.046 C 
BRANCH  37  38
ATOM     38  C   UNL     1       1.960  -1.826  10.213  0.00  0.00    +0.102 C 
ATOM     39  C   UNL     1       1.625  -1.301  11.625  0.00  0.00    +0.032 C 
ATOM     40  C   UNL     1       3.021  -1.264  12.303  0.00  0.00    +0.030 C 
ATOM     41  C   UNL     1       3.922  -0.887  11.101  0.00  0.00    +0.160 C 
ATOM     42  O   UNL     1       3.349  -1.571   9.973  0.00  0.00    -0.378 OA
ENDBRANCH  37  38
ENDBRANCH  26  37
ENDBRANCH   1  26
TORSDOF 10
