REMARK  Name = ZINC03965078
REMARK  7 active torsions:
REMARK  status: ('A' for Active; 'I' for Inactive)
REMARK    1  A    between atoms: C_4  and  C_7
REMARK    2  A    between atoms: C_13  and  O_33
REMARK    3  A    between atoms: C_17  and  C_19
REMARK    4  A    between atoms: C_22  and  S_25
REMARK    5  A    between atoms: S_25  and  C_26
REMARK    6  A    between atoms: C_26  and  C_27
REMARK    7  A    between atoms: C_27  and  N_63
REMARK                            x       y       z     vdW  Elec       q    Type
REMARK                         _______ _______ _______ _____ _____    ______ ____
ROOT
ATOM      1  C   UNL     1       4.781  -5.508   8.203  0.00  0.00    +0.068 C 
ATOM      2  C   UNL     1       5.540  -5.859   9.489  0.00  0.00    +0.238 C 
ATOM      3  O   UNL     1       5.654  -7.280   9.572  0.00  0.00    -0.491 OA
ATOM      4  C   UNL     1       6.101  -7.946   8.475  0.00  0.00    +0.128 A 
ATOM      5  C   UNL     1       6.555  -9.251   8.633  0.00  0.00    +0.091 A 
ATOM      6  C   UNL     1       7.013  -9.965   7.539  0.00  0.00    +0.120 A 
ATOM      7  C   UNL     1       7.019  -9.375   6.282  0.00  0.00    +0.046 A 
ATOM      8  C   UNL     1       6.569  -8.080   6.128  0.00  0.00    +0.011 A 
ATOM      9  C   UNL     1       6.111  -7.362   7.221  0.00  0.00    +0.003 A 
ATOM     10  C   UNL     1       5.631  -5.948   7.009  0.00  0.00    +0.063 C 
ENDROOT
BRANCH   1  14
ATOM     11  C   UNL     1       1.035  -7.559   8.137  0.00  0.00    +0.000 A 
ATOM     12  C   UNL     1       2.213  -8.268   7.997  0.00  0.00    +0.000 A 
ATOM     13  C   UNL     1       3.425  -7.604   8.018  0.00  0.00    +0.004 A 
ATOM     14  C   UNL     1       3.459  -6.231   8.180  0.00  0.00    -0.040 A 
ATOM     15  C   UNL     1       2.281  -5.524   8.326  0.00  0.00    +0.004 A 
ATOM     16  C   UNL     1       1.069  -6.187   8.300  0.00  0.00    +0.000 A 
ENDBRANCH   1  14
BRANCH  10  17
ATOM     17  C   UNL     1       4.803  -5.882   5.752  0.00  0.00    -0.039 A 
ATOM     18  C   UNL     1       4.013  -6.959   5.389  0.00  0.00    +0.005 A 
ATOM     19  C   UNL     1       3.252  -6.902   4.238  0.00  0.00    +0.015 A 
ATOM     20  C   UNL     1       3.280  -5.762   3.444  0.00  0.00    +0.008 A 
ATOM     21  C   UNL     1       4.080  -4.685   3.808  0.00  0.00    +0.015 A 
ATOM     22  C   UNL     1       4.833  -4.746   4.964  0.00  0.00    +0.005 A 
BRANCH  20  23
ATOM     23  S   UNL     1       2.311  -5.685   1.975  0.00  0.00    -0.127 S 
BRANCH  23  24
ATOM     24  C   UNL     1       2.672  -4.042   1.296  0.00  0.00    +0.056 C 
BRANCH  24  25
ATOM     25  C   UNL     1       1.884  -3.841   0.000  0.00  0.00    -0.068 C 
BRANCH  25  31
ATOM     26  C   UNL     1       1.629  -2.369  -1.905  0.00  0.00    -0.079 C 
ATOM     27  C   UNL     1       1.824  -0.929  -2.387  0.00  0.00    -0.019 C 
ATOM     28  C   UNL     1       3.317  -0.592  -2.381  0.00  0.00    -0.004 C 
ATOM     29  C   UNL     1       3.873  -0.793  -0.968  0.00  0.00    -0.019 C 
ATOM     30  C   UNL     1       3.619  -2.237  -0.527  0.00  0.00    -0.079 C 
ATOM     31  N   UNL     1       2.162  -2.490  -0.531  0.00  0.00    +0.380 N 
ATOM     32  H   UNL     1       1.702  -1.795   0.068  0.00  0.00    -0.082 HD
ENDBRANCH  25  31
ENDBRANCH  24  25
ENDBRANCH  23  24
ENDBRANCH  20  23
ENDBRANCH  10  17
BRANCH   6  33
ATOM     33  O   UNL     1       7.458 -11.240   7.695  0.00  0.00    -0.507 OA
ATOM     34  H   UNL     1       8.403 -11.306   7.885  0.00  0.00    +0.292 HD
ENDBRANCH   6  33
TORSDOF 7
