REMARK  Name = ZINC64064885
REMARK  6 active torsions:
REMARK  status: ('A' for Active; 'I' for Inactive)
REMARK    1  A    between atoms: C_1  and  C_2
REMARK    2  A    between atoms: C_10  and  C_14
REMARK    3  A    between atoms: C_14  and  C_16
REMARK    4  A    between atoms: C_14  and  S_17
REMARK    5  A    between atoms: S_17  and  C_18
REMARK    6  A    between atoms: N_23  and  C_24
REMARK                            x       y       z     vdW  Elec       q    Type
REMARK                         _______ _______ _______ _____ _____    ______ ____
ROOT
ATOM      1  C   UNL     1      -1.329  -6.198   5.376  0.00  0.00    +0.112 C 
ATOM      2  C   UNL     1      -1.271  -5.506   6.740  0.00  0.00    +0.027 C 
ENDROOT
BRANCH   1  11
ATOM      3  C   UNL     1       2.141   1.162   0.758  0.00  0.00    +0.007 C 
ATOM      4  C   UNL     1       1.951  -0.355   0.696  0.00  0.00    -0.012 C 
ATOM      5  C   UNL     1       0.469  -0.668   0.500  0.00  0.00    +0.008 C 
ATOM      6  C   UNL     1       0.257  -2.180   0.353  0.00  0.00    +0.033 C 
ATOM      7  C   UNL     1       0.925  -2.835   1.559  0.00  0.00    -0.042 C 
ATOM      8  C   UNL     1       0.321  -3.671   2.404  0.00  0.00    +0.071 C 
ATOM      9  C   UNL     1       1.049  -4.073   3.637  0.00  0.00    +0.112 C 
ATOM     10  N   UNL     1       0.514  -4.856   4.544  0.00  0.00    -0.226 NA
ATOM     11  C   UNL     1      -0.725  -5.297   4.330  0.00  0.00    +0.136 C 
ATOM     12  N   UNL     1      -1.460  -5.012   3.287  0.00  0.00    -0.160 NA
ATOM     13  C   UNL     1      -1.069  -4.221   2.271  0.00  0.00    +0.271 C 
ATOM     14  O   UNL     1      -1.787  -3.971   1.317  0.00  0.00    -0.268 OA
ATOM     15  S   UNL     1       2.624  -3.289   3.506  0.00  0.00    -0.097 S 
ATOM     16  C   UNL     1       2.387  -2.504   1.865  0.00  0.00    +0.080 C 
ATOM     17  C   UNL     1       2.475  -0.981   1.992  0.00  0.00    +0.022 C 
ENDBRANCH   1  11
BRANCH   1  18
ATOM     18  S   UNL     1      -3.056  -6.548   4.948  0.00  0.00    -0.107 S 
BRANCH  18  19
ATOM     19  C   UNL     1      -3.584  -7.748   6.202  0.00  0.00    +0.236 C 
ATOM     20  N   UNL     1      -3.389  -7.202   7.556  0.00  0.00    -0.259 N 
ATOM     21  N   UNL     1      -2.479  -8.055   8.192  0.00  0.00    -0.284 N 
ATOM     22  C   UNL     1      -2.112  -9.018   7.417  0.00  0.00    +0.173 C 
ATOM     23  N   UNL     1      -2.721  -8.942   6.171  0.00  0.00    -0.273 N 
ATOM     24  N   UNL     1      -1.216 -10.012   7.784  0.00  0.00    -0.331 N 
ATOM     25  H   UNL     1      -3.806  -6.410   7.931  0.00  0.00    +0.169 HD
ATOM     26  H   UNL     1      -0.766  -9.967   8.642  0.00  0.00    +0.145 HD
ATOM     27  H   UNL     1      -1.040 -10.753   7.183  0.00  0.00    +0.145 HD
ATOM     28  H   UNL     1      -2.164  -7.936   9.102  0.00  0.00    +0.187 HD
BRANCH  23  29
ATOM     29  C   UNL     1      -2.542  -9.864   5.047  0.00  0.00    +0.079 C 
ATOM     30  C   UNL     1      -3.269  -9.536   3.741  0.00  0.00    +0.024 C 
ATOM     31  C   UNL     1      -3.752 -10.695   4.615  0.00  0.00    +0.024 C 
ENDBRANCH  23  29
ENDBRANCH  18  19
ENDBRANCH   1  18
TORSDOF 4
