REMARK  Name = ZINC15623606
REMARK  9 active torsions:
REMARK  status: ('A' for Active; 'I' for Inactive)
REMARK    1  A    between atoms: C_1  and  C_2
REMARK    2  A    between atoms: C_2  and  O_3
REMARK    3  A    between atoms: O_3  and  C_4
REMARK    4  A    between atoms: C_4  and  C_6
REMARK    5  A    between atoms: C_7  and  C_20
REMARK    6  A    between atoms: C_12  and  C_14
REMARK    7  A    between atoms: C_20  and  S_21
REMARK    8  A    between atoms: S_21  and  C_22
REMARK    9  A    between atoms: N_26  and  C_31
REMARK                            x       y       z     vdW  Elec       q    Type
REMARK                         _______ _______ _______ _____ _____    ______ ____
ROOT
ATOM      1  C   UNL     1       7.872   2.582   1.102  0.00  0.00    +0.079 C 
ATOM      2  C   UNL     1       7.211   2.307  -0.043  0.00  0.00    +0.034 C 
ATOM      3  N   UNL     1       7.540   2.929  -1.214  0.00  0.00    -0.272 N 
ATOM      4  C   UNL     1       8.522   3.833  -1.324  0.00  0.00    +0.304 C 
ATOM      5  O   UNL     1       8.741   4.334  -2.410  0.00  0.00    -0.252 OA
ATOM      6  N   UNL     1       9.274   4.207  -0.270  0.00  0.00    -0.288 N 
ATOM      7  C   UNL     1       8.998   3.594   1.041  0.00  0.00    +0.144 C 
ATOM      8  H   UNL     1       7.035   2.702  -2.010  0.00  0.00    +0.156 HD
ATOM      9  H   UNL     1       9.979   4.865  -0.372  0.00  0.00    +0.151 HD
ENDROOT
BRANCH   7  10
ATOM     10  C   UNL     1       8.676   4.700   2.012  0.00  0.00    -0.023 A 
ATOM     11  C   UNL     1       7.904   5.773   1.607  0.00  0.00    +0.006 A 
ATOM     12  C   UNL     1       7.604   6.785   2.500  0.00  0.00    +0.000 A 
ATOM     13  C   UNL     1       8.085   6.729   3.795  0.00  0.00    +0.000 A 
ATOM     14  C   UNL     1       8.861   5.659   4.199  0.00  0.00    +0.000 A 
ATOM     15  C   UNL     1       9.156   4.644   3.307  0.00  0.00    +0.006 A 
ENDBRANCH   7  10
BRANCH   1  16
ATOM     16  C   UNL     1       7.529   1.943   2.316  0.00  0.00    +0.339 C 
ATOM     17  O   UNL     1       6.721   1.033   2.317  0.00  0.00    -0.245 OA
BRANCH  16  18
ATOM     18  O   UNL     1       8.097   2.342   3.473  0.00  0.00    -0.462 OA
BRANCH  18  20
ATOM     19  C   UNL     1       8.447   2.240   5.862  0.00  0.00    +0.048 C 
ATOM     20  C   UNL     1       7.704   1.652   4.661  0.00  0.00    +0.229 C 
ENDBRANCH  18  20
ENDBRANCH  16  18
ENDBRANCH   1  16
BRANCH   2  21
ATOM     21  C   UNL     1       6.088   1.302  -0.028  0.00  0.00    +0.127 C 
BRANCH  21  22
ATOM     22  S   UNL     1       6.697  -0.292  -0.630  0.00  0.00    -0.099 S 
BRANCH  22  23
ATOM     23  C   UNL     1       5.221  -1.248  -0.509  0.00  0.00    +0.111 A 
ATOM     24  C   UNL     1       5.209  -2.607  -0.883  0.00  0.00    +0.071 A 
ATOM     25  C   UNL     1       6.173  -3.507  -1.385  0.00  0.00    +0.147 A 
ATOM     26  N   UNL     1       5.605  -4.667  -1.559  0.00  0.00    -0.172 NA
ATOM     27  N   UNL     1       4.257  -4.593  -1.185  0.00  0.00    -0.214 N 
ATOM     28  C   UNL     1       4.000  -3.320  -0.764  0.00  0.00    +0.167 A 
ATOM     29  N   UNL     1       2.922  -2.685  -0.306  0.00  0.00    -0.216 NA
ATOM     30  C   UNL     1       2.982  -1.415   0.030  0.00  0.00    +0.224 A 
ATOM     31  N   UNL     1       4.093  -0.705  -0.063  0.00  0.00    -0.228 NA
BRANCH  27  32
ATOM     32  C   UNL     1       3.332  -5.645  -1.235  0.00  0.00    +0.068 A 
ATOM     33  C   UNL     1       2.346  -5.750  -0.263  0.00  0.00    +0.030 A 
ATOM     34  C   UNL     1       1.432  -6.784  -0.316  0.00  0.00    +0.040 A 
ATOM     35  C   UNL     1       1.505  -7.722  -1.332  0.00  0.00    +0.124 A 
ATOM     36  C   UNL     1       2.491  -7.622  -2.299  0.00  0.00    +0.040 A 
ATOM     37  C   UNL     1       3.403  -6.586  -2.253  0.00  0.00    +0.030 A 
ATOM     38  F   UNL     1       0.614  -8.736  -1.379  0.00  0.00    -0.205 F 
ENDBRANCH  27  32
ENDBRANCH  22  23
ENDBRANCH  21  22
ENDBRANCH   2  21
TORSDOF 8
