REMARK  Name = ZINC39467708
REMARK  6 active torsions:
REMARK  status: ('A' for Active; 'I' for Inactive)
REMARK    1  A    between atoms: C_1  and  O_2
REMARK    2  A    between atoms: O_2  and  P_3
REMARK    3  A    between atoms: C_11  and  C_28
REMARK    4  A    between atoms: C_12  and  C_21
REMARK    5  A    between atoms: C_26  and  O_27
REMARK    6  A    between atoms: C_33  and  O_34
REMARK                            x       y       z     vdW  Elec       q    Type
REMARK                         _______ _______ _______ _____ _____    ______ ____
ROOT
ATOM      1  P   UNL     1      -1.336  -0.899   0.010  0.00  0.00    +0.393 P 
ATOM      2  O   UNL     1      -2.289  -0.406  -1.009  0.00  0.00    -0.241 OA
ATOM      3  N   UNL     1      -2.031  -0.876   1.507  0.00  0.00    -0.268 NA
ATOM      4  N   UNL     1      -1.477  -1.674   2.485  0.00  0.00    +0.399 N 
ATOM      5  C   UNL     1      -2.353  -1.544   3.661  0.00  0.00    -0.046 C 
ATOM      6  C   UNL     1      -1.827  -2.373   4.826  0.00  0.00    +0.005 C 
ATOM      7  C   UNL     1      -0.451  -1.910   5.222  0.00  0.00    -0.016 C 
ATOM      8  C   UNL     1       0.360  -2.747   5.888  0.00  0.00    -0.011 C 
ATOM      9  C   UNL     1      -0.125  -4.107   6.230  0.00  0.00    -0.011 C 
ATOM     10  C   UNL     1      -1.138  -4.642   5.533  0.00  0.00    -0.014 C 
ATOM     11  C   UNL     1      -1.760  -3.846   4.412  0.00  0.00    +0.016 C 
ATOM     12  C   UNL     1      -0.882  -3.961   3.165  0.00  0.00    -0.003 C 
ATOM     13  C   UNL     1      -1.422  -3.068   2.042  0.00  0.00    -0.020 C 
ATOM     14  C   UNL     1      -0.483  -3.239   0.840  0.00  0.00    +0.159 C 
ATOM     15  O   UNL     1      -0.972  -2.461  -0.267  0.00  0.00    -0.299 OA
ATOM     16  H   UNL     1      -2.804  -0.320   1.692  0.00  0.00    +0.113 HD
ATOM     17  H   UNL     1      -0.546  -1.349   2.702  0.00  0.00    -0.055 HD
ENDROOT
BRANCH   9  18
ATOM     18  C   UNL     1       0.505  -4.869   7.335  0.00  0.00    +0.024 A 
ATOM     19  C   UNL     1       1.761  -5.447   7.159  0.00  0.00    +0.012 A 
ATOM     20  C   UNL     1       2.343  -6.155   8.191  0.00  0.00    +0.001 A 
ATOM     21  C   UNL     1       1.684  -6.294   9.400  0.00  0.00    +0.004 A 
ATOM     22  C   UNL     1       0.439  -5.725   9.585  0.00  0.00    +0.046 A 
ATOM     23  C   UNL     1      -0.156  -5.006   8.560  0.00  0.00    +0.125 A 
BRANCH  23  24
ATOM     24  O   UNL     1      -1.378  -4.442   8.742  0.00  0.00    -0.506 OA
ATOM     25  H   UNL     1      -2.117  -5.019   8.505  0.00  0.00    +0.292 HD
ENDBRANCH  23  24
ENDBRANCH   9  18
BRANCH   8  26
ATOM     26  C   UNL     1       1.725  -2.317   6.277  0.00  0.00    +0.024 A 
ATOM     27  C   UNL     1       2.006  -1.996   7.603  0.00  0.00    +0.012 A 
ATOM     28  C   UNL     1       3.278  -1.597   7.960  0.00  0.00    +0.001 A 
ATOM     29  C   UNL     1       4.277  -1.515   7.006  0.00  0.00    +0.004 A 
ATOM     30  C   UNL     1       4.009  -1.831   5.687  0.00  0.00    +0.046 A 
ATOM     31  C   UNL     1       2.737  -2.239   5.316  0.00  0.00    +0.125 A 
BRANCH  31  32
ATOM     32  O   UNL     1       2.474  -2.555   4.021  0.00  0.00    -0.506 OA
ATOM     33  H   UNL     1       2.180  -1.807   3.485  0.00  0.00    +0.292 HD
ENDBRANCH  31  32
ENDBRANCH   8  26
BRANCH   1  35
ATOM     34  C   UNL     1      -0.017   1.425   0.010  0.00  0.00    +0.206 C 
ATOM     35  O   UNL     1       0.002  -0.004   0.002  0.00  0.00    -0.301 OA
ENDBRANCH   1  35
TORSDOF 5
