REMARK  Name = ZINC12042734
REMARK  8 active torsions:
REMARK  status: ('A' for Active; 'I' for Inactive)
REMARK    1  A    between atoms: C_1  and  C_2
REMARK    2  A    between atoms: C_3  and  C_30
REMARK    3  A    between atoms: C_5  and  N_22
REMARK    4  A    between atoms: C_6  and  C_7
REMARK    5  A    between atoms: C_7  and  C_9
REMARK    6  A    between atoms: C_7  and  N_57
REMARK    7  A    between atoms: C_18  and  C_21
REMARK    8  A    between atoms: C_23  and  C_25
REMARK                            x       y       z     vdW  Elec       q    Type
REMARK                         _______ _______ _______ _____ _____    ______ ____
ROOT
ATOM      1  C   UNL     1      -3.483  -6.613  -0.454  0.00  0.00    +0.045 C 
ATOM      2  C   UNL     1      -3.438  -5.125  -0.224  0.00  0.00    -0.037 A 
ATOM      3  C   UNL     1      -4.585  -4.411  -0.117  0.00  0.00    -0.008 A 
ATOM      4  S   UNL     1      -3.971  -2.755   0.140  0.00  0.00    -0.078 S 
ATOM      5  C   UNL     1      -2.224  -3.121   0.088  0.00  0.00    +0.074 A 
ATOM      6  C   UNL     1      -2.226  -4.467  -0.125  0.00  0.00    -0.025 A 
ATOM      7  C   UNL     1      -6.011  -4.892  -0.195  0.00  0.00    +0.052 C 
ENDROOT
BRANCH   5   8
ATOM      8  N   UNL     1      -1.139  -2.253   0.225  0.00  0.00    -0.273 N 
ATOM      9  C   UNL     1      -1.346  -0.924   0.315  0.00  0.00    +0.284 C 
ATOM     10  O   UNL     1      -2.479  -0.481   0.277  0.00  0.00    -0.266 OA
ATOM     11  H   UNL     1      -0.236  -2.607   0.255  0.00  0.00    +0.156 HD
BRANCH   9  12
ATOM     12  C   UNL     1      -0.207  -0.013   0.458  0.00  0.00    +0.189 A 
ATOM     13  C   UNL     1      -0.275   1.347   0.559  0.00  0.00    +0.054 A 
ATOM     14  C   UNL     1       1.045   1.810   0.679  0.00  0.00    +0.042 A 
ATOM     15  C   UNL     1       1.851   0.725   0.646  0.00  0.00    +0.196 A 
ATOM     16  O   UNL     1       1.093  -0.371   0.513  0.00  0.00    -0.458 OA
ENDBRANCH   9  12
ENDBRANCH   5   8
BRANCH   6  17
ATOM     17  C   UNL     1      -0.929  -5.226  -0.245  0.00  0.00    -0.004 C 
BRANCH  17  24
ATOM     18  C   UNL     1      -0.627  -4.784   2.115  0.00  0.00    -0.077 C 
ATOM     19  C   UNL     1       0.322  -4.164   3.144  0.00  0.00    -0.015 C 
ATOM     20  C   UNL     1       1.629  -4.962   3.171  0.00  0.00    -0.018 C 
ATOM     21  C   UNL     1       2.242  -4.969   1.768  0.00  0.00    -0.015 C 
ATOM     22  C   UNL     1       1.238  -5.565   0.780  0.00  0.00    -0.077 C 
ATOM     23  C   UNL     1       2.605  -4.312   4.153  0.00  0.00    +0.007 C 
ATOM     24  N   UNL     1       0.012  -4.738   0.783  0.00  0.00    +0.387 N 
ATOM     25  H   UNL     1       0.266  -3.766   0.569  0.00  0.00    -0.080 HD
ENDBRANCH  17  24
BRANCH  17  26
ATOM     26  C   UNL     1      -0.330  -4.983  -1.607  0.00  0.00    -0.057 A 
ATOM     27  C   UNL     1       0.498  -3.895  -1.813  0.00  0.00    +0.004 A 
ATOM     28  C   UNL     1       1.053  -3.675  -3.059  0.00  0.00    +0.020 A 
ATOM     29  C   UNL     1       0.770  -4.537  -4.104  0.00  0.00    +0.041 A 
ATOM     30  C   UNL     1      -0.064  -5.622  -3.899  0.00  0.00    +0.020 A 
ATOM     31  C   UNL     1      -0.613  -5.844  -2.650  0.00  0.00    +0.004 A 
ATOM     32 CL   UNL     1       1.460  -4.257  -5.672  0.00  0.00    -0.084 Cl
ENDBRANCH  17  26
ENDBRANCH   6  17
TORSDOF 5
