REMARK  Name = ZINC39708114
REMARK  5 active torsions:
REMARK  status: ('A' for Active; 'I' for Inactive)
REMARK    1  A    between atoms: C_3  and  N_27
REMARK    2  A    between atoms: C_6  and  N_7
REMARK    3  A    between atoms: C_8  and  C_10
REMARK    4  A    between atoms: C_10  and  S_11
REMARK    5  A    between atoms: S_11  and  C_12
REMARK                            x       y       z     vdW  Elec       q    Type
REMARK                         _______ _______ _______ _____ _____    ______ ____
ROOT
ATOM      1  S   UNL     1      -2.124  -4.603  -0.337  0.00  0.00    -0.079 S 
ENDROOT
BRANCH   1   2
ATOM      2  C   UNL     1      -3.717  -5.347  -0.450  0.00  0.00    +0.182 C 
ATOM      3  N   UNL     1      -4.781  -4.563  -0.426  0.00  0.00    -0.151 NA
ATOM      4  C   UNL     1      -6.025  -5.036  -0.500  0.00  0.00    +0.272 C 
ATOM      5  O   UNL     1      -6.985  -4.283  -0.478  0.00  0.00    -0.268 OA
ATOM      6  C   UNL     1      -6.210  -6.519  -0.612  0.00  0.00    +0.071 C 
ATOM      7  C   UNL     1      -7.364  -7.205  -0.636  0.00  0.00    -0.042 C 
ATOM      8  C   UNL     1      -8.732  -6.578  -0.379  0.00  0.00    +0.033 C 
ATOM      9  C   UNL     1      -9.377  -7.375   0.762  0.00  0.00    +0.004 C 
ATOM     10  C   UNL     1      -9.373  -8.867   0.433  0.00  0.00    +0.002 C 
ATOM     11  C   UNL     1      -7.940  -9.395   0.319  0.00  0.00    +0.019 C 
ATOM     12  C   UNL     1      -7.260  -8.709  -0.869  0.00  0.00    +0.079 C 
ATOM     13  S   UNL     1      -5.449  -8.981  -0.797  0.00  0.00    -0.097 S 
ATOM     14  C   UNL     1      -4.945  -7.286  -0.639  0.00  0.00    +0.112 C 
ATOM     15  N   UNL     1      -3.792  -6.674  -0.561  0.00  0.00    -0.217 NA
ENDBRANCH   1   2
BRANCH   1  16
ATOM     16  C   UNL     1      -2.478  -2.828  -0.204  0.00  0.00    +0.173 C 
BRANCH  16  18
ATOM     17  N   UNL     1      -1.199  -0.722   0.010  0.00  0.00    -0.285 N 
ATOM     18  C   UNL     1      -1.183  -2.065  -0.099  0.00  0.00    +0.227 C 
ATOM     19  O   UNL     1      -0.125  -2.659  -0.113  0.00  0.00    -0.275 OA
ATOM     20  H   UNL     1      -2.044  -0.253   0.098  0.00  0.00    +0.155 HD
BRANCH  17  26
ATOM     21  C   UNL     1       1.072  -0.453  -0.766  0.00  0.00    +0.025 A 
ATOM     22  C   UNL     1       2.256   0.259  -0.778  0.00  0.00    +0.034 A 
ATOM     23  C   UNL     1       2.376   1.417  -0.032  0.00  0.00    +0.126 A 
ATOM     24  C   UNL     1       1.312   1.866   0.729  0.00  0.00    +0.034 A 
ATOM     25  C   UNL     1       0.126   1.159   0.745  0.00  0.00    +0.025 A 
ATOM     26  C   UNL     1       0.002  -0.004  -0.004  0.00  0.00    +0.034 A 
BRANCH  23  27
ATOM     27  N   UNL     1       3.646   2.176  -0.047  0.00  0.00    +0.056 N 
ATOM     28  O   UNL     1       4.577   1.784  -0.711  0.00  0.00    -0.126 OA
ATOM     29  O   UNL     1       3.753   3.189   0.605  0.00  0.00    -0.126 OA
ENDBRANCH  23  27
ENDBRANCH  17  26
ENDBRANCH  16  18
ENDBRANCH   1  16
TORSDOF 5
