REMARK  Name = ZINC13432975
REMARK  14 active torsions:
REMARK  status: ('A' for Active; 'I' for Inactive)
REMARK    1  A    between atoms: C_1  and  C_2
REMARK    2  A    between atoms: C_3  and  C_31
REMARK    3  A    between atoms: C_4  and  O_30
REMARK    4  A    between atoms: C_5  and  C_10
REMARK    5  A    between atoms: C_6  and  O_9
REMARK    6  A    between atoms: C_10  and  C_11
REMARK    7  A    between atoms: C_12  and  C_13
REMARK    8  A    between atoms: C_12  and  C_14
REMARK    9  A    between atoms: C_14  and  C_16
REMARK   10  A    between atoms: C_14  and  O_29
REMARK   11  A    between atoms: C_16  and  C_17
REMARK   12  A    between atoms: C_17  and  C_28
REMARK   13  A    between atoms: C_18  and  C_27
REMARK   14  A    between atoms: C_24  and  C_26
REMARK                            x       y       z     vdW  Elec       q    Type
REMARK                         _______ _______ _______ _____ _____    ______ ____
ROOT
ATOM      1  C   UNL     1      -2.948   1.645  -3.390  0.00  0.00    -0.021 C 
ATOM      2  C   UNL     1      -3.332   0.752  -2.511  0.00  0.00    -0.048 C 
ATOM      3  C   UNL     1      -4.800   0.555  -2.230  0.00  0.00    +0.041 C 
ENDROOT
BRANCH   1   4
ATOM      4  C   UNL     1      -3.961   2.563  -4.024  0.00  0.00    +0.069 C 
BRANCH   4   9
ATOM      5  C   UNL     1      -2.558   8.071  -2.878  0.00  0.00    +0.046 C 
ATOM      6  C   UNL     1      -2.920   6.640  -3.180  0.00  0.00    -0.015 A 
ATOM      7  C   UNL     1      -2.421   6.020  -4.334  0.00  0.00    +0.060 A 
ATOM      8  C   UNL     1      -2.763   4.684  -4.610  0.00  0.00    +0.134 A 
ATOM      9  C   UNL     1      -3.589   3.995  -3.738  0.00  0.00    +0.041 A 
ATOM     10  C   UNL     1      -4.078   4.626  -2.604  0.00  0.00    +0.142 A 
ATOM     11  C   UNL     1      -3.734   5.949  -2.330  0.00  0.00    +0.086 A 
ATOM     12 CL   UNL     1      -4.348   6.723  -0.903  0.00  0.00    -0.079 Cl
BRANCH  10  13
ATOM     13  O   UNL     1      -4.893   3.951  -1.754  0.00  0.00    -0.505 OA
ATOM     14  H   UNL     1      -4.424   3.481  -1.051  0.00  0.00    +0.292 HD
ENDBRANCH  10  13
BRANCH   8  15
ATOM     15  O   UNL     1      -2.286   4.073  -5.723  0.00  0.00    -0.506 OA
ATOM     16  H   UNL     1      -2.855   4.171  -6.499  0.00  0.00    +0.292 HD
ENDBRANCH   8  15
BRANCH   7  17
ATOM     17  C   UNL     1      -1.548   6.760  -5.249  0.00  0.00    +0.262 C 
ATOM     18  O   UNL     1      -1.118   6.220  -6.247  0.00  0.00    -0.296 OA
ENDBRANCH   7  17
ENDBRANCH   4   9
ENDBRANCH   1   4
BRANCH   2  19
ATOM     19  C   UNL     1      -2.307  -0.076  -1.782  0.00  0.00    +0.141 C 
BRANCH  19  20
ATOM     20  O   UNL     1      -2.598  -1.464  -1.964  0.00  0.00    -0.387 OA
ATOM     21  H   UNL     1      -3.467  -1.730  -1.635  0.00  0.00    +0.210 HD
ENDBRANCH  19  20
BRANCH  19  22
ATOM     22  C   UNL     1      -2.346   0.261  -0.290  0.00  0.00    +0.043 C 
BRANCH  22  23
ATOM     23  C   UNL     1      -1.182  -0.449   0.428  0.00  0.00    -0.018 C 
ATOM     24  C   UNL     1      -1.335  -0.230   1.923  0.00  0.00    -0.007 C 
ATOM     25  C   UNL     1      -0.109  -0.622   2.733  0.00  0.00    +0.011 C 
ATOM     26  C   UNL     1       1.133   0.118   2.232  0.00  0.00    +0.075 C 
ATOM     27  C   UNL     1       1.290  -0.199   0.761  0.00  0.00    +0.137 C 
ATOM     28  O   UNL     1       2.330  -0.648   0.338  0.00  0.00    -0.297 OA
ATOM     29  C   UNL     1       0.126   0.059  -0.161  0.00  0.00    +0.058 C 
ATOM     30  C   UNL     1       0.040   1.545  -0.512  0.00  0.00    +0.016 C 
ATOM     31  C   UNL     1      -1.748   1.208   2.236  0.00  0.00    +0.008 C 
ATOM     32  C   UNL     1      -1.305  -1.954   0.131  0.00  0.00    +0.012 C 
ENDBRANCH  22  23
ENDBRANCH  19  22
ENDBRANCH   2  19
TORSDOF 9
