REMARK  Name = ZINC14676701
REMARK  6 active torsions:
REMARK  status: ('A' for Active; 'I' for Inactive)
REMARK    1  A    between atoms: C_1  and  C_2
REMARK    2  A    between atoms: C_14  and  C_16
REMARK    3  A    between atoms: C_16  and  S_17
REMARK    4  A    between atoms: S_17  and  C_18
REMARK    5  A    between atoms: N_22  and  C_23
REMARK    6  A    between atoms: C_23  and  C_24
REMARK                            x       y       z     vdW  Elec       q    Type
REMARK                         _______ _______ _______ _____ _____    ______ ____
ROOT
ATOM      1  C   UNL     1       1.178   3.669   0.271  0.00  0.00    +0.019 C 
ATOM      2  C   UNL     1       1.346   2.173   0.001  0.00  0.00    +0.050 C 
ATOM      3  C   UNL     1      -0.018   1.502   0.010  0.00  0.00    +0.033 C 
ATOM      4  C   UNL     1       0.002  -0.004   0.002  0.00  0.00    +0.115 C 
ATOM      5  N   UNL     1       0.512  -0.528  -1.274  0.00  0.00    -0.270 N 
ATOM      6  C   UNL     1       1.889  -0.762  -1.396  0.00  0.00    +0.050 A 
ATOM      7  C   UNL     1       2.367  -2.068  -1.409  0.00  0.00    +0.024 A 
ATOM      8  C   UNL     1       3.728  -2.299  -1.481  0.00  0.00    +0.002 A 
ATOM      9  C   UNL     1       4.621  -1.244  -1.536  0.00  0.00    +0.001 A 
ATOM     10  C   UNL     1       4.153   0.060  -1.542  0.00  0.00    +0.016 A 
ATOM     11  C   UNL     1       2.792   0.287  -1.493  0.00  0.00    +0.030 A 
ATOM     12  S   UNL     1       2.146   1.938  -1.614  0.00  0.00    -0.120 S 
ATOM     13  C   UNL     1      -0.324  -0.776  -2.302  0.00  0.00    +0.230 C 
ATOM     14  O   UNL     1      -1.512  -0.568  -2.181  0.00  0.00    -0.274 OA
ENDROOT
BRANCH  13  15
ATOM     15  C   UNL     1       0.218  -1.313  -3.601  0.00  0.00    +0.173 C 
BRANCH  15  16
ATOM     16  S   UNL     1      -1.141  -1.540  -4.774  0.00  0.00    -0.075 S 
BRANCH  16  17
ATOM     17  C   UNL     1      -0.248  -2.157  -6.162  0.00  0.00    +0.210 A 
ATOM     18  N   UNL     1       1.051  -2.356  -6.230  0.00  0.00    -0.101 NA
ATOM     19  N   UNL     1       1.375  -2.817  -7.384  0.00  0.00    -0.022 NA
ATOM     20  N   UNL     1       0.330  -2.936  -8.129  0.00  0.00    -0.043 NA
ATOM     21  N   UNL     1      -0.768  -2.510  -7.362  0.00  0.00    -0.216 N 
BRANCH  21  22
ATOM     22  C   UNL     1      -2.174  -2.459  -7.771  0.00  0.00    +0.183 C 
BRANCH  22  23
ATOM     23  C   UNL     1      -2.470  -1.114  -8.383  0.00  0.00    -0.026 A 
ATOM     24  C   UNL     1      -2.910  -0.074  -7.586  0.00  0.00    +0.005 A 
ATOM     25  C   UNL     1      -3.177   1.161  -8.147  0.00  0.00    +0.000 A 
ATOM     26  C   UNL     1      -3.014   1.353  -9.506  0.00  0.00    +0.000 A 
ATOM     27  C   UNL     1      -2.579   0.311 -10.304  0.00  0.00    +0.000 A 
ATOM     28  C   UNL     1      -2.307  -0.922  -9.742  0.00  0.00    +0.005 A 
ENDBRANCH  22  23
ENDBRANCH  21  22
ENDBRANCH  16  17
ENDBRANCH  15  16
ENDBRANCH  13  15
TORSDOF 5
