REMARK  Name = ZINC10752753
REMARK  4 active torsions:
REMARK  status: ('A' for Active; 'I' for Inactive)
REMARK    1  A    between atoms: C_3  and  S_6
REMARK    2  A    between atoms: S_6  and  N_9
REMARK    3  A    between atoms: C_13  and  C_16
REMARK    4  A    between atoms: C_21  and  C_24
REMARK                            x       y       z     vdW  Elec       q    Type
REMARK                         _______ _______ _______ _____ _____    ______ ____
ROOT
ATOM      1  C   UNL     1      -0.014   1.209   0.009  0.00  0.00    +0.223 C 
ATOM      2  O   UNL     1       0.002  -0.004   0.002  0.00  0.00    -0.275 OA
ATOM      3  N   UNL     1       1.143   1.898   0.001  0.00  0.00    -0.264 N 
ATOM      4  C   UNL     1       2.356   1.220  -0.014  0.00  0.00    +0.165 A 
ATOM      5  N   UNL     1       3.584   1.704  -0.028  0.00  0.00    -0.225 NA
ATOM      6  C   UNL     1       4.639   0.904  -0.037  0.00  0.00    +0.080 A 
ATOM      7  C   UNL     1       4.453  -0.451  -0.043  0.00  0.00    +0.076 A 
ATOM      8  S   UNL     1       2.667  -0.540  -0.027  0.00  0.00    -0.060 S 
ATOM      9  H   UNL     1       1.130   2.868   0.007  0.00  0.00    +0.157 HD
ENDROOT
BRANCH   6  10
ATOM     10  C   UNL     1       6.009   1.471  -0.046  0.00  0.00    +0.001 A 
ATOM     11  C   UNL     1       7.117   0.625  -0.056  0.00  0.00    +0.011 A 
ATOM     12  C   UNL     1       8.389   1.158  -0.070  0.00  0.00    +0.020 A 
ATOM     13  C   UNL     1       8.568   2.531  -0.064  0.00  0.00    +0.041 A 
ATOM     14  C   UNL     1       7.471   3.376  -0.049  0.00  0.00    +0.020 A 
ATOM     15  C   UNL     1       6.194   2.853  -0.040  0.00  0.00    +0.011 A 
ATOM     16 CL   UNL     1      10.171   3.195  -0.076  0.00  0.00    -0.084 Cl
ENDBRANCH   6  10
BRANCH   1  21
ATOM     17  N   UNL     1      -3.749   1.662   0.164  0.00  0.00    -0.175 NA
ATOM     18  C   UNL     1      -3.905   2.597   1.287  0.00  0.00    +0.109 C 
ATOM     19  C   UNL     1      -2.738   3.589   1.268  0.00  0.00    +0.018 C 
ATOM     20  C   UNL     1      -1.417   2.816   1.274  0.00  0.00    +0.015 C 
ATOM     21  C   UNL     1      -1.330   1.944   0.019  0.00  0.00    +0.091 C 
ATOM     22  C   UNL     1      -2.481   0.934   0.023  0.00  0.00    +0.122 C 
BRANCH  17  23
ATOM     23  S   UNL     1      -4.979   1.433  -0.921  0.00  0.00    +0.067 S 
ATOM     24  O   UNL     1      -4.778   0.150  -1.498  0.00  0.00    -0.152 OA
ATOM     25  O   UNL     1      -6.181   1.789  -0.253  0.00  0.00    -0.152 OA
BRANCH  23  28
ATOM     26  C   UNL     1      -4.019   3.549  -4.249  0.00  0.00    +0.010 A 
ATOM     27  C   UNL     1      -4.055   2.484  -3.369  0.00  0.00    +0.036 A 
ATOM     28  C   UNL     1      -4.756   2.608  -2.216  0.00  0.00    +0.143 A 
ATOM     29  S   UNL     1      -5.402   4.266  -2.352  0.00  0.00    -0.077 S 
ATOM     30  C   UNL     1      -4.686   4.686  -3.933  0.00  0.00    +0.047 A 
ENDBRANCH  23  28
ENDBRANCH  17  23
ENDBRANCH   1  21
TORSDOF 4
