REMARK  Name = ZINC15974021
REMARK  5 active torsions:
REMARK  status: ('A' for Active; 'I' for Inactive)
REMARK    1  A    between atoms: C_4  and  C_7
REMARK    2  A    between atoms: C_7  and  N_8
REMARK    3  A    between atoms: N_8  and  C_9
REMARK    4  A    between atoms: C_9  and  N_11
REMARK    5  A    between atoms: N_11  and  N_12
REMARK                            x       y       z     vdW  Elec       q    Type
REMARK                         _______ _______ _______ _____ _____    ______ ____
ROOT
ATOM      1  N   UNL     1       4.933  -1.387   3.909  0.00  0.00    -0.235 N 
ATOM      2  C   UNL     1       5.345  -1.616   5.195  0.00  0.00    +0.213 A 
ATOM      3  N   UNL     1       4.569  -1.188   6.228  0.00  0.00    -0.294 N 
ATOM      4  H   UNL     1       3.726  -0.743   6.048  0.00  0.00    +0.172 HD
ATOM      5  C   UNL     1       4.968  -1.381   7.504  0.00  0.00    +0.257 A 
ATOM      6  O   UNL     1       4.291  -0.980   8.437  0.00  0.00    -0.267 OA
ATOM      7  C   UNL     1       6.177  -2.052   7.733  0.00  0.00    +0.049 A 
ATOM      8  C   UNL     1       6.913  -2.494   6.647  0.00  0.00    +0.084 A 
ATOM      9  N   UNL     1       6.480  -2.251   5.404  0.00  0.00    -0.214 NA
ATOM     10  C   UNL     1       8.156  -3.263   6.883  0.00  0.00    +0.004 A 
ATOM     11  C   UNL     1       9.077  -3.460   5.857  0.00  0.00    +0.010 A 
ATOM     12  C   UNL     1      10.238  -4.163   6.106  0.00  0.00    +0.001 A 
ATOM     13  C   UNL     1      10.486  -4.667   7.371  0.00  0.00    +0.000 A 
ATOM     14  C   UNL     1       9.571  -4.479   8.391  0.00  0.00    +0.004 A 
ATOM     15  C   UNL     1       8.400  -3.788   8.151  0.00  0.00    -0.037 A 
ATOM     16  C   UNL     1       7.377  -3.628   9.243  0.00  0.00    +0.047 C 
ATOM     17  C   UNL     1       6.677  -2.275   9.135  0.00  0.00    +0.007 C 
ATOM     18  C   UNL     1       5.492  -2.240  10.105  0.00  0.00    +0.012 C 
ATOM     19  C   UNL     1       5.995  -2.462  11.532  0.00  0.00    +0.001 C 
ATOM     20  C   UNL     1       6.984  -1.355  11.902  0.00  0.00    +0.000 C 
ATOM     21  C   UNL     1       8.167  -1.383  10.932  0.00  0.00    +0.001 C 
ATOM     22  C   UNL     1       7.662  -1.163   9.505  0.00  0.00    +0.012 C 
ATOM     23  H   UNL     1       4.099  -0.921   3.743  0.00  0.00    +0.173 HD
ENDROOT
BRANCH   1  24
ATOM     24  N   UNL     1       5.716  -1.826   2.834  0.00  0.00    -0.246 N 
ATOM     25  H   UNL     1       6.550  -2.292   3.000  0.00  0.00    +0.172 HD
BRANCH  24  26
ATOM     26  C   UNL     1       5.311  -1.601   1.569  0.00  0.00    +0.147 C 
ATOM     27  S   UNL     1       6.268  -2.137   0.255  0.00  0.00    -0.017 S 
BRANCH  26  28
ATOM     28  N   UNL     1       4.152  -0.952   1.338  0.00  0.00    -0.321 N 
ATOM     29  H   UNL     1       3.610  -0.648   2.082  0.00  0.00    +0.148 HD
BRANCH  28  30
ATOM     30  C   UNL     1       3.711  -0.707  -0.038  0.00  0.00    +0.138 C 
BRANCH  30  34
ATOM     31  C   UNL     1      -0.017   1.378   0.010  0.00  0.00    +0.000 A 
ATOM     32  C   UNL     1       1.171   2.086   0.002  0.00  0.00    +0.000 A 
ATOM     33  C   UNL     1       2.377   1.411  -0.013  0.00  0.00    +0.005 A 
ATOM     34  C   UNL     1       2.396   0.029  -0.020  0.00  0.00    -0.030 A 
ATOM     35  C   UNL     1       1.208  -0.679  -0.012  0.00  0.00    +0.005 A 
ATOM     36  C   UNL     1       0.002  -0.004   0.002  0.00  0.00    +0.000 A 
ENDBRANCH  30  34
ENDBRANCH  28  30
ENDBRANCH  26  28
ENDBRANCH  24  26
ENDBRANCH   1  24
TORSDOF 5
