REMARK  Name = ZINC36152699
REMARK  7 active torsions:
REMARK  status: ('A' for Active; 'I' for Inactive)
REMARK    1  A    between atoms: C_1  and  C_2
REMARK    2  A    between atoms: C_2  and  C_3
REMARK    3  A    between atoms: C_6  and  C_9
REMARK    4  A    between atoms: C_16  and  C_19
REMARK    5  A    between atoms: C_19  and  C_20
REMARK    6  A    between atoms: C_19  and  C_21
REMARK    7  A    between atoms: C_19  and  C_22
REMARK                            x       y       z     vdW  Elec       q    Type
REMARK                         _______ _______ _______ _____ _____    ______ ____
ROOT
ATOM      1  C   UNL     1       2.732  -1.890  -4.733  0.00  0.00    +0.128 C 
ATOM      2  C   UNL     1       2.957  -3.408  -4.639  0.00  0.00    +0.106 C 
ATOM      3  S   UNL     1       3.521  -3.967  -6.284  0.00  0.00    -0.082 S 
ATOM      4  C   UNL     1       4.628  -2.657  -6.712  0.00  0.00    +0.209 A 
ATOM      5  N   UNL     1       5.477  -2.585  -7.691  0.00  0.00    -0.121 NA
ATOM      6  N   UNL     1       6.079  -1.445  -7.650  0.00  0.00    -0.131 NA
ATOM      7  C   UNL     1       5.643  -0.741  -6.641  0.00  0.00    +0.157 A 
ATOM      8  N   UNL     1       4.705  -1.492  -5.995  0.00  0.00    -0.224 N 
ATOM      9  N   UNL     1       4.003  -1.182  -4.877  0.00  0.00    -0.273 N 
ATOM     10  H   UNL     1       3.872  -0.185  -4.797  0.00  0.00    +0.167 HD
ENDROOT
BRANCH   1  14
ATOM     11  C   UNL     1       0.764  -0.542  -1.190  0.00  0.00    -0.048 A 
ATOM     12  C   UNL     1       0.035  -0.765  -2.343  0.00  0.00    +0.004 A 
ATOM     13  C   UNL     1       0.672  -1.202  -3.490  0.00  0.00    +0.006 A 
ATOM     14  C   UNL     1       2.038  -1.414  -3.484  0.00  0.00    -0.025 A 
ATOM     15  C   UNL     1       2.767  -1.189  -2.331  0.00  0.00    +0.006 A 
ATOM     16  C   UNL     1       2.131  -0.749  -1.185  0.00  0.00    +0.004 A 
BRANCH  11  18
ATOM     17  C   UNL     1       0.043   1.464   0.078  0.00  0.00    +0.009 C 
ATOM     18  C   UNL     1       0.069  -0.066   0.060  0.00  0.00    +0.032 C 
ENDBRANCH  11  18
ENDBRANCH   1  14
BRANCH   7  19
ATOM     19  C   UNL     1       6.093   0.646  -6.260  0.00  0.00    +0.024 C 
ATOM     20  C   UNL     1       7.258   1.069  -7.156  0.00  0.00    +0.019 C 
ATOM     21  C   UNL     1       4.931   1.626  -6.438  0.00  0.00    +0.019 C 
ATOM     22  C   UNL     1       6.545   0.651  -4.798  0.00  0.00    +0.019 C 
ENDBRANCH   7  19
TORSDOF 3
