REMARK  Name = ZINC13135853
REMARK  6 active torsions:
REMARK  status: ('A' for Active; 'I' for Inactive)
REMARK    1  A    between atoms: C_2  and  C_3
REMARK    2  A    between atoms: C_3  and  N_4
REMARK    3  A    between atoms: C_7  and  C_10
REMARK    4  A    between atoms: C_13  and  N_16
REMARK    5  A    between atoms: C_19  and  C_21
REMARK    6  A    between atoms: N_23  and  C_28
REMARK                            x       y       z     vdW  Elec       q    Type
REMARK                         _______ _______ _______ _____ _____    ______ ____
ROOT
ATOM      1  N   UNL     1      -1.296  -1.763  -0.955  0.00  0.00    -0.242 N 
ATOM      2  C   UNL     1      -0.872  -3.060  -0.700  0.00  0.00    +0.168 A 
ATOM      3  N   UNL     1      -0.892  -4.116  -1.493  0.00  0.00    -0.224 NA
ATOM      4  C   UNL     1      -0.442  -5.292  -1.083  0.00  0.00    +0.080 A 
ATOM      5  C   UNL     1       0.053  -5.416   0.186  0.00  0.00    +0.076 A 
ATOM      6  S   UNL     1      -0.148  -3.743   0.784  0.00  0.00    -0.060 S 
ATOM      7  C   UNL     1      -1.820  -1.449  -2.156  0.00  0.00    +0.268 C 
ATOM      8  O   UNL     1      -1.845  -2.279  -3.045  0.00  0.00    -0.268 OA
ENDROOT
BRANCH   7   9
ATOM      9  C   UNL     1      -2.362  -0.107  -2.390  0.00  0.00    +0.122 C 
ATOM     10  N   UNL     1      -1.571   0.843  -2.786  0.00  0.00    -0.177 NA
ATOM     11  N   UNL     1      -2.052   2.135  -3.018  0.00  0.00    -0.188 N 
ATOM     12  C   UNL     1      -3.225   2.532  -2.486  0.00  0.00    +0.235 C 
ATOM     13  O   UNL     1      -3.635   3.655  -2.687  0.00  0.00    -0.274 OA
ATOM     14  C   UNL     1      -4.026   1.574  -1.641  0.00  0.00    +0.104 C 
ATOM     15  C   UNL     1      -3.830   0.150  -2.175  0.00  0.00    +0.071 C 
BRANCH  11  16
ATOM     16  C   UNL     1      -1.276   3.064  -3.843  0.00  0.00    +0.124 C 
ATOM     17  C   UNL     1      -1.172   2.521  -5.278  0.00  0.00    +0.049 C 
ATOM     18  C   UNL     1      -0.102   3.314  -6.066  0.00  0.00    +0.168 C 
ATOM     19  S   UNL     1       1.052   3.860  -4.743  0.00  0.00    -0.029 S 
ATOM     20  O   UNL     1       1.049   5.280  -4.684  0.00  0.00    -0.174 OA
ATOM     21  O   UNL     1       2.285   3.169  -4.891  0.00  0.00    -0.174 OA
ATOM     22  C   UNL     1       0.165   3.197  -3.271  0.00  0.00    +0.190 C 
ENDBRANCH  11  16
ENDBRANCH   7   9
BRANCH   4  23
ATOM     23  C   UNL     1      -0.475  -6.465  -1.991  0.00  0.00    +0.001 A 
ATOM     24  C   UNL     1      -0.006  -7.702  -1.553  0.00  0.00    +0.012 A 
ATOM     25  C   UNL     1      -0.039  -8.789  -2.402  0.00  0.00    +0.033 A 
ATOM     26  C   UNL     1      -0.536  -8.653  -3.686  0.00  0.00    +0.126 A 
ATOM     27  C   UNL     1      -1.002  -7.427  -4.126  0.00  0.00    +0.033 A 
ATOM     28  C   UNL     1      -0.980  -6.334  -3.283  0.00  0.00    +0.012 A 
BRANCH  26  29
ATOM     29  N   UNL     1      -0.569  -9.822  -4.593  0.00  0.00    +0.056 N 
ATOM     30  O   UNL     1      -0.162 -10.895  -4.211  0.00  0.00    -0.126 OA
ATOM     31  O   UNL     1      -1.003  -9.706  -5.715  0.00  0.00    -0.126 OA
ENDBRANCH  26  29
ENDBRANCH   4  23
BRANCH   1  32
ATOM     32  C   UNL     1      -1.172  -0.736   0.082  0.00  0.00    +0.142 C 
BRANCH  32  34
ATOM     33  C   UNL     1       0.114   1.319  -0.213  0.00  0.00    +0.005 C 
ATOM     34  C   UNL     1       0.122   0.013  -0.104  0.00  0.00    -0.015 C 
ENDBRANCH  32  34
ENDBRANCH   1  32
TORSDOF 6
