REMARK  Name = ZINC66702085
REMARK  10 active torsions:
REMARK  status: ('A' for Active; 'I' for Inactive)
REMARK    1  A    between atoms: C_1  and  C_2
REMARK    2  A    between atoms: C_2  and  C_3
REMARK    3  A    between atoms: C_3  and  N_4
REMARK    4  A    between atoms: N_4  and  C_5
REMARK    5  A    between atoms: C_5  and  C_6
REMARK    6  A    between atoms: C_11  and  O_12
REMARK    7  A    between atoms: N_15  and  C_16
REMARK    8  A    between atoms: C_16  and  C_18
REMARK    9  A    between atoms: C_16  and  C_19
REMARK   10  A    between atoms: C_21  and  C_24
REMARK                            x       y       z     vdW  Elec       q    Type
REMARK                         _______ _______ _______ _____ _____    ______ ____
ROOT
ATOM      1  N   UNL     1       0.738  -1.962  -1.265  0.00  0.00    -0.281 N 
ATOM      2  C   UNL     1       1.764  -2.626  -0.695  0.00  0.00    +0.303 C 
ATOM      3  O   UNL     1       1.780  -3.841  -0.701  0.00  0.00    -0.253 OA
ATOM      4  N   UNL     1       2.771  -1.941  -0.117  0.00  0.00    -0.288 N 
ATOM      5  H   UNL     1       2.757  -0.971  -0.112  0.00  0.00    +0.151 HD
ENDROOT
BRANCH   4   6
ATOM      6  C   UNL     1       3.885  -2.662   0.503  0.00  0.00    +0.160 C 
ATOM      7  C   UNL     1       4.926  -3.006  -0.564  0.00  0.00    +0.038 C 
BRANCH   6   8
ATOM      8  C   UNL     1       4.518  -1.795   1.561  0.00  0.00    +0.248 A 
ATOM      9  N   UNL     1       4.867  -2.183   2.754  0.00  0.00    -0.190 NA
ATOM     10  C   UNL     1       5.400  -1.154   3.436  0.00  0.00    +0.202 A 
ATOM     11  N   UNL     1       5.391  -0.093   2.667  0.00  0.00    -0.056 NA
ATOM     12  O   UNL     1       4.820  -0.497   1.431  0.00  0.00    -0.336 OA
BRANCH  10  13
ATOM     13  C   UNL     1       5.913  -1.210   4.827  0.00  0.00    +0.023 A 
ATOM     14  C   UNL     1       5.871  -2.406   5.540  0.00  0.00    +0.014 A 
ATOM     15  C   UNL     1       6.350  -2.454   6.833  0.00  0.00    +0.039 A 
ATOM     16  C   UNL     1       6.872  -1.314   7.423  0.00  0.00    +0.123 A 
ATOM     17  C   UNL     1       6.915  -0.122   6.718  0.00  0.00    +0.039 A 
ATOM     18  C   UNL     1       6.444  -0.067   5.423  0.00  0.00    +0.014 A 
ATOM     19  F   UNL     1       7.339  -1.365   8.690  0.00  0.00    -0.205 F 
ENDBRANCH  10  13
ENDBRANCH   6   8
ENDBRANCH   4   6
BRANCH   1  20
ATOM     20  C   UNL     1       0.718  -0.497  -1.257  0.00  0.00    +0.109 C 
BRANCH  20  22
ATOM     21  C   UNL     1      -0.019   1.526   0.010  0.00  0.00    +0.005 C 
ATOM     22  C   UNL     1       0.002  -0.004   0.002  0.00  0.00    +0.016 C 
ENDBRANCH  20  22
ENDBRANCH   1  20
BRANCH   1  23
ATOM     23  C   UNL     1      -0.357  -2.706  -1.893  0.00  0.00    +0.148 C 
BRANCH  23  24
ATOM     24  C   UNL     1      -0.033  -2.945  -3.345  0.00  0.00    +0.011 A 
ATOM     25  C   UNL     1      -0.588  -2.137  -4.319  0.00  0.00    +0.009 A 
ATOM     26  C   UNL     1      -0.292  -2.356  -5.652  0.00  0.00    +0.001 A 
ATOM     27  C   UNL     1       0.559  -3.383  -6.013  0.00  0.00    +0.004 A 
ATOM     28  C   UNL     1       1.116  -4.194  -5.044  0.00  0.00    +0.046 A 
ATOM     29  C   UNL     1       0.825  -3.973  -3.705  0.00  0.00    +0.122 A 
BRANCH  29  30
ATOM     30  O   UNL     1       1.377  -4.766  -2.749  0.00  0.00    -0.506 OA
ATOM     31  H   UNL     1       0.849  -5.548  -2.534  0.00  0.00    +0.292 HD
ENDBRANCH  29  30
ENDBRANCH  23  24
ENDBRANCH   1  23
TORSDOF 8
