REMARK  Name = ZINC02082127
REMARK  15 active torsions:
REMARK  status: ('A' for Active; 'I' for Inactive)
REMARK    1  A    between atoms: C_1  and  C_2
REMARK    2  A    between atoms: C_2  and  O_3
REMARK    3  A    between atoms: O_3  and  C_4
REMARK    4  A    between atoms: C_4  and  C_5
REMARK    5  A    between atoms: C_5  and  O_6
REMARK    6  A    between atoms: O_6  and  C_7
REMARK    7  A    between atoms: C_7  and  C_9
REMARK    8  A    between atoms: C_10  and  C_34
REMARK    9  A    between atoms: C_14  and  C_16
REMARK   10  A    between atoms: C_18  and  O_24
REMARK   11  A    between atoms: C_19  and  O_23
REMARK   12  A    between atoms: O_24  and  C_25
REMARK   13  A    between atoms: C_25  and  C_26
REMARK   14  A    between atoms: C_30  and  C_32
REMARK   15  A    between atoms: C_30  and  C_33
REMARK                            x       y       z     vdW  Elec       q    Type
REMARK                         _______ _______ _______ _____ _____    ______ ____
ROOT
ATOM      1  C   UNL     1      -2.457   1.357  -0.005  0.00  0.00    +0.065 C 
ATOM      2  C   UNL     1      -2.479   0.015  -0.067  0.00  0.00    +0.016 C 
ATOM      3  N   UNL     1      -1.434  -0.671  -0.620  0.00  0.00    -0.321 N 
ATOM      4  C   UNL     1      -0.206  -0.081  -0.758  0.00  0.00    +0.016 C 
ATOM      5  C   UNL     1      -0.084   1.263  -0.719  0.00  0.00    +0.024 C 
ATOM      6  C   UNL     1      -1.297   2.142  -0.547  0.00  0.00    +0.092 C 
ATOM      7  C   UNL     1       1.173   1.881  -0.843  0.00  0.00    +0.162 C 
ATOM      8  O   UNL     1       1.246   3.094  -0.816  0.00  0.00    -0.292 OA
ATOM      9  C   UNL     1       2.428   1.069  -1.010  0.00  0.00    +0.086 C 
ATOM     10  C   UNL     1       2.232  -0.294  -0.338  0.00  0.00    -0.023 C 
ATOM     11  C   UNL     1       1.001  -0.965  -0.950  0.00  0.00    +0.058 C 
ATOM     12  C   UNL     1       2.019  -0.100   1.165  0.00  0.00    +0.011 C 
ATOM     13  C   UNL     1       3.465  -1.169  -0.574  0.00  0.00    +0.011 C 
ATOM     14  C   UNL     1      -3.664  -0.740   0.478  0.00  0.00    +0.061 C 
ATOM     15  H   UNL     1      -1.574  -1.708  -0.959  0.00  0.00    +0.152 HD
ENDROOT
BRANCH   6  16
ATOM     16  C   UNL     1      -1.673   2.733  -1.881  0.00  0.00    -0.030 A 
ATOM     17  C   UNL     1      -1.599   4.100  -2.075  0.00  0.00    +0.054 A 
ATOM     18  C   UNL     1      -1.939   4.645  -3.303  0.00  0.00    +0.163 A 
ATOM     19  C   UNL     1      -2.366   3.815  -4.335  0.00  0.00    +0.173 A 
ATOM     20  C   UNL     1      -2.444   2.446  -4.132  0.00  0.00    +0.063 A 
ATOM     21  C   UNL     1      -2.098   1.909  -2.905  0.00  0.00    +0.023 A 
ATOM     22 BR   UNL     1      -3.024   1.315  -5.531  0.00  0.00    -0.046 Br
BRANCH  19  23
ATOM     23  O   UNL     1      -2.707   4.346  -5.540  0.00  0.00    -0.503 OA
ATOM     24  H   UNL     1      -3.044   3.689  -6.355  0.00  0.00    +0.292 HD
ENDBRANCH  19  23
BRANCH  18  25
ATOM     25  O   UNL     1      -1.861   5.989  -3.497  0.00  0.00    -0.489 OA
BRANCH  25  26
ATOM     26  C   UNL     1      -1.316   6.768  -2.430  0.00  0.00    +0.226 C 
ATOM     27  C   UNL     1      -1.412   8.254  -2.783  0.00  0.00    +0.048 C 
ENDBRANCH  25  26
ENDBRANCH  18  25
ENDBRANCH   6  16
BRANCH   1  28
ATOM     28  C   UNL     1      -3.547   2.043   0.580  0.00  0.00    +0.338 C 
ATOM     29  O   UNL     1      -3.491   3.247   0.743  0.00  0.00    -0.245 OA
BRANCH  28  30
ATOM     30  O   UNL     1      -4.649   1.362   0.956  0.00  0.00    -0.459 OA
BRANCH  30  31
ATOM     31  C   UNL     1      -5.755   2.130   1.435  0.00  0.00    +0.260 C 
BRANCH  31  32
ATOM     32  C   UNL     1      -6.856   1.188   1.925  0.00  0.00    +0.201 C 
BRANCH  32  33
ATOM     33  O   UNL     1      -6.391   0.462   3.064  0.00  0.00    -0.377 OA
BRANCH  33  35
ATOM     34  C   UNL     1      -6.763  -1.154   4.822  0.00  0.00    +0.034 C 
ATOM     35  C   UNL     1      -7.305  -0.530   3.535  0.00  0.00    +0.156 C 
ENDBRANCH  33  35
ENDBRANCH  32  33
ENDBRANCH  31  32
ENDBRANCH  30  31
ENDBRANCH  28  30
ENDBRANCH   1  28
TORSDOF 10
