REMARK  Name = ZINC12432512
REMARK  9 active torsions:
REMARK  status: ('A' for Active; 'I' for Inactive)
REMARK    1  A    between atoms: C_1  and  C_2
REMARK    2  A    between atoms: C_9  and  C_22
REMARK    3  A    between atoms: C_10  and  C_11
REMARK    4  A    between atoms: C_11  and  N_62
REMARK    5  A    between atoms: C_12  and  C_13
REMARK    6  A    between atoms: C_12  and  N_62
REMARK    7  A    between atoms: C_13  and  C_14
REMARK    8  A    between atoms: C_19  and  O_20
REMARK    9  A    between atoms: O_20  and  C_21
REMARK                            x       y       z     vdW  Elec       q    Type
REMARK                         _______ _______ _______ _____ _____    ______ ____
ROOT
ATOM      1  C   UNL     1       5.494   2.239  -0.407  0.00  0.00    +0.044 C 
ATOM      2  C   UNL     1       4.008   2.057  -0.234  0.00  0.00    -0.046 A 
ATOM      3  C   UNL     1       3.191   3.164   0.052  0.00  0.00    +0.021 A 
ATOM      4  C   UNL     1       1.860   3.007   0.209  0.00  0.00    +0.093 A 
ATOM      5  N   UNL     1       1.287   1.772   0.092  0.00  0.00    -0.305 N 
ATOM      6  C   UNL     1       2.059   0.672  -0.187  0.00  0.00    +0.139 A 
ATOM      7  C   UNL     1       3.453   0.823  -0.353  0.00  0.00    +0.050 A 
ATOM      8  N   UNL     1       1.269  -0.388  -0.247  0.00  0.00    -0.223 NA
ATOM      9  C   UNL     1       0.001  -0.003  -0.013  0.00  0.00    +0.146 A 
ATOM     10  C   UNL     1      -0.002   1.346   0.200  0.00  0.00    +0.039 A 
ENDROOT
BRANCH   9  11
ATOM     11  C   UNL     1      -1.181  -0.886   0.009  0.00  0.00    +0.267 C 
ATOM     12  O   UNL     1      -2.294  -0.410   0.127  0.00  0.00    -0.268 OA
ATOM     13  N   UNL     1      -1.028  -2.220  -0.101  0.00  0.00    -0.296 N 
ATOM     14  C   UNL     1       0.311  -2.765  -0.121  0.00  0.00    +0.108 C 
ATOM     15  C   UNL     1       0.835  -2.820  -1.571  0.00  0.00    +0.019 C 
ATOM     16  C   UNL     1       0.135  -3.869  -2.327  0.00  0.00    +0.002 C 
ATOM     17  C   UNL     1      -1.367  -3.642  -2.474  0.00  0.00    +0.002 C 
ATOM     18  C   UNL     1      -2.075  -4.178  -1.255  0.00  0.00    +0.019 C 
ATOM     19  C   UNL     1      -2.234  -3.065  -0.203  0.00  0.00    +0.108 C 
ENDBRANCH   9  11
BRANCH  10  20
ATOM     20  C   UNL     1      -1.207   2.203   0.494  0.00  0.00    -0.025 C 
BRANCH  20  21
ATOM     21  N   UNL     1      -1.773   2.693  -0.777  0.00  0.00    +0.383 N 
ATOM     22  H   UNL     1      -2.048   1.891  -1.356  0.00  0.00    -0.085 HD
ATOM     23  H   UNL     1      -1.064   3.246  -1.273  0.00  0.00    -0.085 HD
BRANCH  21  24
ATOM     24  C   UNL     1      -2.955   3.536  -0.519  0.00  0.00    -0.077 C 
BRANCH  24  25
ATOM     25  C   UNL     1      -3.520   4.029  -1.853  0.00  0.00    +0.020 C 
BRANCH  25  26
ATOM     26  C   UNL     1      -4.729   4.892  -1.599  0.00  0.00    -0.007 A 
ATOM     27  C   UNL     1      -5.995   4.341  -1.650  0.00  0.00    +0.007 A 
ATOM     28  C   UNL     1      -7.104   5.131  -1.413  0.00  0.00    +0.000 A 
ATOM     29  C   UNL     1      -6.950   6.476  -1.133  0.00  0.00    +0.004 A 
ATOM     30  C   UNL     1      -5.687   7.033  -1.086  0.00  0.00    +0.046 A 
ATOM     31  C   UNL     1      -4.572   6.241  -1.319  0.00  0.00    +0.123 A 
BRANCH  31  32
ATOM     32  O   UNL     1      -3.328   6.787  -1.274  0.00  0.00    -0.495 OA
ATOM     33  C   UNL     1      -3.243   8.183  -0.981  0.00  0.00    +0.277 C 
ENDBRANCH  31  32
ENDBRANCH  25  26
ENDBRANCH  24  25
ENDBRANCH  21  24
ENDBRANCH  20  21
ENDBRANCH  10  20
TORSDOF 7
