REMARK  Name = ZINC20735650
REMARK  3 active torsions:
REMARK  status: ('A' for Active; 'I' for Inactive)
REMARK    1  A    between atoms: C_1  and  C_2
REMARK    2  A    between atoms: C_18  and  C_20
REMARK    3  A    between atoms: C_23  and  C_26
REMARK                            x       y       z     vdW  Elec       q    Type
REMARK                         _______ _______ _______ _____ _____    ______ ____
ROOT
ATOM      1  C   UNL     1       0.311   1.786  -0.297  0.00  0.00    +0.068 C 
ATOM      2  C   UNL     1       0.558   0.304  -0.183  0.00  0.00    +0.067 A 
ATOM      3  C   UNL     1       0.437  -0.631  -1.234  0.00  0.00    +0.033 A 
ATOM      4  C   UNL     1       0.741  -1.850  -0.739  0.00  0.00    +0.137 A 
ATOM      5  N   UNL     1       1.044  -1.678   0.596  0.00  0.00    -0.183 N 
ATOM      6  N   UNL     1       0.923  -0.322   0.898  0.00  0.00    -0.167 NA
ATOM      7  C   UNL     1       1.410  -2.685   1.488  0.00  0.00    +0.253 A 
ATOM      8  N   UNL     1       1.786  -2.357   2.713  0.00  0.00    -0.219 NA
ATOM      9  C   UNL     1       2.140  -3.287   3.584  0.00  0.00    +0.116 A 
ATOM     10  C   UNL     1       2.113  -4.618   3.199  0.00  0.00    +0.039 A 
ATOM     11  C   UNL     1       1.714  -4.926   1.908  0.00  0.00    +0.116 A 
ATOM     12  N   UNL     1       1.368  -3.947   1.089  0.00  0.00    -0.219 NA
ATOM     13  N   UNL     1       0.787  -3.092  -1.323  0.00  0.00    -0.269 N 
ATOM     14  C   UNL     1       0.520  -3.561  -2.505  0.00  0.00    +0.228 C 
ATOM     15  O   UNL     1       0.590  -4.768  -2.602  0.00  0.00    -0.275 OA
ATOM     16  C   UNL     1       0.144  -2.857  -3.749  0.00  0.00    +0.166 C 
ATOM     17  S   UNL     1      -0.953  -1.462  -3.462  0.00  0.00    -0.138 S 
ATOM     18  C   UNL     1       0.033  -0.223  -2.616  0.00  0.00    +0.112 C 
ATOM     19  H   UNL     1       1.091  -3.780  -0.710  0.00  0.00    +0.156 HD
ENDROOT
BRANCH  18  20
ATOM     20  C   UNL     1      -0.765   1.053  -2.530  0.00  0.00    -0.030 A 
ATOM     21  C   UNL     1      -2.057   1.025  -2.037  0.00  0.00    +0.006 A 
ATOM     22  C   UNL     1      -2.793   2.189  -1.955  0.00  0.00    +0.019 A 
ATOM     23  C   UNL     1      -2.229   3.398  -2.371  0.00  0.00    +0.052 A 
ATOM     24  C   UNL     1      -0.924   3.418  -2.866  0.00  0.00    +0.019 A 
ATOM     25  C   UNL     1      -0.198   2.248  -2.938  0.00  0.00    +0.006 A 
BRANCH  23  26
ATOM     26  C   UNL     1      -2.987   4.610  -2.289  0.00  0.00    +0.099 C 
ATOM     27  N   UNL     1      -3.588   5.572  -2.224  0.00  0.00    -0.191 NA
ENDBRANCH  23  26
ENDBRANCH  18  20
TORSDOF 2
