REMARK  Name = ZINC23410988
REMARK  11 active torsions:
REMARK  status: ('A' for Active; 'I' for Inactive)
REMARK    1  A    between atoms: C_1  and  C_2
REMARK    2  A    between atoms: C_6  and  C_9
REMARK    3  A    between atoms: C_7  and  O_8
REMARK    4  A    between atoms: N_10  and  N_11
REMARK    5  A    between atoms: C_12  and  C_14
REMARK    6  A    between atoms: C_14  and  O_15
REMARK    7  A    between atoms: O_15  and  C_16
REMARK    8  A    between atoms: C_19  and  C_22
REMARK    9  A    between atoms: C_22  and  C_23
REMARK   10  A    between atoms: C_22  and  C_24
REMARK   11  A    between atoms: C_22  and  C_25
REMARK                            x       y       z     vdW  Elec       q    Type
REMARK                         _______ _______ _______ _____ _____    ______ ____
ROOT
ATOM      1  N   UNL     1       3.425  -4.969  -0.056  0.00  0.00    -0.204 N 
ATOM      2  C   UNL     1       2.343  -4.165  -0.042  0.00  0.00    +0.270 C 
ATOM      3  O   UNL     1       1.230  -4.646  -0.033  0.00  0.00    -0.270 OA
ATOM      4  H   UNL     1       4.435  -4.533  -0.064  0.00  0.00    +0.177 HD
ENDROOT
BRANCH   1   6
ATOM      5  C   UNL     1       4.304  -7.135  -0.076  0.00  0.00    +0.142 C 
ATOM      6  N   UNL     1       3.263  -6.361  -0.062  0.00  0.00    -0.188 NA
BRANCH   5  12
ATOM      7  C   UNL     1       1.320 -11.143  -0.067  0.00  0.00    +0.047 C 
ATOM      8  C   UNL     1       2.699 -10.536  -0.077  0.00  0.00    -0.007 A 
ATOM      9  C   UNL     1       3.813 -11.354  -0.092  0.00  0.00    +0.022 A 
ATOM     10  C   UNL     1       5.085 -10.806  -0.102  0.00  0.00    +0.019 A 
ATOM     11  C   UNL     1       5.252  -9.436  -0.097  0.00  0.00    +0.028 A 
ATOM     12  C   UNL     1       4.134  -8.599  -0.082  0.00  0.00    +0.037 A 
ATOM     13  C   UNL     1       2.849  -9.159  -0.066  0.00  0.00    +0.128 A 
ATOM     14 BR   UNL     1       6.599 -11.939  -0.123  0.00  0.00    -0.050 Br
BRANCH  13  15
ATOM     15  O   UNL     1       1.755  -8.354  -0.045  0.00  0.00    -0.506 OA
ATOM     16  H   UNL     1       1.876  -7.261  -0.036  0.00  0.00    +0.292 HD
ENDBRANCH  13  15
ENDBRANCH   5  12
ENDBRANCH   1   6
BRANCH   2  17
ATOM     17  C   UNL     1       2.518  -2.668  -0.036  0.00  0.00    +0.326 C 
BRANCH  17  18
ATOM     18  O   UNL     1       1.234  -2.039  -0.020  0.00  0.00    -0.483 OA
BRANCH  18  19
ATOM     19  C   UNL     1       1.213  -0.680  -0.013  0.00  0.00    +0.121 A 
ATOM     20  C   UNL     1       0.002  -0.004   0.002  0.00  0.00    +0.046 A 
ATOM     21  C   UNL     1      -0.017   1.377   0.010  0.00  0.00    +0.008 A 
ATOM     22  C   UNL     1       1.171   2.086   0.002  0.00  0.00    -0.042 A 
ATOM     23  C   UNL     1       2.379   1.415  -0.013  0.00  0.00    +0.008 A 
ATOM     24  C   UNL     1       2.403   0.033  -0.021  0.00  0.00    +0.046 A 
BRANCH  22  25
ATOM     25  C   UNL     1       1.147   3.593   0.011  0.00  0.00    -0.013 C 
ATOM     26  C   UNL     1       0.430   4.085   1.269  0.00  0.00    +0.015 C 
ATOM     27  C   UNL     1       2.582   4.125  -0.000  0.00  0.00    +0.015 C 
ATOM     28  C   UNL     1       0.406   4.098  -1.229  0.00  0.00    +0.015 C 
ENDBRANCH  22  25
ENDBRANCH  18  19
ENDBRANCH  17  18
ENDBRANCH   2  17
TORSDOF 7
