REMARK  Name = ZINC09433597
REMARK  7 active torsions:
REMARK  status: ('A' for Active; 'I' for Inactive)
REMARK    1  A    between atoms: C_10  and  C_11
REMARK    2  A    between atoms: C_10  and  N_72
REMARK    3  A    between atoms: C_11  and  C_12
REMARK    4  A    between atoms: C_12  and  N_13
REMARK    5  A    between atoms: C_14  and  C_16
REMARK    6  A    between atoms: N_26  and  C_34
REMARK    7  A    between atoms: C_27  and  C_29
REMARK                            x       y       z     vdW  Elec       q    Type
REMARK                         _______ _______ _______ _____ _____    ______ ____
ROOT
ATOM      1  C   UNL     1       8.394   3.701   2.042  0.00  0.00    +0.131 C 
ATOM      2  C   UNL     1       8.699   2.311   2.534  0.00  0.00    -0.021 A 
ATOM      3  C   UNL     1       7.881   1.696   3.458  0.00  0.00    +0.005 A 
ATOM      4  C   UNL     1       8.169   0.414   3.892  0.00  0.00    +0.000 A 
ATOM      5  C   UNL     1       9.275  -0.259   3.404  0.00  0.00    +0.001 A 
ATOM      6  C   UNL     1      10.104   0.347   2.481  0.00  0.00    +0.013 A 
ATOM      7  C   UNL     1       9.822   1.640   2.046  0.00  0.00    +0.041 A 
ATOM      8  C   UNL     1      10.702   2.324   1.075  0.00  0.00    +0.248 C 
ATOM      9  O   UNL     1      11.538   1.696   0.456  0.00  0.00    -0.270 OA
ATOM     10  N   UNL     1      10.567   3.650   0.885  0.00  0.00    -0.286 N 
ATOM     11  C   UNL     1       9.692   4.445   1.740  0.00  0.00    +0.130 C 
ENDROOT
BRANCH  11  12
ATOM     12  C   UNL     1      10.403   4.746   3.033  0.00  0.00    +0.011 A 
ATOM     13  C   UNL     1      10.443   5.904   3.737  0.00  0.00    +0.013 A 
ATOM     14  C   UNL     1      11.165   5.948   4.914  0.00  0.00    +0.008 A 
ATOM     15  C   UNL     1      11.822   4.836   5.325  0.00  0.00    +0.045 A 
ATOM     16  S   UNL     1      11.420   3.671   4.033  0.00  0.00    -0.100 S 
ENDBRANCH  11  12
BRANCH  10  17
ATOM     17  C   UNL     1      11.310   4.304  -0.196  0.00  0.00    +0.077 C 
ATOM     18  C   UNL     1      10.951   3.657  -1.550  0.00  0.00    +0.022 C 
ATOM     19  C   UNL     1      12.288   3.654  -2.334  0.00  0.00    +0.002 C 
ATOM     20  C   UNL     1      13.330   3.332  -1.234  0.00  0.00    +0.002 C 
ATOM     21  C   UNL     1      12.821   4.098   0.005  0.00  0.00    +0.022 C 
ENDBRANCH  10  17
BRANCH   1  23
ATOM     22  N   UNL     1       6.363   3.002   0.815  0.00  0.00    -0.315 N 
ATOM     23  C   UNL     1       7.563   3.615   0.788  0.00  0.00    +0.223 C 
ATOM     24  O   UNL     1       7.974   4.098  -0.246  0.00  0.00    -0.275 OA
ATOM     25  H   UNL     1       6.034   2.616   1.642  0.00  0.00    +0.149 HD
BRANCH  22  26
ATOM     26  C   UNL     1       5.555   2.919  -0.404  0.00  0.00    +0.102 C 
BRANCH  26  27
ATOM     27  C   UNL     1       4.250   2.179  -0.102  0.00  0.00    +0.000 C 
BRANCH  27  28
ATOM     28  C   UNL     1       3.406   2.093  -1.375  0.00  0.00    -0.077 C 
BRANCH  28  38
ATOM     29  C   UNL     1      -1.178  -2.063   0.362  0.00  0.00    +0.000 A 
ATOM     30  C   UNL     1      -0.046  -2.772   0.005  0.00  0.00    +0.000 A 
ATOM     31  C   UNL     1       1.104  -2.098  -0.350  0.00  0.00    +0.002 A 
ATOM     32  C   UNL     1       1.132  -0.710  -0.351  0.00  0.00    -0.061 A 
ATOM     33  C   UNL     1       0.002  -0.004   0.002  0.00  0.00    -0.048 A 
ATOM     34  C   UNL     1      -1.153  -0.683   0.360  0.00  0.00    +0.004 A 
ATOM     35  C   UNL     1      -0.018   1.503   0.010  0.00  0.00    +0.017 C 
ATOM     36  C   UNL     1       1.411   2.044  -0.000  0.00  0.00    -0.074 C 
ATOM     37  C   UNL     1       2.412  -0.019  -0.742  0.00  0.00    -0.043 C 
ATOM     38  N   UNL     1       2.138   1.382  -1.103  0.00  0.00    +0.383 N 
ATOM     39  H   UNL     1       1.556   1.402  -1.949  0.00  0.00    -0.081 HD
ENDBRANCH  28  38
ENDBRANCH  27  28
ENDBRANCH  26  27
ENDBRANCH  22  26
ENDBRANCH   1  23
TORSDOF 7
