REMARK  Name = ZINC12949338
REMARK  12 active torsions:
REMARK  status: ('A' for Active; 'I' for Inactive)
REMARK    1  A    between atoms: C_1  and  C_2
REMARK    2  A    between atoms: C_2  and  C_3
REMARK    3  A    between atoms: C_3  and  C_5
REMARK    4  A    between atoms: C_8  and  O_11
REMARK    5  A    between atoms: O_11  and  C_12
REMARK    6  A    between atoms: C_12  and  C_13
REMARK    7  A    between atoms: C_13  and  C_15
REMARK    8  A    between atoms: C_13  and  O_38
REMARK    9  A    between atoms: C_15  and  N_16
REMARK   10  A    between atoms: C_25  and  C_30
REMARK   11  A    between atoms: C_33  and  O_36
REMARK   12  A    between atoms: O_36  and  C_37
REMARK                            x       y       z     vdW  Elec       q    Type
REMARK                         _______ _______ _______ _____ _____    ______ ____
ROOT
ATOM      1  N   UNL     1      -7.562   7.986   0.325  0.00  0.00    -0.289 N 
ATOM      2  C   UNL     1      -8.266   8.347  -0.816  0.00  0.00    +0.057 A 
ATOM      3  C   UNL     1      -7.712   8.217  -2.080  0.00  0.00    +0.026 A 
ATOM      4  C   UNL     1      -8.443   8.588  -3.191  0.00  0.00    +0.002 A 
ATOM      5  C   UNL     1      -9.728   9.089  -3.056  0.00  0.00    +0.001 A 
ATOM      6  C   UNL     1     -10.299   9.216  -1.806  0.00  0.00    +0.013 A 
ATOM      7  C   UNL     1      -9.571   8.851  -0.678  0.00  0.00    +0.043 A 
ATOM      8  C   UNL     1     -10.125   8.980   0.681  0.00  0.00    +0.171 A 
ATOM      9  N   UNL     1     -11.273   9.405   1.157  0.00  0.00    -0.206 NA
ATOM     10  C   UNL     1     -11.269   9.314   2.493  0.00  0.00    +0.182 A 
ATOM     11  N   UNL     1     -10.113   8.828   2.891  0.00  0.00    -0.141 NA
ATOM     12  N   UNL     1      -9.345   8.600   1.740  0.00  0.00    -0.161 N 
ATOM     13  C   UNL     1      -8.107   8.121   1.547  0.00  0.00    +0.352 A 
ATOM     14  O   UNL     1      -7.451   7.795   2.517  0.00  0.00    -0.244 OA
ENDROOT
BRANCH  10  15
ATOM     15  C   UNL     1     -12.392   9.700   3.383  0.00  0.00    +0.021 A 
ATOM     16  C   UNL     1     -13.570  10.210   2.840  0.00  0.00    +0.015 A 
ATOM     17  C   UNL     1     -14.613  10.563   3.670  0.00  0.00    +0.046 A 
ATOM     18  C   UNL     1     -14.487  10.421   5.045  0.00  0.00    +0.120 A 
ATOM     19  C   UNL     1     -13.312   9.919   5.589  0.00  0.00    +0.046 A 
ATOM     20  C   UNL     1     -12.268   9.559   4.764  0.00  0.00    +0.015 A 
BRANCH  18  21
ATOM     21  O   UNL     1     -15.515  10.774   5.860  0.00  0.00    -0.495 OA
ATOM     22  C   UNL     1     -16.694  11.284   5.234  0.00  0.00    +0.277 C 
ENDBRANCH  18  21
ENDBRANCH  10  15
BRANCH   1  23
ATOM     23  C   UNL     1      -6.203   7.455   0.197  0.00  0.00    +0.161 C 
BRANCH  23  24
ATOM     24  C   UNL     1      -6.261   5.932   0.063  0.00  0.00    +0.172 C 
BRANCH  24  25
ATOM     25  O   UNL     1      -6.919   5.586  -1.157  0.00  0.00    -0.387 OA
ATOM     26  H   UNL     1      -6.482   5.925  -1.950  0.00  0.00    +0.210 HD
ENDBRANCH  24  25
BRANCH  24  27
ATOM     27  C   UNL     1      -4.839   5.367   0.054  0.00  0.00    +0.262 C 
BRANCH  27  28
ATOM     28  O   UNL     1      -4.895   3.939   0.046  0.00  0.00    -0.489 OA
BRANCH  28  32
ATOM     29  C   UNL     1      -1.296   1.926   0.019  0.00  0.00    +0.018 A 
ATOM     30  C   UNL     1      -1.318   3.326   0.032  0.00  0.00    +0.015 A 
ATOM     31  C   UNL     1      -2.517   3.990   0.036  0.00  0.00    +0.046 A 
ATOM     32  C   UNL     1      -3.711   3.276   0.037  0.00  0.00    +0.121 A 
ATOM     33  C   UNL     1      -3.695   1.886   0.030  0.00  0.00    +0.046 A 
ATOM     34  C   UNL     1      -2.501   1.212   0.021  0.00  0.00    +0.015 A 
BRANCH  29  35
ATOM     35  C   UNL     1      -0.014   1.209   0.009  0.00  0.00    +0.163 C 
ATOM     36  O   UNL     1       0.002  -0.004   0.002  0.00  0.00    -0.292 OA
BRANCH  35  38
ATOM     37  C   UNL     1       2.457   1.002  -0.016  0.00  0.00    +0.012 C 
ATOM     38  C   UNL     1       1.280   1.980   0.001  0.00  0.00    +0.076 C 
ENDBRANCH  35  38
ENDBRANCH  29  35
ENDBRANCH  28  32
ENDBRANCH  27  28
ENDBRANCH  24  27
ENDBRANCH  23  24
ENDBRANCH   1  23
TORSDOF 10
