REMARK  Name = ZINC35929858
REMARK  4 active torsions:
REMARK  status: ('A' for Active; 'I' for Inactive)
REMARK    1  A    between atoms: C_4  and  N_7
REMARK    2  A    between atoms: C_8  and  N_35
REMARK    3  A    between atoms: C_10  and  C_28
REMARK    4  A    between atoms: N_19  and  C_22
REMARK                            x       y       z     vdW  Elec       q    Type
REMARK                         _______ _______ _______ _____ _____    ______ ____
ROOT
ATOM      1  N   UNL     1       3.628  -0.504   0.273  0.00  0.00    -0.216 N 
ATOM      2  C   UNL     1       3.943  -1.701   0.807  0.00  0.00    +0.131 A 
ATOM      3  C   UNL     1       5.227  -2.023   0.385  0.00  0.00    +0.086 A 
ATOM      4  C   UNL     1       6.116  -3.103   0.582  0.00  0.00    +0.089 A 
ATOM      5  N   UNL     1       7.305  -3.054  -0.006  0.00  0.00    -0.214 NA
ATOM      6  C   UNL     1       7.676  -2.028  -0.766  0.00  0.00    +0.220 A 
ATOM      7  N   UNL     1       6.911  -0.981  -1.002  0.00  0.00    -0.193 NA
ATOM      8  C   UNL     1       5.678  -0.906  -0.465  0.00  0.00    +0.189 A 
ATOM      9  N   UNL     1       4.693  -0.035  -0.504  0.00  0.00    -0.144 NA
ATOM     10  N   UNL     1       8.934  -2.061  -1.340  0.00  0.00    -0.297 N 
ATOM     11  C   UNL     1       9.829  -3.205  -1.117  0.00  0.00    +0.127 C 
ATOM     12  C   UNL     1      10.251  -3.771  -2.478  0.00  0.00    +0.124 C 
ATOM     13  N   UNL     1      10.717  -2.662  -3.323  0.00  0.00    -0.327 N 
ATOM     14  C   UNL     1       9.822  -1.517  -3.547  0.00  0.00    +0.124 C 
ATOM     15  C   UNL     1       9.398  -0.955  -2.189  0.00  0.00    +0.127 C 
ENDROOT
BRANCH   4  16
ATOM     16  C   UNL     1       5.732  -4.259   1.422  0.00  0.00    +0.001 A 
ATOM     17  C   UNL     1       4.504  -4.891   1.225  0.00  0.00    +0.013 A 
ATOM     18  C   UNL     1       4.151  -5.968   2.010  0.00  0.00    +0.039 A 
ATOM     19  C   UNL     1       5.014  -6.423   2.995  0.00  0.00    +0.123 A 
ATOM     20  C   UNL     1       6.236  -5.798   3.195  0.00  0.00    +0.039 A 
ATOM     21  C   UNL     1       6.600  -4.724   2.411  0.00  0.00    +0.013 A 
ATOM     22  F   UNL     1       4.664  -7.478   3.762  0.00  0.00    -0.205 F 
ENDBRANCH   4  16
BRANCH   1  26
ATOM     23  C   UNL     1       0.015   1.494   0.837  0.00  0.00    +0.000 A 
ATOM     24  C   UNL     1       1.191   2.213   0.722  0.00  0.00    +0.002 A 
ATOM     25  C   UNL     1       2.390   1.554   0.535  0.00  0.00    +0.028 A 
ATOM     26  C   UNL     1       2.414   0.167   0.463  0.00  0.00    +0.067 A 
ATOM     27  C   UNL     1       1.232  -0.552   0.579  0.00  0.00    +0.028 A 
ATOM     28  C   UNL     1       0.036   0.113   0.765  0.00  0.00    +0.002 A 
ENDBRANCH   1  26
BRANCH  13  29
ATOM     29  C   UNL     1      11.987  -2.695  -3.903  0.00  0.00    +0.030 A 
ATOM     30  C   UNL     1      12.769  -3.838  -3.800  0.00  0.00    +0.023 A 
ATOM     31  C   UNL     1      14.025  -3.868  -4.375  0.00  0.00    +0.002 A 
ATOM     32  C   UNL     1      14.504  -2.761  -5.051  0.00  0.00    +0.000 A 
ATOM     33  C   UNL     1      13.727  -1.621  -5.155  0.00  0.00    +0.002 A 
ATOM     34  C   UNL     1      12.469  -1.587  -4.588  0.00  0.00    +0.023 A 
ENDBRANCH  13  29
BRANCH   2  35
ATOM     35  N   UNL     1       3.135  -2.468   1.625  0.00  0.00    -0.342 N 
ATOM     36  H   UNL     1       2.263  -2.139   1.892  0.00  0.00    +0.144 HD
ATOM     37  H   UNL     1       3.441  -3.336   1.933  0.00  0.00    +0.144 HD
ENDBRANCH   2  35
TORSDOF 4
