REMARK  Name = ZINC43740459
REMARK  4 active torsions:
REMARK  status: ('A' for Active; 'I' for Inactive)
REMARK    1  A    between atoms: C_1  and  C_2
REMARK    2  A    between atoms: C_4  and  C_29
REMARK    3  A    between atoms: C_9  and  C_13
REMARK    4  A    between atoms: C_20  and  C_26
REMARK                            x       y       z     vdW  Elec       q    Type
REMARK                         _______ _______ _______ _____ _____    ______ ____
ROOT
ATOM      1  C   UNL     1       0.318   1.718  -0.017  0.00  0.00    +0.018 C 
ATOM      2  C   UNL     1       0.335   0.189  -0.065  0.00  0.00    +0.080 C 
ATOM      3  C   UNL     1      -1.110  -0.341  -0.111  0.00  0.00    +0.152 C 
ATOM      4  N   UNL     1      -1.681  -0.139   1.228  0.00  0.00    -0.284 N 
ATOM      5  C   UNL     1      -1.055  -0.739   2.439  0.00  0.00    +0.123 C 
ATOM      6  C   UNL     1       0.371  -0.185   2.514  0.00  0.00    +0.076 C 
ATOM      7  C   UNL     1       1.019  -0.348   1.171  0.00  0.00    +0.143 C 
ATOM      8  O   UNL     1       2.079  -0.919   1.078  0.00  0.00    -0.297 OA
ATOM      9  C   UNL     1       0.332   1.306   2.857  0.00  0.00    +0.017 C 
ATOM     10  C   UNL     1      -1.936  -0.344   3.573  0.00  0.00    +0.119 C 
ATOM     11  C   UNL     1      -1.465  -0.011   4.944  0.00  0.00    +0.008 C 
ATOM     12  C   UNL     1      -2.587   0.007   5.673  0.00  0.00    +0.004 C 
ATOM     13  C   UNL     1      -3.745  -0.363   4.740  0.00  0.00    +0.157 C 
ATOM     14  O   UNL     1      -3.048  -1.258   3.801  0.00  0.00    -0.359 OA
ATOM     15  C   UNL     1      -4.004   0.873   3.819  0.00  0.00    +0.150 C 
ATOM     16  C   UNL     1      -2.674   0.930   3.017  0.00  0.00    +0.129 C 
ATOM     17  C   UNL     1      -2.775   0.578   1.559  0.00  0.00    +0.224 C 
ATOM     18  O   UNL     1      -3.681   0.884   0.813  0.00  0.00    -0.275 OA
ENDROOT
BRANCH   3  19
ATOM     19  C   UNL     1      -1.109  -1.808  -0.456  0.00  0.00    +0.126 A 
ATOM     20  C   UNL     1      -1.350  -2.330  -1.672  0.00  0.00    +0.046 A 
ATOM     21  C   UNL     1      -1.248  -3.734  -1.542  0.00  0.00    +0.041 A 
ATOM     22  C   UNL     1      -0.952  -3.986  -0.254  0.00  0.00    +0.195 A 
ATOM     23  O   UNL     1      -0.863  -2.816   0.398  0.00  0.00    -0.466 OA
ENDBRANCH   3  19
BRANCH  15  24
ATOM     24  C   UNL     1      -5.173   0.625   2.901  0.00  0.00    +0.363 C 
ATOM     25  O   UNL     1      -5.897   1.549   2.573  0.00  0.00    -0.246 OA
ATOM     26  O   UNL     1      -5.395  -0.500   2.486  0.00  0.00    -0.246 OA
ENDBRANCH  15  24
TORSDOF 2
