REMARK  Name = ZINC17247380
REMARK  8 active torsions:
REMARK  status: ('A' for Active; 'I' for Inactive)
REMARK    1  A    between atoms: C_1  and  C_2
REMARK    2  A    between atoms: C_2  and  C_3
REMARK    3  A    between atoms: C_2  and  C_4
REMARK    4  A    between atoms: C_7  and  C_10
REMARK    5  A    between atoms: N_11  and  N_12
REMARK    6  A    between atoms: C_16  and  C_19
REMARK    7  A    between atoms: C_23  and  S_25
REMARK    8  A    between atoms: S_25  and  N_28
REMARK                            x       y       z     vdW  Elec       q    Type
REMARK                         _______ _______ _______ _____ _____    ______ ____
ROOT
ATOM      1  N   UNL     1       2.791  -3.106   6.562  0.00  0.00    -0.124 NA
ATOM      2  C   UNL     1       2.168  -3.886   7.433  0.00  0.00    +0.192 A 
ATOM      3  N   UNL     1       2.642  -4.438   8.598  0.00  0.00    -0.332 N 
ATOM      4  H   UNL     1       3.554  -4.277   8.886  0.00  0.00    +0.168 HD
ATOM      5  C   UNL     1       1.804  -5.219   9.344  0.00  0.00    +0.055 A 
ATOM      6  C   UNL     1       0.538  -5.429   8.924  0.00  0.00    +0.075 A 
ATOM      7  S   UNL     1       0.487  -4.489   7.407  0.00  0.00    -0.056 S 
ENDROOT
BRANCH   5   8
ATOM      8  C   UNL     1       2.281  -5.830  10.603  0.00  0.00    +0.001 A 
ATOM      9  C   UNL     1       3.589  -5.607  11.039  0.00  0.00    +0.010 A 
ATOM     10  C   UNL     1       4.028  -6.179  12.214  0.00  0.00    +0.003 A 
ATOM     11  C   UNL     1       3.175  -6.974  12.961  0.00  0.00    +0.028 A 
ATOM     12  C   UNL     1       1.879  -7.199  12.535  0.00  0.00    +0.106 A 
ATOM     13  C   UNL     1       1.425  -6.626  11.364  0.00  0.00    +0.038 A 
BRANCH  12  14
ATOM     14  S   UNL     1       0.802  -8.213  13.492  0.00  0.00    +0.061 S 
ATOM     15  O   UNL     1      -0.186  -8.711  12.601  0.00  0.00    -0.153 OA
ATOM     16  O   UNL     1       1.631  -9.069  14.266  0.00  0.00    -0.153 OA
BRANCH  14  17
ATOM     17  N   UNL     1       0.018  -7.221  14.562  0.00  0.00    -0.172 NA
ATOM     18  C   UNL     1       0.582  -6.943  15.892  0.00  0.00    +0.137 C 
ATOM     19  C   UNL     1       0.594  -5.425  16.105  0.00  0.00    +0.177 C 
ATOM     20  O   UNL     1      -0.712  -4.904  15.848  0.00  0.00    -0.377 OA
ATOM     21  C   UNL     1      -1.163  -5.090  14.504  0.00  0.00    +0.177 C 
ATOM     22  C   UNL     1      -1.262  -6.586  14.207  0.00  0.00    +0.137 C 
ENDBRANCH  14  17
ENDBRANCH  12  14
ENDBRANCH   5   8
BRANCH   1  24
ATOM     23  C   UNL     1       2.783  -1.909   4.658  0.00  0.00    +0.143 C 
ATOM     24  N   UNL     1       2.167  -2.678   5.518  0.00  0.00    -0.155 NA
BRANCH  23  28
ATOM     25  C   UNL     1       0.731  -0.503   1.223  0.00  0.00    -0.045 A 
ATOM     26  C   UNL     1       2.052  -0.145   1.430  0.00  0.00    +0.004 A 
ATOM     27  C   UNL     1       2.726  -0.598   2.545  0.00  0.00    +0.010 A 
ATOM     28  C   UNL     1       2.071  -1.421   3.467  0.00  0.00    -0.005 A 
ATOM     29  C   UNL     1       0.736  -1.778   3.250  0.00  0.00    +0.010 A 
ATOM     30  C   UNL     1       0.074  -1.313   2.134  0.00  0.00    +0.004 A 
BRANCH  25  32
ATOM     31  C   UNL     1      -0.019   1.526   0.010  0.00  0.00    +0.012 C 
ATOM     32  C   UNL     1       0.002  -0.004   0.002  0.00  0.00    +0.013 C 
ATOM     33  C   UNL     1       0.718  -0.497  -1.257  0.00  0.00    +0.012 C 
ENDBRANCH  25  32
ENDBRANCH  23  28
ENDBRANCH   1  24
TORSDOF 6
