REMARK  Name = ZINC49036069
REMARK  5 active torsions:
REMARK  status: ('A' for Active; 'I' for Inactive)
REMARK    1  A    between atoms: C_1  and  C_2
REMARK    2  A    between atoms: C_5  and  C_7
REMARK    3  A    between atoms: N_9  and  N_10
REMARK    4  A    between atoms: C_11  and  C_13
REMARK    5  A    between atoms: C_14  and  C_15
REMARK                            x       y       z     vdW  Elec       q    Type
REMARK                         _______ _______ _______ _____ _____    ______ ____
ROOT
ATOM      1  N   UNL     1       2.959  -5.398  -0.040  0.00  0.00    -0.231 N 
ATOM      2  C   UNL     1       4.296  -5.564  -0.047  0.00  0.00    +0.253 C 
ATOM      3  O   UNL     1       5.031  -4.592  -0.045  0.00  0.00    -0.269 OA
ATOM      4  H   UNL     1       2.374  -6.172  -0.042  0.00  0.00    +0.173 HD
ENDROOT
BRANCH   1   7
ATOM      5  C   UNL     1       1.076  -3.942  -0.024  0.00  0.00    +0.267 C 
ATOM      6  O   UNL     1       0.342  -4.913  -0.026  0.00  0.00    -0.268 OA
ATOM      7  N   UNL     1       2.413  -4.108  -0.031  0.00  0.00    -0.230 N 
ATOM      8  H   UNL     1       2.998  -3.334  -0.029  0.00  0.00    +0.173 HD
BRANCH   5  13
ATOM      9  C   UNL     1      -0.018   1.503   0.010  0.00  0.00    +0.051 C 
ATOM     10  C   UNL     1       0.002  -0.004   0.002  0.00  0.00    -0.013 A 
ATOM     11  C   UNL     1      -1.056  -0.852   0.002  0.00  0.00    +0.011 A 
ATOM     12  C   UNL     1      -0.827  -2.207  -0.006  0.00  0.00    +0.021 A 
ATOM     13  C   UNL     1       0.505  -2.592  -0.014  0.00  0.00    +0.076 A 
ATOM     14  S   UNL     1       1.341  -1.018  -0.017  0.00  0.00    -0.089 S 
ENDBRANCH   5  13
ENDBRANCH   1   7
BRANCH   2  15
ATOM     15  C   UNL     1       4.848  -6.867  -0.057  0.00  0.00    +0.072 C 
ATOM     16  C   UNL     1       6.194  -7.034  -0.063  0.00  0.00    +0.051 C 
BRANCH  16  17
ATOM     17  C   UNL     1       6.745  -8.337  -0.073  0.00  0.00    +0.129 A 
ATOM     18  C   UNL     1       8.089  -8.652  -0.075  0.00  0.00    +0.050 A 
ATOM     19  C   UNL     1       8.172 -10.051  -0.085  0.00  0.00    +0.057 A 
ATOM     20  C   UNL     1       6.905 -10.527  -0.089  0.00  0.00    +0.171 A 
ATOM     21  O   UNL     1       6.051  -9.495  -0.075  0.00  0.00    -0.449 OA
ATOM     22 BR   UNL     1       6.419 -12.355  -0.103  0.00  0.00    -0.008 Br
ENDBRANCH  16  17
ENDBRANCH   2  15
TORSDOF 4
