REMARK  Name = ZINC39465599
REMARK  7 active torsions:
REMARK  status: ('A' for Active; 'I' for Inactive)
REMARK    1  A    between atoms: C_1  and  C_2
REMARK    2  A    between atoms: C_2  and  O_3
REMARK    3  A    between atoms: O_3  and  P_4
REMARK    4  A    between atoms: C_12  and  O_27
REMARK    5  A    between atoms: C_13  and  C_20
REMARK    6  A    between atoms: C_25  and  O_26
REMARK    7  A    between atoms: O_27  and  C_28
REMARK                            x       y       z     vdW  Elec       q    Type
REMARK                         _______ _______ _______ _____ _____    ______ ____
ROOT
ATOM      1  P   UNL     1      -1.694  -2.069   0.007  0.00  0.00    +0.421 P 
ATOM      2  O   UNL     1      -0.827  -2.785  -0.955  0.00  0.00    -0.239 OA
ATOM      3  N   UNL     1      -1.512  -2.701   1.524  0.00  0.00    -0.156 NA
ATOM      4  N   UNL     1      -2.189  -3.871   1.789  0.00  0.00    -0.224 NA
ATOM      5  C   UNL     1      -1.939  -4.287   3.178  0.00  0.00    +0.108 C 
ATOM      6  C   UNL     1      -2.409  -5.731   3.350  0.00  0.00    +0.052 C 
ATOM      7  C   UNL     1      -3.829  -5.864   2.858  0.00  0.00    -0.038 A 
ATOM      8  C   UNL     1      -4.570  -6.960   3.274  0.00  0.00    +0.050 A 
ATOM      9  C   UNL     1      -5.876  -7.125   2.849  0.00  0.00    +0.128 A 
ATOM     10  C   UNL     1      -6.448  -6.177   1.994  0.00  0.00    +0.028 A 
ATOM     11  C   UNL     1      -5.696  -5.082   1.583  0.00  0.00    +0.017 A 
ATOM     12  C   UNL     1      -4.388  -4.927   2.015  0.00  0.00    -0.023 A 
ATOM     13  C   UNL     1      -3.622  -3.721   1.538  0.00  0.00    +0.130 C 
ATOM     14  C   UNL     1      -3.900  -3.510   0.047  0.00  0.00    +0.196 C 
ATOM     15  O   UNL     1      -3.260  -2.289  -0.374  0.00  0.00    -0.294 OA
ATOM     16  H   UNL     1      -0.957  -2.270   2.193  0.00  0.00    +0.153 HD
ENDROOT
BRANCH  10  17
ATOM     17  C   UNL     1      -7.846  -6.339   1.530  0.00  0.00    +0.027 A 
ATOM     18  C   UNL     1      -8.115  -6.556   0.180  0.00  0.00    +0.012 A 
ATOM     19  C   UNL     1      -9.418  -6.707  -0.248  0.00  0.00    +0.001 A 
ATOM     20  C   UNL     1     -10.461  -6.643   0.660  0.00  0.00    +0.004 A 
ATOM     21  C   UNL     1     -10.206  -6.428   2.001  0.00  0.00    +0.046 A 
ATOM     22  C   UNL     1      -8.902  -6.281   2.445  0.00  0.00    +0.125 A 
BRANCH  22  23
ATOM     23  O   UNL     1      -8.650  -6.076   3.764  0.00  0.00    -0.506 OA
ATOM     24  H   UNL     1      -8.636  -5.144   4.021  0.00  0.00    +0.292 HD
ENDBRANCH  22  23
ENDBRANCH  10  17
BRANCH   9  25
ATOM     25  O   UNL     1      -6.598  -8.201   3.259  0.00  0.00    -0.494 OA
ATOM     26  C   UNL     1      -5.945  -9.126   4.130  0.00  0.00    +0.277 C 
ENDBRANCH   9  25
BRANCH   1  27
ATOM     27  O   UNL     1      -1.339  -0.499   0.012  0.00  0.00    -0.296 OA
BRANCH  27  29
ATOM     28  C   UNL     1      -0.019   1.526   0.010  0.00  0.00    +0.035 C 
ATOM     29  C   UNL     1       0.002  -0.004   0.002  0.00  0.00    +0.168 C 
ENDBRANCH  27  29
ENDBRANCH   1  27
TORSDOF 5
