REMARK  Name = ZINC48858705
REMARK  5 active torsions:
REMARK  status: ('A' for Active; 'I' for Inactive)
REMARK    1  A    between atoms: C_1  and  C_2
REMARK    2  A    between atoms: C_7  and  C_9
REMARK    3  A    between atoms: C_7  and  N_12
REMARK    4  A    between atoms: C_20  and  C_22
REMARK    5  A    between atoms: C_22  and  O_23
REMARK                            x       y       z     vdW  Elec       q    Type
REMARK                         _______ _______ _______ _____ _____    ______ ____
ROOT
ATOM      1  N   UNL     1       0.177   1.493   2.789  0.00  0.00    -0.283 N 
ATOM      2  C   UNL     1      -0.309   2.141   3.866  0.00  0.00    +0.303 C 
ATOM      3  O   UNL     1      -0.571   1.523   4.880  0.00  0.00    -0.253 OA
ATOM      4  N   UNL     1      -0.504   3.474   3.820  0.00  0.00    -0.280 N 
ATOM      5  C   UNL     1      -0.088   4.251   2.644  0.00  0.00    +0.110 C 
ATOM      6  C   UNL     1       0.811   5.402   3.107  0.00  0.00    +0.019 C 
ATOM      7  C   UNL     1       0.079   6.219   4.173  0.00  0.00    +0.003 C 
ATOM      8  C   UNL     1      -0.225   5.329   5.380  0.00  0.00    +0.025 C 
ATOM      9  C   UNL     1      -1.141   4.177   4.941  0.00  0.00    +0.103 C 
ATOM     10  H   UNL     1       0.455   1.994   2.006  0.00  0.00    +0.151 HD
ENDROOT
BRANCH   1  16
ATOM     11  C   UNL     1       2.513   1.736   3.642  0.00  0.00    +0.007 C 
ATOM     12  C   UNL     1       2.626   0.210   3.653  0.00  0.00    -0.012 C 
ATOM     13  C   UNL     1       3.155  -0.272   2.301  0.00  0.00    +0.003 C 
ATOM     14  C   UNL     1       2.193   0.161   1.193  0.00  0.00    +0.003 C 
ATOM     15  C   UNL     1       0.814  -0.450   1.448  0.00  0.00    +0.037 C 
ATOM     16  C   UNL     1       0.284   0.032   2.800  0.00  0.00    +0.137 C 
ATOM     17  C   UNL     1       1.246  -0.400   3.908  0.00  0.00    +0.040 C 
BRANCH  16  18
ATOM     18  C   UNL     1      -1.075  -0.570   3.050  0.00  0.00    +0.379 C 
ATOM     19  O   UNL     1      -1.206  -1.781   3.098  0.00  0.00    -0.244 OA
ATOM     20  O   UNL     1      -2.043   0.155   3.206  0.00  0.00    -0.244 OA
ENDBRANCH  16  18
ENDBRANCH   1  16
BRANCH   9  21
ATOM     21  C   UNL     1      -1.343   3.206   6.107  0.00  0.00    +0.178 C 
BRANCH  21  22
ATOM     22  O   UNL     1      -0.069   2.792   6.607  0.00  0.00    -0.393 OA
ATOM     23  H   UNL     1      -0.120   2.175   7.350  0.00  0.00    +0.209 HD
ENDBRANCH  21  22
ENDBRANCH   9  21
TORSDOF 4
