REMARK  Name = ZINC37917661
REMARK  6 active torsions:
REMARK  status: ('A' for Active; 'I' for Inactive)
REMARK    1  A    between atoms: C_3  and  C_7
REMARK    2  A    between atoms: N_12  and  C_14
REMARK    3  A    between atoms: C_14  and  C_15
REMARK    4  A    between atoms: N_17  and  C_18
REMARK    5  A    between atoms: C_18  and  C_19
REMARK    6  A    between atoms: C_19  and  C_20
REMARK                            x       y       z     vdW  Elec       q    Type
REMARK                         _______ _______ _______ _____ _____    ______ ____
ROOT
ATOM      1  C   UNL     1       3.562   0.588  -0.589  0.00  0.00    -0.042 C 
ATOM      2  C   UNL     1       3.729   0.188   0.879  0.00  0.00    -0.002 C 
ATOM      3  C   UNL     1       5.209  -0.089   1.158  0.00  0.00    -0.018 C 
ATOM      4  C   UNL     1       5.708  -1.173   0.201  0.00  0.00    -0.078 C 
ATOM      5  N   UNL     1       5.546  -0.719  -1.186  0.00  0.00    +0.386 N 
ATOM      6  C   UNL     1       4.123  -0.520  -1.482  0.00  0.00    -0.076 C 
ATOM      7  H   UNL     1       6.040   0.151  -1.313  0.00  0.00    -0.081 HD
ENDROOT
BRANCH   1  10
ATOM      8  C   UNL     1       0.519   1.997  -2.275  0.00  0.00    -0.021 C 
ATOM      9  C   UNL     1       1.891   1.278  -2.357  0.00  0.00    -0.017 C 
ATOM     10  C   UNL     1       2.077   0.791  -0.898  0.00  0.00    -0.071 C 
ATOM     11  N   UNL     1       1.519   1.877  -0.064  0.00  0.00    +0.381 N 
ATOM     12  C   UNL     1       0.544   2.634  -0.869  0.00  0.00    -0.082 C 
ATOM     13  H   UNL     1       1.060   1.483   0.744  0.00  0.00    -0.086 HD
ATOM     14  H   UNL     1       2.262   2.491   0.236  0.00  0.00    -0.086 HD
ENDBRANCH   1  10
BRANCH   5  15
ATOM     15  C   UNL     1       6.098  -1.730  -2.098  0.00  0.00    +0.019 C 
BRANCH  15  16
ATOM     16  C   UNL     1       7.586  -1.839  -1.885  0.00  0.00    +0.196 C 
ATOM     17  O   UNL     1       8.133  -1.144  -1.055  0.00  0.00    -0.278 OA
ATOM     18  N   UNL     1       8.309  -2.710  -2.617  0.00  0.00    -0.316 N 
ATOM     19  H   UNL     1       7.872  -3.266  -3.281  0.00  0.00    +0.149 HD
BRANCH  18  20
ATOM     20  C   UNL     1       9.756  -2.817  -2.410  0.00  0.00    +0.119 C 
BRANCH  20  21
ATOM     21  C   UNL     1      10.331  -3.869  -3.360  0.00  0.00    +0.137 C 
BRANCH  21  22
ATOM     22  C   UNL     1      11.784  -3.976  -3.152  0.00  0.00    +0.064 C 
ATOM     23  N   UNL     1      12.905  -4.059  -2.991  0.00  0.00    -0.197 NA
ENDBRANCH  21  22
ENDBRANCH  20  21
ENDBRANCH  18  20
ENDBRANCH  15  16
ENDBRANCH   5  15
TORSDOF 6
