REMARK  Name = ZINC01019597
REMARK  6 active torsions:
REMARK  status: ('A' for Active; 'I' for Inactive)
REMARK    1  A    between atoms: C_1  and  C_2
REMARK    2  A    between atoms: C_2  and  O_3
REMARK    3  A    between atoms: O_3  and  C_4
REMARK    4  A    between atoms: C_4  and  C_6
REMARK    5  A    between atoms: C_7  and  C_28
REMARK    6  A    between atoms: C_18  and  C_20
REMARK                            x       y       z     vdW  Elec       q    Type
REMARK                         _______ _______ _______ _____ _____    ______ ____
ROOT
ATOM      1  C   UNL     1       1.471   1.843  -0.092  0.00  0.00    +0.080 C 
ATOM      2  C   UNL     1       1.990   2.499  -1.140  0.00  0.00    +0.020 C 
ATOM      3  N   UNL     1       1.237   2.847  -2.233  0.00  0.00    -0.288 N 
ATOM      4  C   UNL     1      -0.142   2.748  -2.122  0.00  0.00    +0.202 A 
ATOM      5  N   UNL     1      -1.057   3.232  -2.917  0.00  0.00    -0.214 NA
ATOM      6  C   UNL     1      -2.277   2.912  -2.442  0.00  0.00    +0.091 A 
ATOM      7  C   UNL     1      -3.565   3.188  -2.914  0.00  0.00    +0.030 A 
ATOM      8  C   UNL     1      -4.624   2.703  -2.170  0.00  0.00    +0.002 A 
ATOM      9  C   UNL     1      -4.432   1.974  -1.009  0.00  0.00    +0.002 A 
ATOM     10  C   UNL     1      -3.167   1.688  -0.522  0.00  0.00    +0.028 A 
ATOM     11  C   UNL     1      -2.085   2.166  -1.252  0.00  0.00    +0.071 A 
ATOM     12  N   UNL     1      -0.734   2.076  -1.076  0.00  0.00    -0.300 N 
ATOM     13  C   UNL     1       0.031   1.415  -0.018  0.00  0.00    +0.162 C 
ATOM     14  C   UNL     1       3.450   2.868  -1.116  0.00  0.00    +0.061 C 
ATOM     15  H   UNL     1       1.655   3.151  -3.054  0.00  0.00    +0.155 HD
ENDROOT
BRANCH  13  16
ATOM     16  C   UNL     1      -0.059  -0.079  -0.192  0.00  0.00    +0.017 A 
ATOM     17  C   UNL     1       0.401  -0.668  -1.357  0.00  0.00    +0.048 A 
ATOM     18  C   UNL     1       0.324  -2.041  -1.514  0.00  0.00    +0.020 A 
ATOM     19  C   UNL     1      -0.222  -2.822  -0.513  0.00  0.00    +0.003 A 
ATOM     20  C   UNL     1      -0.686  -2.233   0.648  0.00  0.00    +0.020 A 
ATOM     21  C   UNL     1      -0.605  -0.862   0.809  0.00  0.00    +0.048 A 
ATOM     22 CL   UNL     1      -1.187  -0.122   2.268  0.00  0.00    -0.083 Cl
ATOM     23 CL   UNL     1       1.079   0.314  -2.617  0.00  0.00    -0.083 Cl
ENDBRANCH  13  16
BRANCH   1  24
ATOM     24  C   UNL     1       2.319   1.538   0.996  0.00  0.00    +0.339 C 
ATOM     25  O   UNL     1       2.230   2.169   2.033  0.00  0.00    -0.245 OA
BRANCH  24  26
ATOM     26  O   UNL     1       3.228   0.547   0.885  0.00  0.00    -0.462 OA
BRANCH  26  28
ATOM     27  C   UNL     1       5.014  -0.856   1.713  0.00  0.00    +0.048 C 
ATOM     28  C   UNL     1       4.053   0.293   2.025  0.00  0.00    +0.229 C 
ENDBRANCH  26  28
ENDBRANCH  24  26
ENDBRANCH   1  24
TORSDOF 4
