REMARK  Name = ZINC22531121
REMARK  10 active torsions:
REMARK  status: ('A' for Active; 'I' for Inactive)
REMARK    1  A    between atoms: C_1  and  C_2
REMARK    2  A    between atoms: C_3  and  S_8
REMARK    3  A    between atoms: C_4  and  C_7
REMARK    4  A    between atoms: S_8  and  N_11
REMARK    5  A    between atoms: N_15  and  C_18
REMARK    6  A    between atoms: C_18  and  C_19
REMARK    7  A    between atoms: N_21  and  C_22
REMARK    8  A    between atoms: C_22  and  C_23
REMARK    9  A    between atoms: C_22  and  C_24
REMARK   10  A    between atoms: C_22  and  C_25
REMARK                            x       y       z     vdW  Elec       q    Type
REMARK                         _______ _______ _______ _____ _____    ______ ____
ROOT
ATOM      1  N   UNL     1      -0.454  -2.636  -0.592  0.00  0.00    -0.178 NA
ATOM      2  C   UNL     1       0.325  -2.903   0.597  0.00  0.00    +0.107 C 
ATOM      3  C   UNL     1       0.020  -1.826   1.669  0.00  0.00    -0.001 C 
ATOM      4  C   UNL     1       0.575  -0.527   1.242  0.00  0.00    -0.077 C 
ATOM      5  N   UNL     1       0.002  -0.004   0.002  0.00  0.00    +0.386 N 
ATOM      6  C   UNL     1       0.725  -0.507  -1.147  0.00  0.00    -0.061 C 
ATOM      7  C   UNL     1       0.027  -1.768  -1.688  0.00  0.00    +0.091 C 
ATOM      8  H   UNL     1      -1.034  -0.364  -0.078  0.00  0.00    -0.081 HD
ENDROOT
BRANCH   1   9
ATOM      9  S   UNL     1      -1.949  -3.333  -0.732  0.00  0.00    +0.066 S 
ATOM     10  O   UNL     1      -2.240  -3.393  -2.122  0.00  0.00    -0.153 OA
ATOM     11  O   UNL     1      -1.938  -4.488   0.095  0.00  0.00    -0.153 OA
BRANCH   9  14
ATOM     12  C   UNL     1      -3.738  -0.785  -2.117  0.00  0.00    +0.071 C 
ATOM     13  C   UNL     1      -3.823  -1.175  -0.663  0.00  0.00    +0.107 A 
ATOM     14  C   UNL     1      -3.113  -2.216  -0.023  0.00  0.00    +0.170 A 
ATOM     15  C   UNL     1      -3.538  -2.160   1.262  0.00  0.00    +0.161 A 
ATOM     16  O   UNL     1      -4.418  -1.151   1.327  0.00  0.00    -0.358 OA
ATOM     17  N   UNL     1      -4.565  -0.619   0.251  0.00  0.00    -0.081 NA
ATOM     18  C   UNL     1      -3.107  -3.055   2.395  0.00  0.00    +0.091 C 
ENDBRANCH   9  14
ENDBRANCH   1   9
BRANCH   5  19
ATOM     19  C   UNL     1      -0.018   1.465   0.010  0.00  0.00    +0.019 C 
BRANCH  19  20
ATOM     20  C   UNL     1       1.396   1.986  -0.001  0.00  0.00    +0.197 C 
ATOM     21  O   UNL     1       2.328   1.211  -0.014  0.00  0.00    -0.278 OA
ATOM     22  N   UNL     1       1.624   3.315   0.004  0.00  0.00    -0.312 N 
ATOM     23  H   UNL     1       0.778   4.018   0.016  0.00  0.00    +0.149 HD
BRANCH  22  24
ATOM     24  C   UNL     1       2.999   3.822  -0.006  0.00  0.00    +0.026 C 
ATOM     25  C   UNL     1       3.715   3.328  -1.265  0.00  0.00    +0.031 C 
ATOM     26  C   UNL     1       2.978   5.352   0.002  0.00  0.00    +0.031 C 
ATOM     27  C   UNL     1       3.739   3.315   1.234  0.00  0.00    +0.031 C 
ENDBRANCH  22  24
ENDBRANCH  19  20
ENDBRANCH   5  19
TORSDOF 5
