REMARK  Name = ZINC35843653
REMARK  6 active torsions:
REMARK  status: ('A' for Active; 'I' for Inactive)
REMARK    1  A    between atoms: C_5  and  C_7
REMARK    2  A    between atoms: C_13  and  C_15
REMARK    3  A    between atoms: C_15  and  N_16
REMARK    4  A    between atoms: N_16  and  C_17
REMARK    5  A    between atoms: N_16  and  C_26
REMARK    6  A    between atoms: C_17  and  C_18
REMARK                            x       y       z     vdW  Elec       q    Type
REMARK                         _______ _______ _______ _____ _____    ______ ____
ROOT
ATOM      1  C   UNL     1      -1.978  -2.999  -1.981  0.00  0.00    +0.020 C 
ENDROOT
BRANCH   1   7
ATOM      2  C   UNL     1       1.421  -2.109  -0.400  0.00  0.00    +0.166 C 
ATOM      3  N   UNL     1       0.067  -2.647  -0.636  0.00  0.00    -0.286 N 
ATOM      4  C   UNL     1      -0.510  -3.430   0.453  0.00  0.00    +0.120 C 
ATOM      5  C   UNL     1       0.601  -4.181   1.244  0.00  0.00    +0.090 C 
ATOM      6  S   UNL     1       1.899  -2.860   1.213  0.00  0.00    -0.132 S 
ATOM      7  C   UNL     1      -0.597  -2.428  -1.788  0.00  0.00    +0.200 C 
ATOM      8  O   UNL     1      -0.084  -1.772  -2.669  0.00  0.00    -0.278 OA
BRANCH   2  13
ATOM      9  C   UNL     1       0.144   1.429  -0.071  0.00  0.00    +0.000 A 
ATOM     10  C   UNL     1       1.321   2.153  -0.113  0.00  0.00    +0.001 A 
ATOM     11  C   UNL     1       2.531   1.498  -0.248  0.00  0.00    +0.020 A 
ATOM     12  C   UNL     1       2.564   0.118  -0.341  0.00  0.00    +0.047 A 
ATOM     13  C   UNL     1       1.386  -0.606  -0.298  0.00  0.00    +0.001 A 
ATOM     14  C   UNL     1       0.176   0.050  -0.164  0.00  0.00    +0.008 A 
ATOM     15 CL   UNL     1       4.083  -0.705  -0.511  0.00  0.00    -0.083 Cl
ENDBRANCH   2  13
ENDBRANCH   1   7
BRANCH   1  16
ATOM     16  N   UNL     1      -2.483  -2.622  -3.308  0.00  0.00    +0.390 N 
ATOM     17  H   UNL     1      -2.444  -1.619  -3.410  0.00  0.00    -0.080 HD
BRANCH  16  18
ATOM     18  C   UNL     1      -1.653  -3.252  -4.344  0.00  0.00    -0.068 C 
ATOM     19  C   UNL     1      -0.853  -2.329  -5.266  0.00  0.00    -0.017 C 
ATOM     20  C   UNL     1      -2.082  -3.067  -5.801  0.00  0.00    -0.017 C 
ENDBRANCH  16  18
BRANCH  16  21
ATOM     21  C   UNL     1      -3.873  -3.076  -3.451  0.00  0.00    -0.036 C 
BRANCH  21  22
ATOM     22  C   UNL     1      -4.744  -2.343  -2.464  0.00  0.00    +0.006 A 
ATOM     23  C   UNL     1      -5.041  -2.919  -1.241  0.00  0.00    +0.127 A 
ATOM     24  C   UNL     1      -5.842  -2.245  -0.335  0.00  0.00    +0.039 A 
ATOM     25  C   UNL     1      -6.345  -0.997  -0.651  0.00  0.00    +0.006 A 
ATOM     26  C   UNL     1      -6.049  -0.421  -1.872  0.00  0.00    +0.039 A 
ATOM     27  C   UNL     1      -5.243  -1.091  -2.777  0.00  0.00    +0.127 A 
ATOM     28  F   UNL     1      -4.949  -0.524  -3.968  0.00  0.00    -0.205 F 
ATOM     29  F   UNL     1      -4.550  -4.139  -0.932  0.00  0.00    -0.205 F 
ENDBRANCH  21  22
ENDBRANCH  16  21
ENDBRANCH   1  16
TORSDOF 6
