REMARK  Name = ZINC39710549
REMARK  13 active torsions:
REMARK  status: ('A' for Active; 'I' for Inactive)
REMARK    1  A    between atoms: C_1  and  C_2
REMARK    2  A    between atoms: C_2  and  C_3
REMARK    3  A    between atoms: C_10  and  C_15
REMARK    4  A    between atoms: C_15  and  C_17
REMARK    5  A    between atoms: C_15  and  N_27
REMARK    6  A    between atoms: N_22  and  C_23
REMARK    7  A    between atoms: C_23  and  C_24
REMARK    8  A    between atoms: C_23  and  C_25
REMARK    9  A    between atoms: C_23  and  C_26
REMARK   10  A    between atoms: N_27  and  C_28
REMARK   11  A    between atoms: N_27  and  C_35
REMARK   12  A    between atoms: C_28  and  C_29
REMARK   13  A    between atoms: C_35  and  C_36
REMARK                            x       y       z     vdW  Elec       q    Type
REMARK                         _______ _______ _______ _____ _____    ______ ____
ROOT
ATOM      1  C   UNL     1       5.197  -2.724  -4.691  0.00  0.00    -0.009 C 
ENDROOT
BRANCH   1   9
ATOM      2  C   UNL     1       2.789  -6.982  -7.872  0.00  0.00    -0.047 A 
ATOM      3  C   UNL     1       3.491  -6.592  -9.013  0.00  0.00    +0.005 A 
ATOM      4  C   UNL     1       4.158  -5.411  -9.095  0.00  0.00    +0.024 A 
ATOM      5  C   UNL     1       4.167  -4.519  -8.008  0.00  0.00    +0.040 A 
ATOM      6  N   UNL     1       4.824  -3.363  -8.100  0.00  0.00    -0.285 N 
ATOM      7  C   UNL     1       4.873  -2.480  -7.116  0.00  0.00    +0.223 C 
ATOM      8  O   UNL     1       5.490  -1.441  -7.259  0.00  0.00    -0.275 OA
ATOM      9  C   UNL     1       4.159  -2.766  -5.815  0.00  0.00    +0.088 C 
ATOM     10  C   UNL     1       3.409  -4.079  -5.705  0.00  0.00    -0.006 C 
ATOM     11  C   UNL     1       3.434  -4.905  -6.790  0.00  0.00    -0.007 A 
ATOM     12  C   UNL     1       2.732  -6.190  -6.771  0.00  0.00    +0.013 A 
ATOM     13  H   UNL     1       5.289  -3.160  -8.927  0.00  0.00    +0.155 HD
BRANCH   2  15
ATOM     14  C   UNL     1       0.647  -8.123  -8.380  0.00  0.00    +0.009 C 
ATOM     15  C   UNL     1       2.075  -8.309  -7.864  0.00  0.00    +0.032 C 
ENDBRANCH   2  15
ENDBRANCH   1   9
BRANCH   1  16
ATOM     16  C   UNL     1       5.271  -1.307  -4.119  0.00  0.00    +0.205 C 
ATOM     17  N   UNL     1       6.152  -1.275  -2.943  0.00  0.00    -0.152 NA
ATOM     18  N   UNL     1       5.495  -0.917  -1.963  0.00  0.00    -0.070 NA
ATOM     19  N   UNL     1       4.158  -0.663  -2.269  0.00  0.00    -0.179 N 
ATOM     20  N   UNL     1       3.950  -0.886  -3.608  0.00  0.00    -0.183 NA
ATOM     21  H   UNL     1       3.482  -0.373  -1.637  0.00  0.00    +0.191 HD
BRANCH  20  22
ATOM     22  C   UNL     1       3.489   0.334  -4.282  0.00  0.00    +0.035 C 
ATOM     23  C   UNL     1       3.279   0.046  -5.770  0.00  0.00    +0.029 C 
ATOM     24  C   UNL     1       2.168   0.792  -3.661  0.00  0.00    +0.029 C 
ATOM     25  C   UNL     1       4.538   1.435  -4.118  0.00  0.00    +0.029 C 
ENDBRANCH  20  22
ENDBRANCH   1  16
BRANCH   1  26
ATOM     26  N   UNL     1       6.511  -3.107  -5.223  0.00  0.00    +0.390 N 
ATOM     27  H   UNL     1       6.825  -2.408  -5.879  0.00  0.00    -0.080 HD
BRANCH  26  28
ATOM     28  C   UNL     1       7.475  -3.212  -4.120  0.00  0.00    -0.042 C 
BRANCH  28  29
ATOM     29  C   UNL     1       7.028  -4.286  -3.162  0.00  0.00    -0.064 A 
ATOM     30  C   UNL     1       6.276  -3.952  -2.051  0.00  0.00    +0.002 A 
ATOM     31  C   UNL     1       5.866  -4.938  -1.173  0.00  0.00    +0.000 A 
ATOM     32  C   UNL     1       6.208  -6.257  -1.406  0.00  0.00    +0.000 A 
ATOM     33  C   UNL     1       6.958  -6.591  -2.518  0.00  0.00    +0.000 A 
ATOM     34  C   UNL     1       7.365  -5.606  -3.398  0.00  0.00    +0.002 A 
ENDBRANCH  28  29
ENDBRANCH  26  28
BRANCH  26  35
ATOM     35  C   UNL     1       6.404  -4.404  -5.904  0.00  0.00    -0.042 C 
BRANCH  35  36
ATOM     36  C   UNL     1       7.317  -4.419  -7.103  0.00  0.00    -0.064 A 
ATOM     37  C   UNL     1       8.059  -3.297  -7.420  0.00  0.00    +0.004 A 
ATOM     38  C   UNL     1       8.897  -3.309  -8.519  0.00  0.00    +0.038 A 
ATOM     39  C   UNL     1       8.993  -4.447  -9.303  0.00  0.00    +0.123 A 
ATOM     40  C   UNL     1       8.249  -5.570  -8.985  0.00  0.00    +0.038 A 
ATOM     41  C   UNL     1       7.416  -5.557  -7.882  0.00  0.00    +0.004 A 
ATOM     42  F   UNL     1       9.812  -4.460 -10.377  0.00  0.00    -0.205 F 
ENDBRANCH  35  36
ENDBRANCH  26  35
ENDBRANCH   1  26
TORSDOF 9
