REMARK  Name = ZINC39733846
REMARK  9 active torsions:
REMARK  status: ('A' for Active; 'I' for Inactive)
REMARK    1  A    between atoms: C_1  and  C_2
REMARK    2  A    between atoms: C_4  and  C_12
REMARK    3  A    between atoms: C_12  and  C_14
REMARK    4  A    between atoms: C_14  and  C_16
REMARK    5  A    between atoms: C_14  and  S_17
REMARK    6  A    between atoms: S_17  and  C_18
REMARK    7  A    between atoms: C_22  and  S_24
REMARK    8  A    between atoms: S_24  and  C_25
REMARK    9  A    between atoms: C_25  and  C_26
REMARK                            x       y       z     vdW  Elec       q    Type
REMARK                         _______ _______ _______ _____ _____    ______ ____
ROOT
ATOM      1  C   UNL     1       0.921  -0.458  -3.558  0.00  0.00    +0.117 C 
ATOM      2  C   UNL     1       2.124   0.481  -3.667  0.00  0.00    +0.027 C 
ENDROOT
BRANCH   1   3
ATOM      3  C   UNL     1      -0.181   0.226  -2.790  0.00  0.00    +0.174 C 
ATOM      4  O   UNL     1      -1.038   0.849  -3.382  0.00  0.00    -0.291 OA
BRANCH   3   7
ATOM      5  C   UNL     1      -1.452   2.167  -0.613  0.00  0.00    +0.035 C 
ATOM      6  C   UNL     1      -1.302   0.652  -0.461  0.00  0.00    +0.111 C 
ATOM      7  C   UNL     1      -0.216   0.141  -1.382  0.00  0.00    +0.027 C 
ATOM      8  C   UNL     1       0.736  -0.426  -0.554  0.00  0.00    +0.006 A 
ATOM      9  C   UNL     1       1.972  -1.067  -0.806  0.00  0.00    +0.010 A 
ATOM     10  C   UNL     1       2.716  -1.540   0.219  0.00  0.00    +0.001 A 
ATOM     11  C   UNL     1       2.314  -1.423   1.559  0.00  0.00    +0.002 A 
ATOM     12  C   UNL     1       1.152  -0.829   1.907  0.00  0.00    +0.026 A 
ATOM     13  C   UNL     1       0.281  -0.287   0.852  0.00  0.00    +0.043 A 
ATOM     14  N   UNL     1      -0.871   0.322   0.901  0.00  0.00    -0.377 N 
ATOM     15  H   UNL     1      -1.365   0.525   1.711  0.00  0.00    +0.160 HD
ENDBRANCH   3   7
ENDBRANCH   1   3
BRANCH   1  16
ATOM     16  S   UNL     1       0.328  -0.876  -5.221  0.00  0.00    -0.115 S 
BRANCH  16  17
ATOM     17  C   UNL     1      -0.795  -2.274  -4.947  0.00  0.00    +0.211 C 
ATOM     18  N   UNL     1      -1.692  -2.028  -3.796  0.00  0.00    -0.244 N 
ATOM     19  N   UNL     1      -1.554  -2.908  -2.746  0.00  0.00    -0.172 NA
ATOM     20  C   UNL     1      -0.706  -3.890  -2.746  0.00  0.00    +0.151 C 
ATOM     21  S   UNL     1       0.113  -3.751  -4.329  0.00  0.00    -0.063 S 
ATOM     22  H   UNL     1      -2.330  -1.298  -3.781  0.00  0.00    +0.170 HD
BRANCH  20  23
ATOM     23  S   UNL     1      -0.426  -5.084  -1.481  0.00  0.00    -0.088 S 
BRANCH  23  24
ATOM     24  C   UNL     1      -1.600  -4.623  -0.176  0.00  0.00    +0.171 C 
BRANCH  24  25
ATOM     25  C   UNL     1      -1.463  -5.578   0.982  0.00  0.00    +0.221 C 
ATOM     26  O   UNL     1      -0.654  -6.480   0.932  0.00  0.00    -0.275 OA
ATOM     27  N   UNL     1      -2.240  -5.429   2.073  0.00  0.00    -0.329 N 
ATOM     28  H   UNL     1      -2.888  -4.708   2.113  0.00  0.00    +0.145 HD
ATOM     29  H   UNL     1      -2.153  -6.043   2.818  0.00  0.00    +0.145 HD
ENDBRANCH  24  25
ENDBRANCH  23  24
ENDBRANCH  20  23
ENDBRANCH  16  17
ENDBRANCH   1  16
TORSDOF 7
