REMARK  Name = ZINC50792863
REMARK  8 active torsions:
REMARK  status: ('A' for Active; 'I' for Inactive)
REMARK    1  A    between atoms: C_1  and  C_2
REMARK    2  A    between atoms: C_3  and  C_9
REMARK    3  A    between atoms: C_4  and  N_8
REMARK    4  A    between atoms: N_5  and  C_7
REMARK    5  A    between atoms: C_9  and  N_10
REMARK    6  A    between atoms: C_15  and  C_17
REMARK    7  A    between atoms: C_17  and  C_18
REMARK    8  A    between atoms: C_18  and  O_19
REMARK                            x       y       z     vdW  Elec       q    Type
REMARK                         _______ _______ _______ _____ _____    ______ ____
ROOT
ATOM      1  C   UNL     1      -0.079  -0.282  -2.604  0.00  0.00    -0.037 C 
ENDROOT
BRANCH   1   4
ATOM      2  C   UNL     1      -0.236   1.844  -0.261  0.00  0.00    +0.065 C 
ATOM      3  C   UNL     1      -0.192   0.347  -0.094  0.00  0.00    +0.034 A 
ATOM      4  C   UNL     1      -0.123  -0.590  -1.129  0.00  0.00    -0.005 A 
ATOM      5  C   UNL     1      -0.102  -1.830  -0.568  0.00  0.00    +0.114 A 
ATOM      6  N   UNL     1      -0.156  -1.672   0.774  0.00  0.00    -0.276 N 
ATOM      7  N   UNL     1      -0.206  -0.298   1.044  0.00  0.00    -0.300 N 
ATOM      8  C   UNL     1      -0.158  -2.747   1.770  0.00  0.00    +0.172 C 
ATOM      9  H   UNL     1      -0.247   0.106   1.925  0.00  0.00    +0.187 HD
BRANCH   5  10
ATOM     10  N   UNL     1      -0.037  -3.042  -1.251  0.00  0.00    -0.343 N 
ATOM     11  H   UNL     1      -0.002  -3.050  -2.220  0.00  0.00    +0.144 HD
ATOM     12  H   UNL     1      -0.027  -3.877  -0.758  0.00  0.00    +0.144 HD
ENDBRANCH   5  10
ENDBRANCH   1   4
BRANCH   1  13
ATOM     13  N   UNL     1       1.318  -0.136  -3.033  0.00  0.00    +0.384 N 
ATOM     14  C   UNL     1       1.919   1.017  -2.351  0.00  0.00    -0.078 C 
ATOM     15  C   UNL     1       3.397   1.126  -2.732  0.00  0.00    -0.019 C 
ATOM     16  C   UNL     1       3.516   1.308  -4.248  0.00  0.00    -0.003 C 
ATOM     17  C   UNL     1       2.821   0.137  -4.949  0.00  0.00    -0.015 C 
ATOM     18  C   UNL     1       1.364   0.065  -4.486  0.00  0.00    -0.066 C 
ATOM     19  H   UNL     1       1.831  -0.971  -2.793  0.00  0.00    -0.081 HD
BRANCH  18  20
ATOM     20  C   UNL     1       0.665  -1.104  -5.184  0.00  0.00    +0.012 C 
BRANCH  20  21
ATOM     21  C   UNL     1       0.660  -0.866  -6.695  0.00  0.00    +0.154 C 
BRANCH  21  22
ATOM     22  O   UNL     1      -0.100  -1.893  -7.336  0.00  0.00    -0.395 OA
ATOM     23  H   UNL     1      -0.145  -1.805  -8.298  0.00  0.00    +0.209 HD
ENDBRANCH  21  22
ENDBRANCH  20  21
ENDBRANCH  18  20
ENDBRANCH   1  13
TORSDOF 6
