REMARK  Name = ZINC20907500
REMARK  6 active torsions:
REMARK  status: ('A' for Active; 'I' for Inactive)
REMARK    1  A    between atoms: C_9  and  O_31
REMARK    2  A    between atoms: C_10  and  C_11
REMARK    3  A    between atoms: N_12  and  N_13
REMARK    4  A    between atoms: C_16  and  S_19
REMARK    5  A    between atoms: S_19  and  C_20
REMARK    6  A    between atoms: C_20  and  C_21
REMARK                            x       y       z     vdW  Elec       q    Type
REMARK                         _______ _______ _______ _____ _____    ______ ____
ROOT
ATOM      1  N   UNL     1      10.422   2.943  -2.808  0.00  0.00    -0.205 N 
ATOM      2  C   UNL     1       9.236   2.882  -2.093  0.00  0.00    +0.232 A 
ATOM      3  N   UNL     1       7.977   2.825  -2.625  0.00  0.00    -0.186 NA
ATOM      4  C   UNL     1       7.084   2.777  -1.593  0.00  0.00    +0.210 A 
ATOM      5  N   UNL     1       7.760   2.808  -0.470  0.00  0.00    -0.144 NA
ATOM      6  N   UNL     1       9.123   2.870  -0.786  0.00  0.00    -0.245 N 
ATOM      7  H   UNL     1      10.401   2.947  -3.908  0.00  0.00    +0.177 HD
ATOM      8  H   UNL     1      10.024   2.906  -0.157  0.00  0.00    +0.192 HD
ENDROOT
BRANCH   1  10
ATOM      9  C   UNL     1      12.759   3.054  -2.802  0.00  0.00    +0.142 C 
ATOM     10  N   UNL     1      11.647   2.998  -2.131  0.00  0.00    -0.187 NA
BRANCH   9  20
ATOM     11  C   UNL     1      17.725   3.299  -4.171  0.00  0.00    +0.001 A 
ATOM     12  C   UNL     1      16.527   3.245  -4.880  0.00  0.00    +0.001 A 
ATOM     13  C   UNL     1      15.330   3.184  -4.229  0.00  0.00    +0.009 A 
ATOM     14  C   UNL     1      15.304   3.175  -2.829  0.00  0.00    -0.006 A 
ATOM     15  C   UNL     1      16.520   3.230  -2.105  0.00  0.00    -0.017 A 
ATOM     16  C   UNL     1      17.735   3.292  -2.810  0.00  0.00    +0.008 A 
ATOM     17  C   UNL     1      16.491   3.222  -0.700  0.00  0.00    +0.012 A 
ATOM     18  C   UNL     1      15.310   3.162  -0.029  0.00  0.00    +0.046 A 
ATOM     19  C   UNL     1      14.088   3.112  -0.697  0.00  0.00    +0.126 A 
ATOM     20  C   UNL     1      14.044   3.112  -2.091  0.00  0.00    +0.044 A 
BRANCH  19  21
ATOM     21  O   UNL     1      12.932   3.060   0.015  0.00  0.00    -0.506 OA
ATOM     22  H   UNL     1      11.966   3.021  -0.509  0.00  0.00    +0.292 HD
ENDBRANCH  19  21
ENDBRANCH   9  20
ENDBRANCH   1  10
BRANCH   4  23
ATOM     23  S   UNL     1       5.330   2.694  -1.745  0.00  0.00    -0.077 S 
BRANCH  23  24
ATOM     24  C   UNL     1       4.743   2.656  -0.029  0.00  0.00    +0.151 C 
BRANCH  24  25
ATOM     25  C   UNL     1       3.238   2.585  -0.015  0.00  0.00    +0.118 A 
ATOM     26  N   UNL     1       2.512   1.434  -0.014  0.00  0.00    -0.341 N 
ATOM     27  H   UNL     1       3.025   0.461  -0.023  0.00  0.00    +0.167 HD
ATOM     28  C   UNL     1       1.178   1.790   0.000  0.00  0.00    +0.066 A 
ATOM     29  C   UNL     1      -0.013   1.076   0.008  0.00  0.00    +0.028 A 
ATOM     30  C   UNL     1      -1.214   1.752   0.017  0.00  0.00    +0.002 A 
ATOM     31  C   UNL     1      -1.240   3.139   0.031  0.00  0.00    +0.002 A 
ATOM     32  C   UNL     1      -0.078   3.858   0.023  0.00  0.00    +0.030 A 
ATOM     33  C   UNL     1       1.151   3.194   0.008  0.00  0.00    +0.089 A 
ATOM     34  N   UNL     1       2.442   3.615  -0.002  0.00  0.00    -0.232 NA
ENDBRANCH  24  25
ENDBRANCH  23  24
ENDBRANCH   4  23
TORSDOF 6
