REMARK  Name = ZINC43218837
REMARK  5 active torsions:
REMARK  status: ('A' for Active; 'I' for Inactive)
REMARK    1  A    between atoms: C_4  and  C_7
REMARK    2  A    between atoms: C_7  and  C_39
REMARK    3  A    between atoms: C_12  and  C_15
REMARK    4  A    between atoms: N_27  and  C_30
REMARK    5  A    between atoms: C_34  and  N_36
REMARK                            x       y       z     vdW  Elec       q    Type
REMARK                         _______ _______ _______ _____ _____    ______ ____
ROOT
ATOM      1  C   UNL     1       3.394  -1.131  -0.013  0.00  0.00    +0.074 C 
ATOM      2  C   UNL     1       3.757  -2.339   0.876  0.00  0.00    +0.090 C 
ATOM      3  C   UNL     1       5.166  -2.010   1.439  0.00  0.00    +0.078 C 
ATOM      4  C   UNL     1       5.527  -0.641   0.825  0.00  0.00    -0.026 C 
ATOM      5  N   UNL     1       4.210  -0.011   0.521  0.00  0.00    +0.398 N 
ATOM      6  C   UNL     1       4.921  -1.855   2.924  0.00  0.00    +0.229 C 
ATOM      7  O   UNL     1       5.768  -1.592   3.750  0.00  0.00    -0.275 OA
ATOM      8  N   UNL     1       3.624  -2.055   3.183  0.00  0.00    -0.210 N 
ATOM      9  C   UNL     1       2.867  -2.342   2.099  0.00  0.00    +0.229 C 
ATOM     10  O   UNL     1       1.675  -2.565   2.097  0.00  0.00    -0.275 OA
ATOM     11  H   UNL     1       4.321   0.709  -0.177  0.00  0.00    -0.083 HD
ATOM     12  H   UNL     1       3.788   0.367   1.356  0.00  0.00    -0.083 HD
ENDROOT
BRANCH   4  13
ATOM     13  C   UNL     1       6.279   0.200   1.824  0.00  0.00    -0.053 A 
ATOM     14  C   UNL     1       5.625   1.144   2.554  0.00  0.00    +0.002 A 
ATOM     15  C   UNL     1       6.303   1.932   3.482  0.00  0.00    +0.001 A 
ATOM     16  C   UNL     1       7.641   1.780   3.685  0.00  0.00    +0.008 A 
ATOM     17  C   UNL     1       8.351   0.817   2.949  0.00  0.00    -0.018 A 
ATOM     18  C   UNL     1       7.659   0.011   2.010  0.00  0.00    -0.016 A 
ATOM     19  C   UNL     1       8.368  -0.957   1.278  0.00  0.00    +0.009 A 
ATOM     20  C   UNL     1       9.704  -1.112   1.486  0.00  0.00    +0.001 A 
ATOM     21  C   UNL     1      10.383  -0.325   2.414  0.00  0.00    +0.001 A 
ATOM     22  C   UNL     1       9.732   0.632   3.131  0.00  0.00    +0.008 A 
ENDBRANCH   4  13
BRANCH   1  26
ATOM     23  C   UNL     1      -0.769  -0.232   0.323  0.00  0.00    +0.000 A 
ATOM     24  C   UNL     1       0.173   0.687   0.745  0.00  0.00    +0.000 A 
ATOM     25  C   UNL     1       1.520   0.396   0.636  0.00  0.00    +0.003 A 
ATOM     26  C   UNL     1       1.925  -0.814   0.106  0.00  0.00    -0.047 A 
ATOM     27  C   UNL     1       0.983  -1.734  -0.315  0.00  0.00    +0.003 A 
ATOM     28  C   UNL     1      -0.364  -1.443  -0.207  0.00  0.00    +0.000 A 
ENDBRANCH   1  26
BRANCH   8  29
ATOM     29  C   UNL     1       3.089  -1.979   4.477  0.00  0.00    +0.046 A 
ATOM     30  C   UNL     1       2.212  -0.955   4.808  0.00  0.00    +0.024 A 
ATOM     31  C   UNL     1       1.687  -0.883   6.083  0.00  0.00    +0.004 A 
ATOM     32  C   UNL     1       2.033  -1.830   7.030  0.00  0.00    +0.033 A 
ATOM     33  C   UNL     1       2.906  -2.851   6.703  0.00  0.00    +0.128 A 
ATOM     34  C   UNL     1       3.429  -2.932   5.427  0.00  0.00    +0.056 A 
BRANCH  33  35
ATOM     35  N   UNL     1       3.274  -3.863   7.718  0.00  0.00    +0.056 N 
ATOM     36  O   UNL     1       2.811  -3.796   8.833  0.00  0.00    -0.126 OA
ATOM     37  O   UNL     1       4.037  -4.756   7.433  0.00  0.00    -0.126 OA
ENDBRANCH  33  35
ENDBRANCH   8  29
BRANCH   1  38
ATOM     38  C   UNL     1       3.756  -1.406  -1.450  0.00  0.00    +0.350 C 
ATOM     39  O   UNL     1       4.576  -0.704  -2.017  0.00  0.00    -0.248 OA
ATOM     40  O   UNL     1       3.228  -2.330  -2.045  0.00  0.00    -0.248 OA
ENDBRANCH   1  38
TORSDOF 5
