REMARK  Name = ZINC09187840
REMARK  13 active torsions:
REMARK  status: ('A' for Active; 'I' for Inactive)
REMARK    1  A    between atoms: C_1  and  C_2
REMARK    2  A    between atoms: C_2  and  N_3
REMARK    3  A    between atoms: N_3  and  C_4
REMARK    4  A    between atoms: C_4  and  C_5
REMARK    5  A    between atoms: C_6  and  C_8
REMARK    6  A    between atoms: C_8  and  S_9
REMARK    7  A    between atoms: S_9  and  C_10
REMARK    8  A    between atoms: C_15  and  N_27
REMARK    9  A    between atoms: C_16  and  C_25
REMARK   10  A    between atoms: C_21  and  C_23
REMARK   11  A    between atoms: C_21  and  C_24
REMARK   12  A    between atoms: N_27  and  C_28
REMARK   13  A    between atoms: C_31  and  C_34
REMARK                            x       y       z     vdW  Elec       q    Type
REMARK                         _______ _______ _______ _____ _____    ______ ____
ROOT
ATOM      1  C   UNL     1      -1.075  -5.843   1.071  0.00  0.00    +0.198 A 
ATOM      2  N   UNL     1       0.214  -5.809   1.318  0.00  0.00    -0.122 NA
ATOM      3  N   UNL     1       0.749  -4.779   0.761  0.00  0.00    -0.128 NA
ATOM      4  C   UNL     1      -0.173  -4.088   0.120  0.00  0.00    +0.169 A 
ATOM      5  N   UNL     1      -1.368  -4.751   0.301  0.00  0.00    -0.256 N 
ATOM      6  C   UNL     1      -2.519  -4.268  -0.253  0.00  0.00    +0.129 A 
ATOM      7  C   UNL     1      -2.486  -3.102  -1.007  0.00  0.00    +0.094 A 
ATOM      8  C   UNL     1      -1.256  -2.414  -1.201  0.00  0.00    -0.015 A 
ATOM      9  C   UNL     1      -0.124  -2.896  -0.644  0.00  0.00    +0.027 A 
ATOM     10  C   UNL     1       1.200  -2.196  -0.805  0.00  0.00    +0.199 C 
ATOM     11  O   UNL     1       1.139  -1.255  -1.876  0.00  0.00    -0.369 OA
ATOM     12  C   UNL     1       0.024  -0.362  -1.772  0.00  0.00    +0.068 C 
ATOM     13  C   UNL     1      -1.256  -1.157  -2.032  0.00  0.00    +0.071 C 
ATOM     14  C   UNL     1       0.159   0.753  -2.811  0.00  0.00    +0.041 C 
ATOM     15  C   UNL     1      -0.021   0.245  -0.368  0.00  0.00    +0.041 C 
ENDROOT
BRANCH   7  16
ATOM     16  C   UNL     1      -3.691  -2.592  -1.589  0.00  0.00    +0.103 C 
ATOM     17  N   UNL     1      -4.647  -2.188  -2.051  0.00  0.00    -0.191 NA
ENDBRANCH   7  16
BRANCH   6  18
ATOM     18  N   UNL     1      -3.706  -4.933  -0.065  0.00  0.00    -0.299 N 
ATOM     19  H   UNL     1      -4.302  -4.668   0.652  0.00  0.00    +0.154 HD
BRANCH  18  20
ATOM     20  C   UNL     1      -4.054  -5.992  -0.909  0.00  0.00    +0.032 A 
ATOM     21  C   UNL     1      -3.219  -6.348  -1.960  0.00  0.00    +0.023 A 
ATOM     22  C   UNL     1      -3.564  -7.398  -2.788  0.00  0.00    +0.005 A 
ATOM     23  C   UNL     1      -4.745  -8.087  -2.579  0.00  0.00    -0.050 A 
ATOM     24  C   UNL     1      -5.581  -7.732  -1.536  0.00  0.00    +0.005 A 
ATOM     25  C   UNL     1      -5.239  -6.687  -0.701  0.00  0.00    +0.023 A 
ATOM     26  C   UNL     1      -5.121  -9.228  -3.489  0.00  0.00    +0.044 C 
ENDBRANCH  18  20
ENDBRANCH   6  18
BRANCH   1  27
ATOM     27  S   UNL     1      -2.214  -7.066   1.627  0.00  0.00    -0.076 S 
BRANCH  27  28
ATOM     28  C   UNL     1      -1.169  -8.296   2.454  0.00  0.00    +0.173 C 
BRANCH  28  30
ATOM     29  N   UNL     1      -1.468 -10.463   3.608  0.00  0.00    -0.301 N 
ATOM     30  C   UNL     1      -2.013  -9.469   2.880  0.00  0.00    +0.226 C 
ATOM     31  O   UNL     1      -3.184  -9.519   2.566  0.00  0.00    -0.275 OA
BRANCH  29  33
ATOM     32  C   UNL     1      -0.067  -9.681   5.454  0.00  0.00    +0.024 C 
ATOM     33  C   UNL     1      -0.085 -10.353   4.079  0.00  0.00    +0.104 C 
ENDBRANCH  29  33
BRANCH  29  34
ATOM     34  C   UNL     1      -2.258 -11.655   3.929  0.00  0.00    +0.104 C 
ATOM     35  C   UNL     1      -2.002 -12.735   2.877  0.00  0.00    +0.024 C 
ENDBRANCH  29  34
ENDBRANCH  28  30
ENDBRANCH  27  28
ENDBRANCH   1  27
TORSDOF 8
