REMARK  Name = ZINC60207961
REMARK  10 active torsions:
REMARK  status: ('A' for Active; 'I' for Inactive)
REMARK    1  A    between atoms: C_1  and  C_2
REMARK    2  A    between atoms: C_2  and  C_32
REMARK    3  A    between atoms: C_5  and  N_13
REMARK    4  A    between atoms: C_14  and  C_16
REMARK    5  A    between atoms: C_16  and  C_17
REMARK    6  A    between atoms: C_17  and  N_18
REMARK    7  A    between atoms: N_18  and  C_19
REMARK    8  A    between atoms: C_22  and  S_28
REMARK    9  A    between atoms: C_24  and  N_25
REMARK   10  A    between atoms: S_28  and  N_31
REMARK                            x       y       z     vdW  Elec       q    Type
REMARK                         _______ _______ _______ _____ _____    ______ ____
ROOT
ATOM      1  C   UNL     1      -2.973  -2.474   7.012  0.00  0.00    +0.111 C 
ENDROOT
BRANCH   1   2
ATOM      2  N   UNL     1      -3.181  -2.001   8.383  0.00  0.00    -0.342 N 
ATOM      3  H   UNL     1      -3.499  -1.099   8.541  0.00  0.00    +0.146 HD
BRANCH   2   4
ATOM      4  C   UNL     1      -2.922  -2.850   9.461  0.00  0.00    +0.058 A 
ATOM      5  C   UNL     1      -2.583  -4.179   9.236  0.00  0.00    +0.027 A 
ATOM      6  C   UNL     1      -2.327  -5.015  10.304  0.00  0.00    +0.030 A 
ATOM      7  C   UNL     1      -2.407  -4.531  11.598  0.00  0.00    +0.107 A 
ATOM      8  C   UNL     1      -2.744  -3.210  11.825  0.00  0.00    +0.063 A 
ATOM      9  C   UNL     1      -2.996  -2.366  10.761  0.00  0.00    +0.149 A 
BRANCH   9  10
ATOM     10  N   UNL     1      -3.350  -0.950  11.005  0.00  0.00    +0.058 N 
ATOM     11  O   UNL     1      -2.939  -0.088  10.265  0.00  0.00    -0.126 OA
ATOM     12  O   UNL     1      -4.050  -0.656  11.946  0.00  0.00    -0.126 OA
ENDBRANCH   9  10
BRANCH   7  13
ATOM     13  S   UNL     1      -2.079  -5.602  12.958  0.00  0.00    +0.056 S 
ATOM     14  O   UNL     1      -2.752  -5.050  14.081  0.00  0.00    -0.153 OA
ATOM     15  O   UNL     1      -2.320  -6.926  12.501  0.00  0.00    -0.153 OA
BRANCH  13  16
ATOM     16  N   UNL     1      -0.458  -5.501  13.281  0.00  0.00    -0.204 NA
ATOM     17  H   UNL     1       0.108  -4.921  12.748  0.00  0.00    +0.144 HD
ATOM     18  H   UNL     1      -0.074  -6.021  14.004  0.00  0.00    +0.144 HD
ENDBRANCH  13  16
ENDBRANCH   7  13
ENDBRANCH   2   4
ENDBRANCH   1   2
BRANCH   1  19
ATOM     19  C   UNL     1      -3.328  -1.358   6.028  0.00  0.00    +0.114 C 
BRANCH  19  21
ATOM     20  N   UNL     1      -3.364  -1.025   3.577  0.00  0.00    -0.308 N 
ATOM     21  C   UNL     1      -3.114  -1.844   4.618  0.00  0.00    +0.215 C 
ATOM     22  O   UNL     1      -2.716  -2.973   4.419  0.00  0.00    -0.276 OA
ATOM     23  H   UNL     1      -3.682  -0.123   3.736  0.00  0.00    +0.149 HD
BRANCH  20  28
ATOM     24  C   UNL     1      -2.383   1.060  -0.525  0.00  0.00    +0.016 C 
ATOM     25  C   UNL     1      -2.279  -0.466  -0.469  0.00  0.00    -0.009 C 
ATOM     26  C   UNL     1      -3.659  -1.054  -0.183  0.00  0.00    +0.013 C 
ATOM     27  C   UNL     1      -4.047  -0.700   1.257  0.00  0.00    +0.028 C 
ATOM     28  C   UNL     1      -3.155  -1.498   2.206  0.00  0.00    +0.103 C 
ATOM     29  C   UNL     1      -1.705  -1.328   1.838  0.00  0.00    -0.024 A 
ATOM     30  C   UNL     1      -1.302  -0.858   0.608  0.00  0.00    -0.037 A 
ATOM     31  C   UNL     1       0.053  -0.731   0.330  0.00  0.00    +0.004 A 
ATOM     32  C   UNL     1       0.998  -1.069   1.277  0.00  0.00    +0.000 A 
ATOM     33  C   UNL     1       0.593  -1.538   2.513  0.00  0.00    +0.000 A 
ATOM     34  C   UNL     1      -0.752  -1.666   2.791  0.00  0.00    +0.006 A 
ATOM     35  C   UNL     1      -1.778  -0.987  -1.818  0.00  0.00    +0.016 C 
ENDBRANCH  20  28
ENDBRANCH  19  21
ENDBRANCH   1  19
TORSDOF 8
