REMARK  Name = ZINC18272149
REMARK  8 active torsions:
REMARK  status: ('A' for Active; 'I' for Inactive)
REMARK    1  A    between atoms: C_1  and  C_2
REMARK    2  A    between atoms: C_3  and  C_25
REMARK    3  A    between atoms: C_4  and  N_24
REMARK    4  A    between atoms: C_9  and  C_10
REMARK    5  A    between atoms: C_13  and  O_17
REMARK    6  A    between atoms: O_17  and  C_18
REMARK    7  A    between atoms: C_19  and  C_23
REMARK    8  A    between atoms: C_20  and  C_21
REMARK                            x       y       z     vdW  Elec       q    Type
REMARK                         _______ _______ _______ _____ _____    ______ ____
ROOT
ATOM      1  C   UNL     1      -4.622   2.785  -0.065  0.00  0.00    +0.046 C 
ATOM      2  C   UNL     1      -3.988   4.132   0.170  0.00  0.00    -0.020 A 
ATOM      3  C   UNL     1      -4.747   5.212   0.634  0.00  0.00    +0.095 A 
ATOM      4  C   UNL     1      -4.115   6.454   0.841  0.00  0.00    +0.135 A 
ATOM      5  N   UNL     1      -2.826   6.609   0.602  0.00  0.00    -0.230 NA
ATOM      6  C   UNL     1      -2.070   5.607   0.160  0.00  0.00    +0.092 A 
ATOM      7  C   UNL     1      -2.636   4.336  -0.074  0.00  0.00    +0.013 A 
ATOM      8  C   UNL     1      -1.547   3.458  -0.548  0.00  0.00    -0.011 C 
ATOM      9  C   UNL     1      -1.667   2.124  -0.892  0.00  0.00    +0.016 C 
ATOM     10  C   UNL     1      -0.364   4.227  -0.595  0.00  0.00    -0.023 C 
ATOM     11  C   UNL     1      -0.640   5.513  -0.178  0.00  0.00    +0.081 C 
ATOM     12  C   UNL     1       0.988   3.723  -1.030  0.00  0.00    +0.046 C 
ENDROOT
BRANCH   9  13
ATOM     13  C   UNL     1      -0.590   1.458  -1.625  0.00  0.00    -0.023 A 
ATOM     14  C   UNL     1       0.016   2.095  -2.719  0.00  0.00    +0.011 A 
ATOM     15  C   UNL     1       1.017   1.469  -3.404  0.00  0.00    +0.047 A 
ATOM     16  C   UNL     1       1.440   0.199  -3.023  0.00  0.00    +0.134 A 
ATOM     17  C   UNL     1       0.847  -0.443  -1.940  0.00  0.00    +0.060 A 
ATOM     18  C   UNL     1      -0.163   0.178  -1.241  0.00  0.00    +0.027 A 
ATOM     19 BR   UNL     1       1.429  -2.168  -1.429  0.00  0.00    -0.047 Br
BRANCH  16  20
ATOM     20  O   UNL     1       2.435  -0.415  -3.711  0.00  0.00    -0.494 OA
ATOM     21  C   UNL     1       3.001   0.299  -4.812  0.00  0.00    +0.277 C 
ENDBRANCH  16  20
ENDBRANCH   9  13
BRANCH   4  22
ATOM     22  N   UNL     1      -4.858   7.528   1.300  0.00  0.00    -0.342 N 
ATOM     23  H   UNL     1      -4.431   8.387   1.444  0.00  0.00    +0.144 HD
ATOM     24  H   UNL     1      -5.806   7.422   1.477  0.00  0.00    +0.144 HD
ENDBRANCH   4  22
BRANCH  11  25
ATOM     25  C   UNL     1       0.309   6.582  -0.091  0.00  0.00    +0.102 C 
ATOM     26  N   UNL     1       1.062   7.431  -0.021  0.00  0.00    -0.191 NA
ENDBRANCH  11  25
BRANCH   3  27
ATOM     27  C   UNL     1      -6.146   5.056   0.897  0.00  0.00    +0.103 C 
ATOM     28  N   UNL     1      -7.256   4.933   1.105  0.00  0.00    -0.191 NA
ENDBRANCH   3  27
TORSDOF 5
