REMARK  Name = ZINC43284471
REMARK  5 active torsions:
REMARK  status: ('A' for Active; 'I' for Inactive)
REMARK    1  A    between atoms: C_1  and  C_2
REMARK    2  A    between atoms: C_2  and  C_4
REMARK    3  A    between atoms: C_2  and  N_21
REMARK    4  A    between atoms: C_4  and  C_6
REMARK    5  A    between atoms: C_4  and  N_12
REMARK                            x       y       z     vdW  Elec       q    Type
REMARK                         _______ _______ _______ _____ _____    ______ ____
ROOT
ATOM      1  C   UNL     1       0.848  -0.509   1.173  0.00  0.00    +0.079 C 
ENDROOT
BRANCH   1   2
ATOM      2  N   UNL     1       0.212  -0.131   2.442  0.00  0.00    -0.292 NA
ATOM      3  C   UNL     1      -1.250  -0.072   2.303  0.00  0.00    +0.090 C 
ATOM      4  C   UNL     1      -1.882  -0.086   3.705  0.00  0.00    +0.058 C 
ATOM      5  C   UNL     1      -1.141   0.899   4.548  0.00  0.00    -0.005 A 
ATOM      6  C   UNL     1       0.057   1.480   4.258  0.00  0.00    -0.023 A 
ATOM      7  C   UNL     1       0.558   2.377   5.198  0.00  0.00    +0.013 A 
ATOM      8  C   UNL     1      -0.139   2.629   6.331  0.00  0.00    +0.046 A 
ATOM      9  S   UNL     1      -1.575   1.586   6.121  0.00  0.00    -0.101 S 
ATOM     10  C   UNL     1       0.769   1.127   2.955  0.00  0.00    +0.121 C 
ENDBRANCH   1   2
BRANCH   1  11
ATOM     11  C   UNL     1       0.751  -2.002   0.988  0.00  0.00    +0.006 A 
ATOM     12  C   UNL     1       1.709  -2.877   0.596  0.00  0.00    +0.028 A 
ATOM     13  C   UNL     1       1.390  -4.218   0.494  0.00  0.00    +0.025 A 
ATOM     14  C   UNL     1       0.129  -4.618   0.789  0.00  0.00    +0.060 A 
ATOM     15  S   UNL     1      -0.653  -3.076   1.234  0.00  0.00    -0.099 S 
ATOM     16 BR   UNL     1       2.693  -5.476  -0.050  0.00  0.00    -0.050 Br
ENDBRANCH   1  11
BRANCH   1  18
ATOM     17  C   UNL     1       0.349   1.706   0.131  0.00  0.00    -0.012 C 
ATOM     18  C   UNL     1       0.135   0.196   0.017  0.00  0.00    -0.056 C 
BRANCH  18  19
ATOM     19  N   UNL     1       0.683  -0.282  -1.260  0.00  0.00    +0.381 N 
ATOM     20  H   UNL     1       1.671  -0.078  -1.299  0.00  0.00    -0.090 HD
ATOM     21  H   UNL     1       0.542  -1.278  -1.335  0.00  0.00    -0.090 HD
ATOM     22  H   UNL     1       0.214   0.183  -2.022  0.00  0.00    -0.090 HD
ENDBRANCH  18  19
ENDBRANCH   1  18
TORSDOF 4
