REMARK  Name = ZINC13115442
REMARK  12 active torsions:
REMARK  status: ('A' for Active; 'I' for Inactive)
REMARK    1  A    between atoms: C_1  and  O_2
REMARK    2  A    between atoms: O_2  and  C_3
REMARK    3  A    between atoms: C_3  and  C_5
REMARK    4  A    between atoms: C_5  and  N_6
REMARK    5  A    between atoms: C_9  and  C_22
REMARK    6  A    between atoms: C_10  and  N_21
REMARK    7  A    between atoms: N_11  and  C_14
REMARK    8  A    between atoms: C_14  and  C_15
REMARK    9  A    between atoms: C_22  and  C_24
REMARK   10  A    between atoms: C_24  and  O_25
REMARK   11  A    between atoms: O_25  and  C_26
REMARK   12  A    between atoms: C_26  and  C_28
REMARK                            x       y       z     vdW  Elec       q    Type
REMARK                         _______ _______ _______ _____ _____    ______ ____
ROOT
ATOM      1  N   UNL     1       2.920  -0.568  -3.359  0.00  0.00    -0.249 N 
ATOM      2  C   UNL     1       3.676   0.343  -4.006  0.00  0.00    +0.270 A 
ATOM      3  O   UNL     1       4.034   0.151  -5.154  0.00  0.00    -0.267 OA
ATOM      4  C   UNL     1       4.060   1.570  -3.296  0.00  0.00    +0.123 A 
ATOM      5  C   UNL     1       3.615   1.730  -1.973  0.00  0.00    +0.116 A 
ATOM      6  N   UNL     1       2.853   0.747  -1.409  0.00  0.00    -0.277 N 
ATOM      7  C   UNL     1       2.528  -0.362  -2.091  0.00  0.00    +0.334 A 
ATOM      8  O   UNL     1       1.851  -1.210  -1.543  0.00  0.00    -0.246 OA
ENDROOT
BRANCH   5   9
ATOM      9  N   UNL     1       3.939   2.846  -1.265  0.00  0.00    -0.344 N 
ATOM     10  H   UNL     1       3.565   2.985  -0.380  0.00  0.00    +0.144 HD
ATOM     11  H   UNL     1       4.544   3.503  -1.644  0.00  0.00    +0.144 HD
ENDBRANCH   5   9
BRANCH   4  12
ATOM     12  C   UNL     1       4.851   2.557  -3.923  0.00  0.00    +0.209 C 
ATOM     13  O   UNL     1       5.246   3.513  -3.287  0.00  0.00    -0.288 OA
BRANCH  12  14
ATOM     14  C   UNL     1       5.206   2.424  -5.382  0.00  0.00    +0.312 C 
BRANCH  14  15
ATOM     15  O   UNL     1       6.019   3.556  -5.787  0.00  0.00    -0.452 OA
BRANCH  15  16
ATOM     16  C   UNL     1       6.424   3.589  -7.071  0.00  0.00    +0.358 C 
ATOM     17  O   UNL     1       6.105   2.698  -7.832  0.00  0.00    -0.243 OA
BRANCH  16  18
ATOM     18  C   UNL     1       7.257   4.715  -7.557  0.00  0.00    +0.148 A 
ATOM     19  C   UNL     1       7.669   4.734  -8.898  0.00  0.00    +0.035 A 
ATOM     20  C   UNL     1       8.437   5.765  -9.357  0.00  0.00    +0.012 A 
ATOM     21  C   UNL     1       8.791   6.785  -8.454  0.00  0.00    +0.000 A 
ATOM     22  C   UNL     1       9.577   7.876  -8.859  0.00  0.00    +0.010 A 
ATOM     23  C   UNL     1       9.900   8.844  -7.959  0.00  0.00    +0.001 A 
ATOM     24  C   UNL     1       9.460   8.770  -6.638  0.00  0.00    +0.002 A 
ATOM     25  C   UNL     1       8.696   7.729  -6.210  0.00  0.00    +0.028 A 
ATOM     26  C   UNL     1       8.341   6.706  -7.110  0.00  0.00    +0.072 A 
ATOM     27  N   UNL     1       7.590   5.678  -6.719  0.00  0.00    -0.240 NA
ENDBRANCH  16  18
ENDBRANCH  15  16
ENDBRANCH  14  15
ENDBRANCH  12  14
ENDBRANCH   4  12
BRANCH   1  28
ATOM     28  C   UNL     1       2.524  -1.799  -4.048  0.00  0.00    +0.250 C 
BRANCH  28  29
ATOM     29  C   UNL     1       3.565  -2.863  -3.811  0.00  0.00    +0.327 C 
ATOM     30  O   UNL     1       4.537  -2.618  -3.136  0.00  0.00    -0.249 OA
BRANCH  29  32
ATOM     31  C   UNL     1       4.454  -5.058  -4.079  0.00  0.00    +0.280 C 
ATOM     32  O   UNL     1       3.412  -4.083  -4.349  0.00  0.00    -0.467 OA
ENDBRANCH  29  32
ENDBRANCH  28  29
ENDBRANCH   1  28
BRANCH   6  33
ATOM     33  C   UNL     1       2.384   0.904  -0.030  0.00  0.00    +0.163 C 
BRANCH  33  34
ATOM     34  C   UNL     1       1.048   1.600  -0.029  0.00  0.00    -0.028 A 
ATOM     35  C   UNL     1      -0.117   0.859  -0.096  0.00  0.00    +0.005 A 
ATOM     36  C   UNL     1      -1.343   1.498  -0.101  0.00  0.00    +0.000 A 
ATOM     37  C   UNL     1      -1.405   2.877  -0.029  0.00  0.00    +0.000 A 
ATOM     38  C   UNL     1      -0.240   3.618   0.038  0.00  0.00    +0.000 A 
ATOM     39  C   UNL     1       0.986   2.979   0.038  0.00  0.00    +0.005 A 
ENDBRANCH  33  34
ENDBRANCH   6  33
TORSDOF 11
