REMARK  Name = ZINC26699827
REMARK  5 active torsions:
REMARK  status: ('A' for Active; 'I' for Inactive)
REMARK    1  A    between atoms: C_1  and  C_2
REMARK    2  A    between atoms: C_7  and  C_8
REMARK    3  A    between atoms: C_8  and  C_10
REMARK    4  A    between atoms: C_8  and  N_11
REMARK    5  A    between atoms: C_16  and  C_20
REMARK                            x       y       z     vdW  Elec       q    Type
REMARK                         _______ _______ _______ _____ _____    ______ ____
ROOT
ATOM      1  N   UNL     1      -0.102   4.060   0.609  0.00  0.00    -0.316 N 
ATOM      2  C   UNL     1      -0.163   5.313   1.199  0.00  0.00    +0.182 A 
ATOM      3  N   UNL     1      -1.175   5.899   1.777  0.00  0.00    -0.142 NA
ATOM      4  N   UNL     1      -1.056   7.174   2.322  0.00  0.00    -0.212 N 
ATOM      5  C   UNL     1      -1.849   8.100   2.987  0.00  0.00    +0.138 A 
ATOM      6  C   UNL     1      -1.089   9.179   3.246  0.00  0.00    +0.059 A 
ATOM      7  N   UNL     1       0.143   8.953   2.765  0.00  0.00    -0.225 NA
ATOM      8  C   UNL     1       0.170   7.771   2.218  0.00  0.00    +0.197 A 
ATOM      9  S   UNL     1       1.127   6.537   1.370  0.00  0.00    -0.013 S 
ATOM     10  C   UNL     1      -1.542  10.429   3.955  0.00  0.00    +0.067 C 
ATOM     11  H   UNL     1      -0.994   3.417   0.590  0.00  0.00    +0.149 HD
ENDROOT
BRANCH   1  12
ATOM     12  C   UNL     1       1.151   3.592   0.010  0.00  0.00    +0.100 C 
ATOM     13  C   UNL     1       1.256   4.112  -1.425  0.00  0.00    +0.033 C 
BRANCH  12  20
ATOM     14  C   UNL     1       3.672   2.182  -0.021  0.00  0.00    +0.044 C 
ATOM     15  C   UNL     1       2.377   1.411  -0.014  0.00  0.00    -0.046 A 
ATOM     16  C   UNL     1       2.396   0.028  -0.021  0.00  0.00    +0.004 A 
ATOM     17  C   UNL     1       1.209  -0.679  -0.014  0.00  0.00    +0.000 A 
ATOM     18  C   UNL     1       0.002  -0.004   0.002  0.00  0.00    +0.000 A 
ATOM     19  C   UNL     1      -0.017   1.378   0.010  0.00  0.00    +0.006 A 
ATOM     20  C   UNL     1       1.171   2.085   0.002  0.00  0.00    -0.025 A 
ENDBRANCH  12  20
ENDBRANCH   1  12
TORSDOF 2
