REMARK  Name = ZINC60955141
REMARK  14 active torsions:
REMARK  status: ('A' for Active; 'I' for Inactive)
REMARK    1  A    between atoms: C_1  and  C_2
REMARK    2  A    between atoms: C_2  and  C_3
REMARK    3  A    between atoms: C_2  and  N_4
REMARK    4  A    between atoms: N_4  and  C_5
REMARK    5  A    between atoms: N_4  and  C_22
REMARK    6  A    between atoms: C_5  and  C_6
REMARK    7  A    between atoms: C_6  and  N_7
REMARK    8  A    between atoms: N_10  and  C_11
REMARK    9  A    between atoms: C_11  and  C_12
REMARK   10  A    between atoms: C_15  and  S_17
REMARK   11  A    between atoms: S_17  and  N_20
REMARK   12  A    between atoms: N_20  and  C_21
REMARK   13  A    between atoms: C_22  and  C_23
REMARK   14  A    between atoms: C_22  and  C_24
REMARK                            x       y       z     vdW  Elec       q    Type
REMARK                         _______ _______ _______ _____ _____    ______ ____
ROOT
ATOM      1  N   UNL     1      -4.520   0.820  -1.906  0.00  0.00    -0.301 N 
ATOM      2  C   UNL     1      -5.723   1.403  -1.734  0.00  0.00    +0.300 C 
ATOM      3  O   UNL     1      -6.143   1.614  -0.613  0.00  0.00    -0.253 OA
ATOM      4  N   UNL     1      -6.462   1.752  -2.807  0.00  0.00    -0.295 N 
ATOM      5  H   UNL     1      -4.186   0.652  -2.800  0.00  0.00    +0.150 HD
ATOM      6  H   UNL     1      -6.127   1.584  -3.701  0.00  0.00    +0.151 HD
ENDROOT
BRANCH   1   7
ATOM      7  C   UNL     1      -3.718   0.441  -0.740  0.00  0.00    +0.087 C 
BRANCH   7   8
ATOM      8  C   UNL     1      -2.408  -0.196  -1.208  0.00  0.00    -0.059 C 
BRANCH   8   9
ATOM      9  N   UNL     1      -1.616  -0.603  -0.040  0.00  0.00    +0.384 N 
ATOM     10  H   UNL     1      -1.479   0.191   0.567  0.00  0.00    -0.081 HD
BRANCH   9  12
ATOM     11  C   UNL     1       0.420  -0.018  -1.267  0.00  0.00    -0.014 C 
ATOM     12  C   UNL     1      -0.311  -1.110  -0.485  0.00  0.00    -0.074 C 
ATOM     13  C   UNL     1       0.523  -1.511   0.733  0.00  0.00    -0.014 C 
ENDBRANCH   9  12
BRANCH   9  14
ATOM     14  C   UNL     1      -2.329  -1.660   0.690  0.00  0.00    -0.074 C 
ATOM     15  C   UNL     1      -2.028  -3.016   0.048  0.00  0.00    -0.014 C 
ATOM     16  C   UNL     1      -1.868  -1.673   2.148  0.00  0.00    -0.014 C 
ENDBRANCH   9  14
ENDBRANCH   8   9
ENDBRANCH   7   8
ENDBRANCH   1   7
BRANCH   4  17
ATOM     17  C   UNL     1      -7.770   2.386  -2.621  0.00  0.00    +0.148 C 
BRANCH  17  18
ATOM     18  C   UNL     1      -8.385   2.673  -3.966  0.00  0.00    +0.009 A 
ATOM     19  C   UNL     1      -9.196   1.890  -4.719  0.00  0.00    +0.015 A 
ATOM     20  C   UNL     1      -9.646   2.365  -5.936  0.00  0.00    +0.037 A 
ATOM     21  C   UNL     1      -9.263   3.601  -6.341  0.00  0.00    +0.143 A 
ATOM     22  S   UNL     1      -8.240   4.136  -4.979  0.00  0.00    -0.072 S 
BRANCH  21  23
ATOM     23  S   UNL     1      -9.674   4.460  -7.824  0.00  0.00    +0.064 S 
ATOM     24  O   UNL     1      -8.640   5.409  -8.043  0.00  0.00    -0.153 OA
ATOM     25  O   UNL     1     -10.016   3.470  -8.784  0.00  0.00    -0.153 OA
BRANCH  23  26
ATOM     26  N   UNL     1     -11.054   5.324  -7.523  0.00  0.00    -0.193 NA
ATOM     27  C   UNL     1     -11.037   6.415  -6.545  0.00  0.00    +0.127 C 
ATOM     28  H   UNL     1     -11.874   5.108  -7.994  0.00  0.00    +0.148 HD
ENDBRANCH  23  26
ENDBRANCH  21  23
ENDBRANCH  17  18
ENDBRANCH   4  17
TORSDOF 9
