REMARK  Name = ZINC62733551
REMARK  10 active torsions:
REMARK  status: ('A' for Active; 'I' for Inactive)
REMARK    1  A    between atoms: C_1  and  C_2
REMARK    2  A    between atoms: C_4  and  C_7
REMARK    3  A    between atoms: C_7  and  O_8
REMARK    4  A    between atoms: O_8  and  C_9
REMARK    5  A    between atoms: C_10  and  C_16
REMARK    6  A    between atoms: C_16  and  N_17
REMARK    7  A    between atoms: N_17  and  C_18
REMARK    8  A    between atoms: C_18  and  C_19
REMARK    9  A    between atoms: C_18  and  C_20
REMARK   10  A    between atoms: C_18  and  C_21
REMARK                            x       y       z     vdW  Elec       q    Type
REMARK                         _______ _______ _______ _____ _____    ______ ____
ROOT
ATOM      1  C   UNL     1       1.435  -4.646  -2.760  0.00  0.00    +0.136 A 
ATOM      2  C   UNL     1       1.634  -5.955  -2.343  0.00  0.00    -0.022 A 
ATOM      3  C   UNL     1       1.960  -6.930  -3.265  0.00  0.00    +0.005 A 
ATOM      4  C   UNL     1       2.088  -6.604  -4.603  0.00  0.00    +0.002 A 
ATOM      5  C   UNL     1       1.891  -5.302  -5.021  0.00  0.00    +0.019 A 
ATOM      6  C   UNL     1       1.559  -4.322  -4.104  0.00  0.00    +0.060 A 
ATOM      7 BR   UNL     1       1.282  -2.542  -4.678  0.00  0.00    -0.047 Br
ENDROOT
BRANCH   1   8
ATOM      8  O   UNL     1       1.115  -3.685  -1.855  0.00  0.00    -0.483 OA
BRANCH   8   9
ATOM      9  C   UNL     1       2.193  -2.921  -1.310  0.00  0.00    +0.306 C 
BRANCH   9  13
ATOM     10  C   UNL     1       0.472  -0.347   2.735  0.00  0.00    +0.069 C 
ATOM     11  C   UNL     1       0.885  -0.684   1.326  0.00  0.00    +0.081 A 
ATOM     12  C   UNL     1       1.391  -1.921   0.887  0.00  0.00    +0.074 A 
ATOM     13  C   UNL     1       1.641  -1.827  -0.433  0.00  0.00    +0.175 A 
ATOM     14  O   UNL     1       1.313  -0.588  -0.830  0.00  0.00    -0.356 OA
ATOM     15  N   UNL     1       0.831   0.117   0.300  0.00  0.00    -0.083 NA
ENDBRANCH   9  13
ENDBRANCH   8   9
ENDBRANCH   1   8
BRANCH   2  16
ATOM     16  C   UNL     1       1.494  -6.311  -0.886  0.00  0.00    -0.042 C 
BRANCH  16  17
ATOM     17  N   UNL     1       0.070  -6.405  -0.539  0.00  0.00    +0.385 N 
ATOM     18  H   UNL     1      -0.368  -5.506  -0.670  0.00  0.00    -0.085 HD
ATOM     19  H   UNL     1      -0.377  -7.087  -1.133  0.00  0.00    -0.085 HD
BRANCH  17  20
ATOM     20  C   UNL     1      -0.066  -6.815   0.866  0.00  0.00    -0.077 C 
ATOM     21  C   UNL     1       0.611  -5.780   1.767  0.00  0.00    -0.011 C 
ATOM     22  C   UNL     1      -1.549  -6.913   1.227  0.00  0.00    -0.011 C 
ATOM     23  C   UNL     1       0.599  -8.178   1.065  0.00  0.00    -0.011 C 
ENDBRANCH  17  20
ENDBRANCH  16  17
ENDBRANCH   2  16
TORSDOF 6
