REMARK  Name = ZINC53605671
REMARK  6 active torsions:
REMARK  status: ('A' for Active; 'I' for Inactive)
REMARK    1  A    between atoms: C_4  and  S_7
REMARK    2  A    between atoms: S_7  and  N_10
REMARK    3  A    between atoms: N_10  and  C_11
REMARK    4  A    between atoms: N_14  and  C_17
REMARK    5  A    between atoms: C_17  and  C_18
REMARK    6  A    between atoms: C_20  and  C_23
REMARK                            x       y       z     vdW  Elec       q    Type
REMARK                         _______ _______ _______ _____ _____    ______ ____
ROOT
ATOM      1  C   UNL     1       3.567  -1.942   2.398  0.00  0.00    +0.073 C 
ATOM      2  C   UNL     1       2.584  -1.086   3.202  0.00  0.00    +0.002 C 
ATOM      3  C   UNL     1       1.797  -1.984   4.158  0.00  0.00    -0.077 C 
ATOM      4  N   UNL     1       2.723  -2.660   5.075  0.00  0.00    +0.385 N 
ATOM      5  C   UNL     1       3.622  -3.538   4.317  0.00  0.00    -0.077 C 
ATOM      6  C   UNL     1       4.480  -2.699   3.367  0.00  0.00    +0.002 C 
ATOM      7  H   UNL     1       3.267  -1.969   5.570  0.00  0.00    -0.081 HD
ENDROOT
BRANCH   1   8
ATOM      8  N   UNL     1       4.378  -1.079   1.536  0.00  0.00    -0.187 NA
ATOM      9  H   UNL     1       5.174  -0.651   1.888  0.00  0.00    +0.148 HD
BRANCH   8  10
ATOM     10  S   UNL     1       3.934  -0.832  -0.041  0.00  0.00    +0.059 S 
ATOM     11  O   UNL     1       3.674  -2.114  -0.595  0.00  0.00    -0.153 OA
ATOM     12  O   UNL     1       4.890   0.060  -0.597  0.00  0.00    -0.153 OA
BRANCH  10  16
ATOM     13  C   UNL     1      -0.017   1.378   0.010  0.00  0.00    +0.000 A 
ATOM     14  C   UNL     1       1.171   2.086   0.002  0.00  0.00    +0.002 A 
ATOM     15  C   UNL     1       2.377   1.411  -0.013  0.00  0.00    +0.028 A 
ATOM     16  C   UNL     1       2.396   0.029  -0.020  0.00  0.00    +0.105 A 
ATOM     17  C   UNL     1       1.208  -0.679  -0.012  0.00  0.00    +0.028 A 
ATOM     18  C   UNL     1       0.002  -0.004   0.002  0.00  0.00    +0.002 A 
ENDBRANCH  10  16
ENDBRANCH   8  10
ENDBRANCH   1   8
BRANCH   4  19
ATOM     19  C   UNL     1       1.957  -3.460   6.040  0.00  0.00    +0.002 C 
BRANCH  19  20
ATOM     20  C   UNL     1       2.897  -4.055   7.056  0.00  0.00    +0.156 A 
ATOM     21  N   UNL     1       3.511  -5.239   6.949  0.00  0.00    -0.198 NA
ATOM     22  C   UNL     1       4.253  -5.455   7.999  0.00  0.00    +0.230 A 
ATOM     23  O   UNL     1       4.135  -4.404   8.819  0.00  0.00    -0.338 OA
ATOM     24  N   UNL     1       3.248  -3.499   8.180  0.00  0.00    -0.063 NA
BRANCH  22  25
ATOM     25  C   UNL     1       5.099  -6.678   8.246  0.00  0.00    +0.078 C 
ATOM     26  C   UNL     1       5.737  -6.828   9.629  0.00  0.00    +0.014 C 
ATOM     27  C   UNL     1       6.605  -6.472   8.420  0.00  0.00    +0.014 C 
ENDBRANCH  22  25
ENDBRANCH  19  20
ENDBRANCH   4  19
TORSDOF 6
