REMARK  Name = ZINC36579856
REMARK  7 active torsions:
REMARK  status: ('A' for Active; 'I' for Inactive)
REMARK    1  A    between atoms: C_1  and  O_2
REMARK    2  A    between atoms: O_2  and  C_3
REMARK    3  A    between atoms: C_3  and  C_5
REMARK    4  A    between atoms: C_5  and  C_7
REMARK    5  A    between atoms: C_5  and  N_14
REMARK    6  A    between atoms: C_7  and  C_8
REMARK    7  A    between atoms: C_26  and  C_28
REMARK                            x       y       z     vdW  Elec       q    Type
REMARK                         _______ _______ _______ _____ _____    ______ ____
ROOT
ATOM      1  N   UNL     1       3.352  -2.305  -1.279  0.00  0.00    -0.286 N 
ATOM      2  C   UNL     1       2.672  -2.583  -2.409  0.00  0.00    +0.304 C 
ATOM      3  O   UNL     1       1.457  -2.597  -2.400  0.00  0.00    -0.253 OA
ATOM      4  N   UNL     1       3.341  -2.845  -3.550  0.00  0.00    -0.273 N 
ATOM      5  C   UNL     1       2.621  -3.042  -4.817  0.00  0.00    +0.116 C 
ATOM      6  C   UNL     1       3.004  -1.922  -5.792  0.00  0.00    +0.074 C 
ATOM      7  C   UNL     1       4.497  -1.732  -5.751  0.00  0.00    +0.040 A 
ATOM      8  C   UNL     1       5.305  -2.176  -4.763  0.00  0.00    +0.062 A 
ATOM      9  N   UNL     1       6.557  -1.825  -5.061  0.00  0.00    -0.348 N 
ATOM     10  C   UNL     1       6.562  -1.181  -6.199  0.00  0.00    +0.171 A 
ATOM     11  N   UNL     1       5.292  -1.104  -6.661  0.00  0.00    -0.349 N 
ATOM     12  H   UNL     1       5.003  -0.681  -7.485  0.00  0.00    +0.166 HD
ATOM     13  C   UNL     1       4.812  -2.934  -3.559  0.00  0.00    +0.156 C 
ATOM     14  H   UNL     1       4.319  -2.369  -1.266  0.00  0.00    +0.151 HD
ATOM     15  H   UNL     1       7.339  -2.016  -4.520  0.00  0.00    +0.167 HD
ENDROOT
BRANCH  13  16
ATOM     16  C   UNL     1       5.237  -4.377  -3.657  0.00  0.00    -0.021 A 
ATOM     17  C   UNL     1       4.924  -5.114  -4.784  0.00  0.00    +0.007 A 
ATOM     18  C   UNL     1       5.314  -6.437  -4.874  0.00  0.00    +0.020 A 
ATOM     19  C   UNL     1       6.018  -7.024  -3.837  0.00  0.00    +0.041 A 
ATOM     20  C   UNL     1       6.331  -6.285  -2.710  0.00  0.00    +0.020 A 
ATOM     21  C   UNL     1       5.946  -4.960  -2.623  0.00  0.00    +0.007 A 
ATOM     22 CL   UNL     1       6.507  -8.685  -3.950  0.00  0.00    -0.084 Cl
ENDBRANCH  13  16
BRANCH   1  23
ATOM     23  C   UNL     1       2.628  -1.906  -0.069  0.00  0.00    +0.187 C 
BRANCH  23  24
ATOM     24  C   UNL     1       2.177  -3.136   0.676  0.00  0.00    +0.328 C 
ATOM     25  O   UNL     1       2.434  -4.234   0.240  0.00  0.00    -0.249 OA
BRANCH  24  27
ATOM     26  C   UNL     1       1.095  -4.221   2.475  0.00  0.00    +0.280 C 
ATOM     27  O   UNL     1       1.490  -3.013   1.822  0.00  0.00    -0.467 OA
ENDBRANCH  24  27
ENDBRANCH  23  24
BRANCH  23  28
ATOM     28  C   UNL     1       3.551  -1.077   0.827  0.00  0.00    +0.069 C 
BRANCH  28  29
ATOM     29  C   UNL     1       3.903   0.212   0.130  0.00  0.00    -0.045 A 
ATOM     30  C   UNL     1       5.015   0.273  -0.689  0.00  0.00    +0.004 A 
ATOM     31  C   UNL     1       5.339   1.455  -1.328  0.00  0.00    +0.000 A 
ATOM     32  C   UNL     1       4.549   2.576  -1.150  0.00  0.00    +0.000 A 
ATOM     33  C   UNL     1       3.436   2.514  -0.332  0.00  0.00    +0.000 A 
ATOM     34  C   UNL     1       3.110   1.331   0.304  0.00  0.00    +0.004 A 
ENDBRANCH  28  29
ENDBRANCH  23  28
ENDBRANCH   1  23
TORSDOF 6
