REMARK  Name = ZINC11416345
REMARK  11 active torsions:
REMARK  status: ('A' for Active; 'I' for Inactive)
REMARK    1  A    between atoms: C_1  and  C_2
REMARK    2  A    between atoms: C_5  and  C_35
REMARK    3  A    between atoms: C_6  and  N_8
REMARK    4  A    between atoms: C_9  and  C_11
REMARK    5  A    between atoms: C_11  and  C_13
REMARK    6  A    between atoms: C_11  and  S_14
REMARK    7  A    between atoms: S_14  and  C_15
REMARK    8  A    between atoms: C_18  and  C_27
REMARK    9  A    between atoms: N_19  and  C_20
REMARK   10  A    between atoms: C_27  and  C_29
REMARK   11  A    between atoms: C_27  and  N_66
REMARK                            x       y       z     vdW  Elec       q    Type
REMARK                         _______ _______ _______ _____ _____    ______ ____
ROOT
ATOM      1  C   UNL     1       7.551   1.407   0.231  0.00  0.00    +0.197 A 
ATOM      2  N   UNL     1       7.494   0.168  -0.198  0.00  0.00    -0.122 NA
ATOM      3  N   UNL     1       8.663  -0.365  -0.156  0.00  0.00    -0.135 NA
ATOM      4  C   UNL     1       9.531   0.494   0.298  0.00  0.00    +0.125 A 
ATOM      5  N   UNL     1       8.856   1.657   0.557  0.00  0.00    -0.275 N 
ENDROOT
BRANCH   5   6
ATOM      6  C   UNL     1       9.391   2.855   1.056  0.00  0.00    +0.050 A 
ATOM      7  C   UNL     1      10.310   3.573   0.302  0.00  0.00    +0.029 A 
ATOM      8  C   UNL     1      10.830   4.755   0.792  0.00  0.00    +0.040 A 
ATOM      9  C   UNL     1      10.445   5.218   2.039  0.00  0.00    +0.124 A 
ATOM     10  C   UNL     1       9.533   4.500   2.794  0.00  0.00    +0.040 A 
ATOM     11  C   UNL     1       9.006   3.321   2.305  0.00  0.00    +0.029 A 
ATOM     12  F   UNL     1      10.960   6.371   2.519  0.00  0.00    -0.205 F 
ENDBRANCH   5   6
BRANCH   4  13
ATOM     13  C   UNL     1      11.006   0.254   0.496  0.00  0.00    -0.002 C 
ATOM     14  C   UNL     1      11.213  -0.707   1.668  0.00  0.00    -0.005 C 
BRANCH  13  20
ATOM     15  C   UNL     1      13.017  -0.562  -0.576  0.00  0.00    -0.078 C 
ATOM     16  C   UNL     1      13.547  -1.304  -1.805  0.00  0.00    -0.019 C 
ATOM     17  C   UNL     1      13.271  -0.468  -3.058  0.00  0.00    -0.004 C 
ATOM     18  C   UNL     1      11.767  -0.202  -3.164  0.00  0.00    -0.019 C 
ATOM     19  C   UNL     1      11.289   0.508  -1.895  0.00  0.00    -0.078 C 
ATOM     20  N   UNL     1      11.561  -0.359  -0.729  0.00  0.00    +0.386 N 
ATOM     21  H   UNL     1      11.111  -1.270  -0.879  0.00  0.00    -0.081 HD
ENDBRANCH  13  20
ENDBRANCH   4  13
BRANCH   1  22
ATOM     22  S   UNL     1       6.205   2.537   0.357  0.00  0.00    -0.073 S 
BRANCH  22  23
ATOM     23  C   UNL     1       4.859   1.490  -0.251  0.00  0.00    +0.137 C 
ATOM     24  C   UNL     1       5.104   1.147  -1.722  0.00  0.00    +0.029 C 
BRANCH  23  26
ATOM     25  N   UNL     1       2.397   1.536  -0.016  0.00  0.00    -0.284 N 
ATOM     26  C   UNL     1       3.551   2.226  -0.118  0.00  0.00    +0.230 C 
ATOM     27  O   UNL     1       3.536   3.438  -0.103  0.00  0.00    -0.274 OA
ATOM     28  H   UNL     1       2.414   0.568   0.036  0.00  0.00    +0.155 HD
BRANCH  25  34
ATOM     29  C   UNL     1      -0.221   5.469   1.344  0.00  0.00    +0.044 C 
ATOM     30  C   UNL     1      -0.122   4.126   0.668  0.00  0.00    -0.049 A 
ATOM     31  C   UNL     1      -1.240   3.565   0.078  0.00  0.00    +0.004 A 
ATOM     32  C   UNL     1      -1.153   2.335  -0.547  0.00  0.00    +0.005 A 
ATOM     33  C   UNL     1       0.051   1.657  -0.575  0.00  0.00    -0.029 A 
ATOM     34  C   UNL     1       1.175   2.218   0.015  0.00  0.00    +0.037 A 
ATOM     35  C   UNL     1       1.085   3.456   0.638  0.00  0.00    +0.027 A 
ATOM     36  C   UNL     1       0.144   0.314  -1.252  0.00  0.00    +0.045 C 
ENDBRANCH  25  34
ENDBRANCH  23  26
ENDBRANCH  22  23
ENDBRANCH   1  22
TORSDOF 7
