REMARK  Name = ZINC63514073
REMARK  7 active torsions:
REMARK  status: ('A' for Active; 'I' for Inactive)
REMARK    1  A    between atoms: C_1  and  C_2
REMARK    2  A    between atoms: C_4  and  C_12
REMARK    3  A    between atoms: C_12  and  C_13
REMARK    4  A    between atoms: C_13  and  N_14
REMARK    5  A    between atoms: C_24  and  C_29
REMARK    6  A    between atoms: C_24  and  C_33
REMARK    7  A    between atoms: C_26  and  C_28
REMARK                            x       y       z     vdW  Elec       q    Type
REMARK                         _______ _______ _______ _____ _____    ______ ____
ROOT
ATOM      1  N   UNL     1      -4.779  -0.972  -2.115  0.00  0.00    -0.264 N 
ATOM      2  C   UNL     1      -5.677   0.127  -1.774  0.00  0.00    +0.178 C 
ATOM      3  C   UNL     1      -5.987   0.911  -3.062  0.00  0.00    +0.159 C 
ATOM      4  C   UNL     1      -6.475  -0.059  -4.099  0.00  0.00    +0.250 C 
ATOM      5  O   UNL     1      -7.444   0.291  -4.960  0.00  0.00    -0.273 OA
ATOM      6  N   UNL     1      -5.937  -1.252  -4.147  0.00  0.00    -0.128 NA
ATOM      7  C   UNL     1      -4.977  -1.630  -3.278  0.00  0.00    +0.330 C 
ATOM      8  O   UNL     1      -4.281  -2.593  -3.541  0.00  0.00    -0.250 OA
ATOM      9  C   UNL     1      -7.027   1.972  -2.718  0.00  0.00    +0.244 C 
ATOM     10  N   UNL     1      -6.573   2.727  -1.548  0.00  0.00    -0.356 N 
ATOM     11  C   UNL     1      -5.691   2.307  -0.717  0.00  0.00    +0.067 C 
ATOM     12  N   UNL     1      -5.079   1.075  -0.829  0.00  0.00    -0.315 N 
ATOM     13  C   UNL     1      -5.313   3.192   0.443  0.00  0.00    +0.080 C 
ATOM     14  H   UNL     1      -4.288   0.850  -0.315  0.00  0.00    +0.149 HD
ATOM     15  H   UNL     1      -6.964   3.601  -1.392  0.00  0.00    +0.162 HD
ENDROOT
BRANCH   9  16
ATOM     16  C   UNL     1      -8.363   1.297  -2.404  0.00  0.00    +0.422 C 
ATOM     17  F   UNL     1      -8.234   0.525  -1.244  0.00  0.00    -0.168 F 
ATOM     18  F   UNL     1      -9.345   2.274  -2.208  0.00  0.00    -0.168 F 
ATOM     19  F   UNL     1      -8.732   0.473  -3.473  0.00  0.00    -0.168 F 
ENDBRANCH   9  16
BRANCH   9  20
ATOM     20  C   UNL     1      -7.199   2.923  -3.904  0.00  0.00    +0.422 C 
ATOM     21  F   UNL     1      -7.794   2.237  -4.968  0.00  0.00    -0.168 F 
ATOM     22  F   UNL     1      -8.012   3.997  -3.527  0.00  0.00    -0.168 F 
ATOM     23  F   UNL     1      -5.947   3.404  -4.302  0.00  0.00    -0.168 F 
ENDBRANCH   9  20
BRANCH   1  24
ATOM     24  C   UNL     1      -3.684  -1.349  -1.218  0.00  0.00    +0.115 C 
BRANCH  24  25
ATOM     25  C   UNL     1      -2.430  -0.551  -1.581  0.00  0.00    +0.052 C 
BRANCH  25  28
ATOM     26  C   UNL     1       0.093   1.113  -0.409  0.00  0.00    +0.035 C 
ATOM     27  C   UNL     1       0.108  -0.395  -0.667  0.00  0.00    +0.103 C 
ATOM     28  C   UNL     1      -1.303  -0.939  -0.659  0.00  0.00    -0.037 C 
ATOM     29  C   UNL     1      -1.349  -1.845   0.345  0.00  0.00    -0.001 A 
ATOM     30  C   UNL     1      -2.420  -2.707   0.858  0.00  0.00    +0.010 A 
ATOM     31  C   UNL     1      -2.158  -3.529   1.900  0.00  0.00    +0.001 A 
ATOM     32  C   UNL     1      -0.892  -3.579   2.499  0.00  0.00    +0.002 A 
ATOM     33  C   UNL     1       0.142  -2.818   2.083  0.00  0.00    +0.026 A 
ATOM     34  C   UNL     1      -0.021  -1.916   0.995  0.00  0.00    +0.043 A 
ATOM     35  N   UNL     1       0.815  -1.087   0.416  0.00  0.00    -0.378 N 
ATOM     36  H   UNL     1       1.743  -0.953   0.662  0.00  0.00    +0.160 HD
ENDBRANCH  25  28
ENDBRANCH  24  25
ENDBRANCH   1  24
TORSDOF 5
