REMARK  Name = ZINC01448699
REMARK  6 active torsions:
REMARK  status: ('A' for Active; 'I' for Inactive)
REMARK    1  A    between atoms: C_1  and  S_2
REMARK    2  A    between atoms: S_2  and  C_3
REMARK    3  A    between atoms: C_3  and  N_5
REMARK    4  A    between atoms: N_5  and  N_6
REMARK    5  A    between atoms: C_7  and  C_8
REMARK    6  A    between atoms: C_15  and  C_17
REMARK                            x       y       z     vdW  Elec       q    Type
REMARK                         _______ _______ _______ _____ _____    ______ ____
ROOT
ATOM      1  C   UNL     1       1.245   1.775  -0.118  0.00  0.00    +0.109 A 
ATOM      2  C   UNL     1       2.097   0.684   0.098  0.00  0.00    +0.075 A 
ATOM      3  C   UNL     1       3.486   0.555   0.238  0.00  0.00    +0.028 A 
ATOM      4  C   UNL     1       4.022  -0.680   0.445  0.00  0.00    +0.004 A 
ATOM      5  C   UNL     1       3.178  -1.802   0.515  0.00  0.00    +0.018 A 
ATOM      6  C   UNL     1       1.843  -1.663   0.379  0.00  0.00    +0.093 A 
ATOM      7  N   UNL     1       1.290  -0.430   0.171  0.00  0.00    -0.299 N 
ATOM      8  C   UNL     1       0.002  -0.004   0.002  0.00  0.00    +0.146 A 
ATOM      9  N   UNL     1      -0.009   1.301  -0.167  0.00  0.00    -0.226 NA
ENDROOT
BRANCH   8  10
ATOM     10  C   UNL     1      -1.192  -0.873   0.009  0.00  0.00    +0.018 A 
ATOM     11  C   UNL     1      -1.096  -2.200  -0.418  0.00  0.00    +0.013 A 
ATOM     12  C   UNL     1      -2.214  -3.008  -0.406  0.00  0.00    +0.021 A 
ATOM     13  C   UNL     1      -3.431  -2.503   0.020  0.00  0.00    +0.041 A 
ATOM     14  C   UNL     1      -3.534  -1.188   0.440  0.00  0.00    +0.021 A 
ATOM     15  C   UNL     1      -2.423  -0.371   0.436  0.00  0.00    +0.013 A 
ATOM     16 CL   UNL     1      -4.835  -3.525   0.027  0.00  0.00    -0.084 Cl
ENDBRANCH   8  10
BRANCH   1  18
ATOM     17  N   UNL     1       0.751   4.098  -0.461  0.00  0.00    -0.187 NA
ATOM     18  C   UNL     1       1.651   3.178  -0.263  0.00  0.00    +0.160 C 
BRANCH  17  19
ATOM     19  N   UNL     1       1.138   5.437  -0.600  0.00  0.00    -0.225 N 
ATOM     20  H   UNL     1       2.076   5.679  -0.549  0.00  0.00    +0.176 HD
BRANCH  19  21
ATOM     21  C   UNL     1       0.207   6.390  -0.805  0.00  0.00    +0.126 C 
ATOM     22  S   UNL     1       0.680   8.026  -0.975  0.00  0.00    -0.027 S 
BRANCH  21  24
ATOM     23  C   UNL     1      -2.228   7.583  -1.174  0.00  0.00    +0.092 C 
ATOM     24  S   UNL     1      -1.497   5.950  -0.899  0.00  0.00    -0.105 S 
ENDBRANCH  21  24
ENDBRANCH  19  21
ENDBRANCH  17  19
ENDBRANCH   1  18
TORSDOF 5
