REMARK  Name = ZINC37767366
REMARK  5 active torsions:
REMARK  status: ('A' for Active; 'I' for Inactive)
REMARK    1  A    between atoms: C_2  and  N_13
REMARK    2  A    between atoms: C_5  and  O_8
REMARK    3  A    between atoms: O_8  and  C_9
REMARK    4  A    between atoms: C_14  and  C_16
REMARK    5  A    between atoms: C_19  and  O_23
REMARK                            x       y       z     vdW  Elec       q    Type
REMARK                         _______ _______ _______ _____ _____    ______ ____
ROOT
ATOM      1  N   UNL     1       1.157   3.489   0.009  0.00  0.00    -0.287 N 
ATOM      2  C   UNL     1       2.312   4.178   0.104  0.00  0.00    +0.203 C 
ATOM      3  O   UNL     1       3.372   3.589   0.091  0.00  0.00    -0.277 OA
ATOM      4  H   UNL     1       0.313   3.963  -0.048  0.00  0.00    +0.155 HD
ENDROOT
BRANCH   1   6
ATOM      5  C   UNL     1       0.154   1.373   0.602  0.00  0.00    +0.047 A 
ATOM      6  C   UNL     1       1.177   2.088  -0.006  0.00  0.00    +0.036 A 
ATOM      7  C   UNL     1       2.219   1.415  -0.630  0.00  0.00    +0.047 A 
ATOM      8  C   UNL     1       2.237   0.033  -0.645  0.00  0.00    +0.086 A 
ATOM      9  C   UNL     1       1.214  -0.681  -0.037  0.00  0.00    +0.163 A 
ATOM     10  C   UNL     1       0.173  -0.009   0.587  0.00  0.00    +0.086 A 
ATOM     11 CL   UNL     1      -1.106  -0.903   1.348  0.00  0.00    -0.080 Cl
ATOM     12 CL   UNL     1       3.539  -0.809  -1.425  0.00  0.00    -0.080 Cl
BRANCH   9  13
ATOM     13  O   UNL     1       1.233  -2.042  -0.052  0.00  0.00    -0.431 OA
BRANCH  13  14
ATOM     14  C   UNL     1       1.894  -2.693   1.034  0.00  0.00    +0.541 C 
ATOM     15  F   UNL     1       3.236  -2.300   1.067  0.00  0.00    -0.166 F 
ATOM     16  F   UNL     1       1.275  -2.339   2.238  0.00  0.00    -0.166 F 
ENDBRANCH  13  14
ENDBRANCH   9  13
ENDBRANCH   1   6
BRANCH   2  17
ATOM     17  C   UNL     1       2.286   5.680   0.225  0.00  0.00    +0.019 C 
ATOM     18  C   UNL     1       2.019   6.097   1.687  0.00  0.00    +0.023 C 
ATOM     19  C   UNL     1       2.893   7.348   1.913  0.00  0.00    +0.097 C 
ATOM     20  C   UNL     1       3.615   7.581   0.568  0.00  0.00    -0.050 C 
ATOM     21  N   UNL     1       3.621   6.249  -0.092  0.00  0.00    +0.388 N 
ATOM     22  H   UNL     1       4.352   5.669   0.293  0.00  0.00    -0.085 HD
ATOM     23  H   UNL     1       3.735   6.348  -1.089  0.00  0.00    -0.085 HD
BRANCH  19  24
ATOM     24  O   UNL     1       2.075   8.473   2.241  0.00  0.00    -0.394 OA
ATOM     25  H   UNL     1       2.571   9.289   2.394  0.00  0.00    +0.210 HD
ENDBRANCH  19  24
ENDBRANCH   2  17
TORSDOF 5
