REMARK  Name = ZINC28182842
REMARK  7 active torsions:
REMARK  status: ('A' for Active; 'I' for Inactive)
REMARK    1  A    between atoms: C_1  and  C_2
REMARK    2  A    between atoms: C_2  and  N_3
REMARK    3  A    between atoms: C_5  and  C_12
REMARK    4  A    between atoms: C_20  and  C_23
REMARK    5  A    between atoms: C_23  and  N_24
REMARK    6  A    between atoms: C_26  and  C_33
REMARK    7  A    between atoms: C_29  and  C_32
REMARK                            x       y       z     vdW  Elec       q    Type
REMARK                         _______ _______ _______ _____ _____    ______ ____
ROOT
ATOM      1  C   UNL     1       0.527  -1.272   5.178  0.00  0.00    +0.060 C 
ATOM      2  C   UNL     1      -0.404  -2.264   5.097  0.00  0.00    +0.176 C 
ATOM      3  C   UNL     1      -0.514  -3.373   5.978  0.00  0.00    +0.231 C 
ATOM      4  O   UNL     1       0.191  -3.627   6.941  0.00  0.00    -0.283 OA
ATOM      5  C   UNL     1      -1.663  -4.149   5.480  0.00  0.00    +0.068 A 
ATOM      6  C   UNL     1      -2.280  -5.328   5.899  0.00  0.00    +0.019 A 
ATOM      7  C   UNL     1      -3.353  -5.816   5.209  0.00  0.00    +0.052 A 
ATOM      8  C   UNL     1      -3.833  -5.141   4.089  0.00  0.00    +0.184 A 
ATOM      9  C   UNL     1      -3.230  -3.969   3.661  0.00  0.00    +0.026 A 
ATOM     10  C   UNL     1      -2.138  -3.461   4.352  0.00  0.00    +0.144 A 
ATOM     11  O   UNL     1      -1.376  -2.363   4.159  0.00  0.00    -0.451 OA
ATOM     12  O   UNL     1      -4.900  -5.635   3.411  0.00  0.00    -0.288 OA
ENDROOT
BRANCH   1  15
ATOM     13  N   UNL     1      -0.020   1.094   2.454  0.00  0.00    -0.346 N 
ATOM     14  C   UNL     1      -0.344  -0.029   3.141  0.00  0.00    +0.094 A 
ATOM     15  C   UNL     1       0.528  -0.190   4.197  0.00  0.00    +0.004 A 
ATOM     16  C   UNL     1       1.459   0.954   4.141  0.00  0.00    +0.007 A 
ATOM     17  C   UNL     1       1.066   1.720   3.032  0.00  0.00    +0.050 A 
ATOM     18  C   UNL     1       1.768   2.879   2.721  0.00  0.00    +0.026 A 
ATOM     19  C   UNL     1       2.838   3.265   3.499  0.00  0.00    +0.002 A 
ATOM     20  C   UNL     1       3.225   2.508   4.595  0.00  0.00    +0.001 A 
ATOM     21  C   UNL     1       2.541   1.356   4.919  0.00  0.00    +0.010 A 
BRANCH  13  23
ATOM     22  C   UNL     1      -0.013   1.086   0.008  0.00  0.00    +0.027 C 
ATOM     23  C   UNL     1      -0.729   1.579   1.267  0.00  0.00    +0.118 C 
ENDBRANCH  13  23
ENDBRANCH   1  15
BRANCH   9  24
ATOM     24  C   UNL     1      -3.758  -3.248   2.448  0.00  0.00    -0.035 C 
BRANCH  24  25
ATOM     25  N   UNL     1      -3.077  -3.747   1.246  0.00  0.00    +0.383 N 
ATOM     26  C   UNL     1      -1.649  -3.403   1.269  0.00  0.00    -0.075 C 
ATOM     27  C   UNL     1      -0.946  -4.061   0.080  0.00  0.00    -0.031 C 
ATOM     28  C   UNL     1      -1.587  -3.571  -1.221  0.00  0.00    +0.003 C 
ATOM     29  C   UNL     1      -3.082  -3.898  -1.199  0.00  0.00    -0.031 C 
ATOM     30  C   UNL     1      -3.724  -3.245   0.028  0.00  0.00    -0.075 C 
ATOM     31  C   UNL     1      -3.743  -3.359  -2.469  0.00  0.00    +0.005 C 
ATOM     32  C   UNL     1      -1.087  -5.581   0.178  0.00  0.00    +0.005 C 
ATOM     33  H   UNL     1      -3.157  -4.844   1.241  0.00  0.00    -0.081 HD
ENDBRANCH  24  25
ENDBRANCH   9  24
TORSDOF 4
