REMARK  Name = ZINC65373912
REMARK  7 active torsions:
REMARK  status: ('A' for Active; 'I' for Inactive)
REMARK    1  A    between atoms: C_1  and  C_2
REMARK    2  A    between atoms: C_3  and  C_12
REMARK    3  A    between atoms: C_12  and  N_13
REMARK    4  A    between atoms: N_13  and  C_14
REMARK    5  A    between atoms: N_13  and  C_15
REMARK    6  A    between atoms: C_15  and  C_16
REMARK    7  A    between atoms: N_21  and  C_23
REMARK                            x       y       z     vdW  Elec       q    Type
REMARK                         _______ _______ _______ _____ _____    ______ ____
ROOT
ATOM      1  N   UNL     1      -1.339  -0.005  -3.042  0.00  0.00    +0.382 N 
ATOM      2  C   UNL     1       0.027  -0.462  -2.752  0.00  0.00    -0.096 C 
ATOM      3  H   UNL     1      -1.988  -0.759  -2.872  0.00  0.00    -0.082 HD
ENDROOT
BRANCH   1   4
ATOM      4  C   UNL     1      -1.670   1.132  -2.174  0.00  0.00    -0.023 C 
BRANCH   4   7
ATOM      5  C   UNL     1      -4.157   0.029  -0.638  0.00  0.00    +0.067 C 
ATOM      6  C   UNL     1      -2.772   0.199  -0.070  0.00  0.00    +0.058 A 
ATOM      7  C   UNL     1      -1.699   0.677  -0.738  0.00  0.00    +0.030 A 
ATOM      8  N   UNL     1      -0.644   0.669   0.133  0.00  0.00    -0.304 N 
ATOM      9  C   UNL     1       0.664   1.038   0.002  0.00  0.00    +0.112 A 
ATOM     10  C   UNL     1       1.517   0.927   1.043  0.00  0.00    +0.058 A 
ATOM     11  C   UNL     1       1.067   0.428   2.278  0.00  0.00    +0.025 A 
ATOM     12  C   UNL     1      -0.234   0.058   2.421  0.00  0.00    +0.048 A 
ATOM     13  C   UNL     1      -1.111   0.180   1.325  0.00  0.00    +0.138 A 
ATOM     14  N   UNL     1      -2.401  -0.092   1.179  0.00  0.00    -0.233 NA
ATOM     15 CL   UNL     1       3.177   1.400   0.855  0.00  0.00    -0.082 Cl
ENDBRANCH   4   7
ENDBRANCH   1   4
BRANCH   1  16
ATOM     16  C   UNL     1      -1.428   0.409  -4.449  0.00  0.00    -0.073 C 
BRANCH  16  17
ATOM     17  C   UNL     1      -2.880   0.747  -4.790  0.00  0.00    -0.002 C 
ATOM     18  C   UNL     1      -3.750  -0.530  -4.832  0.00  0.00    +0.099 C 
ATOM     19  C   UNL     1      -4.716  -0.284  -5.970  0.00  0.00    +0.216 C 
ATOM     20  O   UNL     1      -5.740  -0.907  -6.160  0.00  0.00    -0.276 OA
ATOM     21  N   UNL     1      -4.276   0.726  -6.740  0.00  0.00    -0.298 N 
ATOM     22  C   UNL     1      -3.002   1.260  -6.242  0.00  0.00    +0.110 C 
BRANCH  21  23
ATOM     23  C   UNL     1      -4.977   1.230  -7.924  0.00  0.00    +0.076 C 
ATOM     24  C   UNL     1      -5.373   2.706  -7.715  0.00  0.00    +0.022 C 
ATOM     25  C   UNL     1      -4.229   3.505  -8.387  0.00  0.00    +0.002 C 
ATOM     26  C   UNL     1      -3.902   2.650  -9.636  0.00  0.00    +0.002 C 
ATOM     27  C   UNL     1      -4.042   1.194  -9.145  0.00  0.00    +0.022 C 
ENDBRANCH  21  23
ENDBRANCH  16  17
ENDBRANCH   1  16
TORSDOF 5
