REMARK  Name = ZINC28051146
REMARK  10 active torsions:
REMARK  status: ('A' for Active; 'I' for Inactive)
REMARK    1  A    between atoms: C_1  and  C_2
REMARK    2  A    between atoms: C_4  and  C_41
REMARK    3  A    between atoms: C_5  and  N_9
REMARK    4  A    between atoms: C_6  and  C_8
REMARK    5  A    between atoms: C_13  and  N_17
REMARK    6  A    between atoms: N_22  and  C_24
REMARK    7  A    between atoms: N_29  and  C_32
REMARK    8  A    between atoms: C_33  and  C_40
REMARK    9  A    between atoms: C_35  and  C_39
REMARK   10  A    between atoms: C_37  and  C_38
REMARK                            x       y       z     vdW  Elec       q    Type
REMARK                         _______ _______ _______ _____ _____    ______ ____
ROOT
ATOM      1  N   UNL     1       1.384  -7.004  -1.243  0.00  0.00    +0.396 N 
ATOM      2  C   UNL     1       0.855  -8.382  -1.317  0.00  0.00    -0.076 C 
ATOM      3  C   UNL     1       0.935  -8.855  -2.745  0.00  0.00    -0.017 C 
ATOM      4  C   UNL     1       2.235  -9.636  -3.024  0.00  0.00    +0.013 C 
ATOM      5  C   UNL     1       3.444  -8.975  -2.331  0.00  0.00    +0.083 C 
ATOM      6  N   UNL     1       3.397  -7.534  -2.424  0.00  0.00    -0.308 NA
ATOM      7  C   UNL     1       2.781  -6.965  -1.206  0.00  0.00    +0.010 C 
ATOM      8  H   UNL     1       1.065  -6.490  -2.051  0.00  0.00    -0.079 HD
ENDROOT
BRANCH   1  13
ATOM      9  N   UNL     1       0.059  -4.172  -0.021  0.00  0.00    -0.211 N 
ATOM     10  C   UNL     1      -1.058  -4.912  -0.025  0.00  0.00    +0.225 C 
ATOM     11  O   UNL     1      -2.189  -4.476  -0.022  0.00  0.00    -0.275 OA
ATOM     12  C   UNL     1      -0.683  -6.378  -0.033  0.00  0.00    +0.091 C 
ATOM     13  C   UNL     1       0.859  -6.357  -0.033  0.00  0.00    +0.031 C 
ATOM     14  C   UNL     1       1.194  -4.882  -0.031  0.00  0.00    +0.213 C 
ATOM     15  O   UNL     1       2.313  -4.416  -0.035  0.00  0.00    -0.277 OA
BRANCH   9  20
ATOM     16  C   UNL     1      -0.018   1.503   0.010  0.00  0.00    +0.044 C 
ATOM     17  C   UNL     1       0.002  -0.004   0.002  0.00  0.00    -0.050 A 
ATOM     18  C   UNL     1       0.006  -0.688  -1.200  0.00  0.00    +0.008 A 
ATOM     19  C   UNL     1       0.025  -2.068  -1.211  0.00  0.00    -0.028 A 
ATOM     20  C   UNL     1       0.040  -2.771  -0.013  0.00  0.00    +0.050 A 
ATOM     21  C   UNL     1       0.037  -2.082   1.192  0.00  0.00    -0.028 A 
ATOM     22  C   UNL     1       0.023  -0.700   1.196  0.00  0.00    +0.008 A 
ATOM     23  C   UNL     1       0.053  -2.840   2.494  0.00  0.00    +0.046 C 
ATOM     24  C   UNL     1       0.028  -2.813  -2.521  0.00  0.00    +0.046 C 
ENDBRANCH   9  20
ENDBRANCH   1  13
BRANCH   6  25
ATOM     25  C   UNL     1       4.739  -6.977  -2.645  0.00  0.00    +0.151 C 
ATOM     26  C   UNL     1       5.362  -7.557  -3.931  0.00  0.00    +0.125 C 
ATOM     27  C   UNL     1       5.570  -6.340  -4.805  0.00  0.00    +0.228 C 
ATOM     28  O   UNL     1       6.044  -6.349  -5.921  0.00  0.00    -0.275 OA
ATOM     29  N   UNL     1       5.146  -5.251  -4.152  0.00  0.00    -0.209 N 
ATOM     30  C   UNL     1       4.660  -5.492  -2.924  0.00  0.00    +0.244 C 
ATOM     31  O   UNL     1       4.225  -4.656  -2.161  0.00  0.00    -0.273 OA
BRANCH  29  32
ATOM     32  C   UNL     1       5.207  -3.963  -4.703  0.00  0.00    +0.050 A 
ATOM     33  C   UNL     1       6.338  -3.179  -4.516  0.00  0.00    -0.028 A 
ATOM     34  C   UNL     1       6.395  -1.911  -5.061  0.00  0.00    +0.008 A 
ATOM     35  C   UNL     1       5.327  -1.422  -5.791  0.00  0.00    -0.050 A 
ATOM     36  C   UNL     1       4.200  -2.201  -5.979  0.00  0.00    +0.008 A 
ATOM     37  C   UNL     1       4.140  -3.472  -5.442  0.00  0.00    -0.028 A 
ATOM     38  C   UNL     1       2.913  -4.322  -5.653  0.00  0.00    +0.046 C 
ATOM     39  C   UNL     1       5.393  -0.038  -6.384  0.00  0.00    +0.044 C 
ATOM     40  C   UNL     1       7.501  -3.711  -3.719  0.00  0.00    +0.046 C 
ENDBRANCH  29  32
ENDBRANCH   6  25
TORSDOF 4
