REMARK  Name = ZINC35452427
REMARK  7 active torsions:
REMARK  status: ('A' for Active; 'I' for Inactive)
REMARK    1  A    between atoms: C_1  and  C_2
REMARK    2  A    between atoms: C_7  and  S_8
REMARK    3  A    between atoms: S_8  and  N_11
REMARK    4  A    between atoms: N_11  and  C_12
REMARK    5  A    between atoms: N_11  and  C_13
REMARK    6  A    between atoms: C_13  and  C_14
REMARK    7  A    between atoms: C_25  and  C_30
REMARK                            x       y       z     vdW  Elec       q    Type
REMARK                         _______ _______ _______ _____ _____    ______ ____
ROOT
ATOM      1  S   UNL     1       0.278   0.144   2.625  0.00  0.00    +0.061 S 
ATOM      2  O   UNL     1      -0.831   1.020   2.479  0.00  0.00    -0.153 OA
ATOM      3  O   UNL     1       0.442  -0.694   3.761  0.00  0.00    -0.153 OA
ENDROOT
BRANCH   1  10
ATOM      4  C   UNL     1      -0.036   1.114  -0.217  0.00  0.00    +0.046 C 
ATOM      5  C   UNL     1       0.124  -0.375  -0.049  0.00  0.00    -0.022 A 
ATOM      6  C   UNL     1       0.126  -1.199  -1.160  0.00  0.00    +0.032 A 
ATOM      7  C   UNL     1       0.272  -2.567  -1.004  0.00  0.00    +0.076 A 
ATOM      8  C   UNL     1       0.417  -3.110   0.272  0.00  0.00    +0.145 A 
ATOM      9  C   UNL     1       0.415  -2.280   1.379  0.00  0.00    +0.076 A 
ATOM     10  C   UNL     1       0.274  -0.914   1.216  0.00  0.00    +0.112 A 
ATOM     11  O   UNL     1       0.557  -4.455   0.414  0.00  0.00    -0.478 OA
ATOM     12  C   UNL     1      -0.128  -5.277  -0.535  0.00  0.00    +0.256 C 
ATOM     13  C   UNL     1       0.104  -4.745  -1.927  0.00  0.00    +0.258 C 
ATOM     14  O   UNL     1       0.136  -5.505  -2.871  0.00  0.00    -0.271 OA
ATOM     15  N   UNL     1       0.278  -3.419  -2.117  0.00  0.00    -0.280 N 
ATOM     16  C   UNL     1      -1.627  -5.265  -0.230  0.00  0.00    +0.062 C 
ATOM     17  H   UNL     1       0.403  -3.062  -3.010  0.00  0.00    +0.155 HD
ENDBRANCH   1  10
BRANCH   1  18
ATOM     18  N   UNL     1       1.638   1.083   2.528  0.00  0.00    -0.171 NA
ATOM     19  C   UNL     1       1.550   2.450   2.010  0.00  0.00    +0.132 C 
BRANCH  18  20
ATOM     20  C   UNL     1       2.931   0.546   2.961  0.00  0.00    +0.205 C 
BRANCH  20  21
ATOM     21  C   UNL     1       3.668  -0.011   1.770  0.00  0.00    +0.234 C 
ATOM     22  O   UNL     1       3.163   0.035   0.669  0.00  0.00    -0.274 OA
ATOM     23  N   UNL     1       4.888  -0.562   1.930  0.00  0.00    -0.269 N 
ATOM     24  C   UNL     1       5.614  -0.981   0.816  0.00  0.00    +0.125 A 
ATOM     25  C   UNL     1       6.818  -1.654   0.993  0.00  0.00    +0.045 A 
ATOM     26  C   UNL     1       7.530  -2.064  -0.121  0.00  0.00    +0.025 A 
ATOM     27  C   UNL     1       7.010  -1.786  -1.379  0.00  0.00    +0.059 A 
ATOM     28  C   UNL     1       5.807  -1.113  -1.480  0.00  0.00    +0.132 A 
ATOM     29  N   UNL     1       5.149  -0.739  -0.399  0.00  0.00    -0.239 NA
ATOM     30 CL   UNL     1       7.863  -2.278  -2.809  0.00  0.00    -0.082 Cl
ATOM     31  H   UNL     1       5.260  -0.666   2.819  0.00  0.00    +0.156 HD
ENDBRANCH  20  21
ENDBRANCH  18  20
ENDBRANCH   1  18
TORSDOF 4
