REMARK  Name = ZINC36372033
REMARK  5 active torsions:
REMARK  status: ('A' for Active; 'I' for Inactive)
REMARK    1  A    between atoms: C_1  and  C_2
REMARK    2  A    between atoms: C_12  and  C_14
REMARK    3  A    between atoms: C_14  and  C_16
REMARK    4  A    between atoms: C_16  and  O_17
REMARK    5  A    between atoms: C_27  and  O_30
REMARK                            x       y       z     vdW  Elec       q    Type
REMARK                         _______ _______ _______ _____ _____    ______ ____
ROOT
ATOM      1  C   UNL     1      -0.019   1.552   0.011  0.00  0.00    +0.012 C 
ATOM      2  C   UNL     1       0.002  -0.004   0.002  0.00  0.00    -0.017 C 
ATOM      3  C   UNL     1       0.636  -0.372  -1.312  0.00  0.00    +0.008 C 
ATOM      4  C   UNL     1       1.391  -1.707  -1.323  0.00  0.00    +0.008 C 
ATOM      5  C   UNL     1       2.374  -1.616  -0.169  0.00  0.00    +0.036 C 
ATOM      6  C   UNL     1       1.528  -1.707   1.130  0.00  0.00    +0.080 C 
ATOM      7  C   UNL     1       0.761  -0.407   1.276  0.00  0.00    +0.028 C 
ATOM      8  C   UNL     1      -0.341  -0.603   2.349  0.00  0.00    +0.007 C 
ATOM      9  C   UNL     1      -1.586  -1.059   1.565  0.00  0.00    +0.012 C 
ATOM     10  C   UNL     1      -1.456  -0.424   0.168  0.00  0.00    +0.064 C 
ATOM     11  C   UNL     1       0.583  -2.902   1.073  0.00  0.00    +0.040 C 
ATOM     12  C   UNL     1       1.326  -4.233   0.939  0.00  0.00    +0.034 C 
ATOM     13  C   UNL     1       2.446  -4.070  -0.069  0.00  0.00    -0.055 C 
ATOM     14  C   UNL     1       2.645  -4.991  -1.003  0.00  0.00    +0.046 C 
ATOM     15  C   UNL     1       3.729  -4.818  -1.978  0.00  0.00    +0.156 C 
ATOM     16  O   UNL     1       4.174  -5.760  -2.602  0.00  0.00    -0.293 OA
ATOM     17  C   UNL     1       4.270  -3.418  -2.181  0.00  0.00    +0.080 C 
ATOM     18  C   UNL     1       4.519  -2.799  -0.804  0.00  0.00    +0.024 C 
ATOM     19  C   UNL     1       3.284  -2.830   0.053  0.00  0.00    +0.049 C 
ATOM     20  C   UNL     1       3.636  -2.627   1.552  0.00  0.00    +0.258 C 
ATOM     21  O   UNL     1       2.513  -1.937   2.145  0.00  0.00    -0.344 OA
ENDROOT
BRANCH  10  22
ATOM     22  C   UNL     1      -1.942  -1.371  -0.889  0.00  0.00    +0.162 C 
ATOM     23  O   UNL     1      -1.171  -2.139  -1.412  0.00  0.00    -0.295 OA
BRANCH  22  24
ATOM     24  C   UNL     1      -3.393  -1.364  -1.298  0.00  0.00    +0.230 C 
BRANCH  24  25
ATOM     25  O   UNL     1      -3.606  -2.347  -2.313  0.00  0.00    -0.388 OA
ATOM     26  H   UNL     1      -4.520  -2.398  -2.624  0.00  0.00    +0.210 HD
ENDBRANCH  24  25
ENDBRANCH  22  24
ENDBRANCH  10  22
BRANCH  20  27
ATOM     27  O   UNL     1       3.866  -3.878   2.194  0.00  0.00    -0.366 OA
ATOM     28  H   UNL     1       4.090  -3.804   3.132  0.00  0.00    +0.213 HD
ENDBRANCH  20  27
TORSDOF 4
