REMARK  Name = ZINC20320613
REMARK  11 active torsions:
REMARK  status: ('A' for Active; 'I' for Inactive)
REMARK    1  A    between atoms: C_1  and  C_2
REMARK    2  A    between atoms: C_2  and  C_3
REMARK    3  A    between atoms: C_3  and  C_5
REMARK    4  A    between atoms: C_3  and  N_6
REMARK    5  A    between atoms: N_6  and  C_7
REMARK    6  A    between atoms: N_6  and  C_8
REMARK    7  A    between atoms: C_8  and  C_9
REMARK    8  A    between atoms: C_13  and  C_15
REMARK    9  A    between atoms: C_15  and  O_31
REMARK   10  A    between atoms: N_18  and  S_21
REMARK   11  A    between atoms: S_21  and  C_24
REMARK                            x       y       z     vdW  Elec       q    Type
REMARK                         _______ _______ _______ _____ _____    ______ ____
ROOT
ATOM      1  C   UNL     1      -4.228   3.998  -1.320  0.00  0.00    +0.093 C 
ATOM      2  C   UNL     1      -3.703   5.048  -0.338  0.00  0.00    +0.056 C 
ATOM      3  C   UNL     1      -2.321   4.622   0.167  0.00  0.00    +0.112 C 
ATOM      4  N   UNL     1      -2.419   3.268   0.728  0.00  0.00    -0.176 NA
ATOM      5  C   UNL     1      -2.989   2.199  -0.104  0.00  0.00    +0.112 C 
ATOM      6  C   UNL     1      -4.369   2.653  -0.604  0.00  0.00    +0.056 C 
ENDROOT
BRANCH   1  11
ATOM      7  C   UNL     1      -7.205   4.453  -3.597  0.00  0.00    -0.064 A 
ATOM      8  C   UNL     1      -8.041   5.222  -2.808  0.00  0.00    +0.002 A 
ATOM      9  C   UNL     1      -7.643   5.595  -1.538  0.00  0.00    +0.001 A 
ATOM     10  C   UNL     1      -6.410   5.195  -1.055  0.00  0.00    +0.006 A 
ATOM     11  C   UNL     1      -5.573   4.430  -1.845  0.00  0.00    -0.016 A 
ATOM     12  C   UNL     1      -5.972   4.057  -3.115  0.00  0.00    +0.008 A 
BRANCH   7  13
ATOM     13  C   UNL     1      -7.640   4.046  -4.981  0.00  0.00    -0.043 C 
BRANCH  13  14
ATOM     14  N   UNL     1      -8.353   2.763  -4.914  0.00  0.00    +0.382 N 
ATOM     15  C   UNL     1      -7.450   1.681  -4.498  0.00  0.00    -0.095 C 
ATOM     16  H   UNL     1      -9.143   2.855  -4.154  0.00  0.00    -0.081 HD
BRANCH  14  17
ATOM     17  C   UNL     1      -8.995   2.450  -6.197  0.00  0.00    -0.072 C 
ATOM     18  C   UNL     1     -10.007   3.545  -6.542  0.00  0.00    -0.013 C 
BRANCH  17  20
ATOM     19  C   UNL     1     -10.319   0.741  -7.450  0.00  0.00    +0.002 C 
ATOM     20  C   UNL     1      -9.716   1.104  -6.091  0.00  0.00    -0.019 C 
ENDBRANCH  17  20
ENDBRANCH  14  17
ENDBRANCH  13  14
ENDBRANCH   7  13
ENDBRANCH   1  11
BRANCH   4  21
ATOM     21  S   UNL     1      -1.890   2.950   2.264  0.00  0.00    +0.061 S 
ATOM     22  O   UNL     1      -1.591   1.561   2.312  0.00  0.00    -0.153 OA
ATOM     23  O   UNL     1      -0.928   3.947   2.577  0.00  0.00    -0.153 OA
BRANCH  21  24
ATOM     24  C   UNL     1      -3.254   3.209   3.349  0.00  0.00    +0.106 A 
ATOM     25  C   UNL     1      -3.467   4.456   3.906  0.00  0.00    +0.030 A 
ATOM     26  C   UNL     1      -4.540   4.661   4.752  0.00  0.00    +0.022 A 
ATOM     27  C   UNL     1      -5.395   3.615   5.051  0.00  0.00    +0.041 A 
ATOM     28  C   UNL     1      -5.179   2.366   4.497  0.00  0.00    +0.022 A 
ATOM     29  C   UNL     1      -4.108   2.163   3.647  0.00  0.00    +0.030 A 
ATOM     30 CL   UNL     1      -6.740   3.870   6.119  0.00  0.00    -0.084 Cl
ENDBRANCH  21  24
ENDBRANCH   4  21
BRANCH   1  31
ATOM     31  O   UNL     1      -3.313   3.865  -2.409  0.00  0.00    -0.384 OA
ATOM     32  H   UNL     1      -2.274   3.555  -2.220  0.00  0.00    +0.211 HD
ENDBRANCH   1  31
TORSDOF 8
