REMARK  Name = ZINC39007438
REMARK  7 active torsions:
REMARK  status: ('A' for Active; 'I' for Inactive)
REMARK    1  A    between atoms: C_1  and  C_2
REMARK    2  A    between atoms: C_7  and  C_14
REMARK    3  A    between atoms: C_14  and  N_15
REMARK    4  A    between atoms: N_15  and  C_16
REMARK    5  A    between atoms: C_21  and  C_22
REMARK    6  A    between atoms: C_23  and  C_25
REMARK    7  A    between atoms: C_30  and  C_31
REMARK                            x       y       z     vdW  Elec       q    Type
REMARK                         _______ _______ _______ _____ _____    ______ ____
ROOT
ATOM      1  N   UNL     1      -1.177  -6.788   2.461  0.00  0.00    -0.266 N 
ATOM      2  C   UNL     1      -0.213  -7.724   2.363  0.00  0.00    +0.251 C 
ATOM      3  O   UNL     1       0.408  -7.851   1.326  0.00  0.00    -0.270 OA
ENDROOT
BRANCH   1   4
ATOM      4  C   UNL     1      -1.953  -6.700   3.621  0.00  0.00    +0.039 A 
ATOM      5  C   UNL     1      -1.350  -6.423   4.842  0.00  0.00    +0.024 A 
ATOM      6  C   UNL     1      -2.118  -6.338   5.986  0.00  0.00    +0.002 A 
ATOM      7  C   UNL     1      -3.487  -6.529   5.918  0.00  0.00    +0.000 A 
ATOM      8  C   UNL     1      -4.090  -6.805   4.705  0.00  0.00    +0.005 A 
ATOM      9  C   UNL     1      -3.327  -6.886   3.555  0.00  0.00    -0.029 A 
ATOM     10  C   UNL     1      -3.986  -7.180   2.232  0.00  0.00    +0.045 C 
ENDBRANCH   1   4
BRANCH   2  11
ATOM     11  C   UNL     1       0.088  -8.598   3.517  0.00  0.00    +0.040 A 
ATOM     12  C   UNL     1      -0.937  -9.307   4.145  0.00  0.00    +0.013 A 
ATOM     13  C   UNL     1      -0.649 -10.121   5.221  0.00  0.00    +0.001 A 
ATOM     14  C   UNL     1       0.652 -10.235   5.678  0.00  0.00    +0.000 A 
ATOM     15  C   UNL     1       1.672  -9.535   5.059  0.00  0.00    +0.004 A 
ATOM     16  C   UNL     1       1.399  -8.722   3.978  0.00  0.00    -0.038 A 
ATOM     17  C   UNL     1       2.513  -7.965   3.302  0.00  0.00    +0.044 C 
ENDBRANCH   2  11
BRANCH   1  18
ATOM     18  C   UNL     1      -1.413  -5.861   1.351  0.00  0.00    +0.131 C 
BRANCH  18  25
ATOM     19  C   UNL     1      -1.642   1.604   0.689  0.00  0.00    +0.044 C 
ATOM     20  C   UNL     1      -1.344   0.133   0.555  0.00  0.00    -0.049 A 
ATOM     21  C   UNL     1      -1.210  -0.409  -0.723  0.00  0.00    +0.004 A 
ATOM     22  C   UNL     1      -0.941  -1.728  -0.907  0.00  0.00    +0.010 A 
ATOM     23  C   UNL     1      -0.791  -2.588   0.267  0.00  0.00    -0.007 A 
ATOM     24  C   UNL     1      -0.520  -3.917   0.130  0.00  0.00    -0.003 C 
ATOM     25  C   UNL     1      -0.381  -4.732   1.401  0.00  0.00    +0.116 C 
ATOM     26  C   UNL     1      -0.552  -4.005   2.716  0.00  0.00    +0.226 C 
ATOM     27  O   UNL     1      -0.450  -4.611   3.766  0.00  0.00    -0.275 OA
ATOM     28  N   UNL     1      -0.813  -2.709   2.719  0.00  0.00    -0.284 N 
ATOM     29  C   UNL     1      -0.937  -1.988   1.605  0.00  0.00    +0.041 A 
ATOM     30  C   UNL     1      -1.211  -0.611   1.685  0.00  0.00    +0.027 A 
ATOM     31  H   UNL     1      -0.920  -2.261   3.573  0.00  0.00    +0.155 HD
ENDBRANCH  18  25
ENDBRANCH   1  18
TORSDOF 4
