REMARK  Name = ZINC64164003
REMARK  6 active torsions:
REMARK  status: ('A' for Active; 'I' for Inactive)
REMARK    1  A    between atoms: C_7  and  C_10
REMARK    2  A    between atoms: C_10  and  C_11
REMARK    3  A    between atoms: C_11  and  N_12
REMARK    4  A    between atoms: C_13  and  C_15
REMARK    5  A    between atoms: C_15  and  O_16
REMARK    6  A    between atoms: O_16  and  C_17
REMARK                            x       y       z     vdW  Elec       q    Type
REMARK                         _______ _______ _______ _____ _____    ______ ____
ROOT
ATOM      1  C   UNL     1      -1.752  -6.557  -2.622  0.00  0.00    +0.324 C 
ENDROOT
BRANCH   1   3
ATOM      2  N   UNL     1      -0.458  -4.798  -1.460  0.00  0.00    -0.312 N 
ATOM      3  C   UNL     1      -0.811  -5.380  -2.623  0.00  0.00    +0.251 C 
ATOM      4  O   UNL     1      -0.371  -4.957  -3.671  0.00  0.00    -0.272 OA
ATOM      5  H   UNL     1      -0.810  -5.136  -0.622  0.00  0.00    +0.149 HD
BRANCH   2   6
ATOM      6  C   UNL     1       0.457  -3.653  -1.462  0.00  0.00    +0.108 C 
BRANCH   6   7
ATOM      7  C   UNL     1       0.691  -3.186  -0.024  0.00  0.00    +0.052 C 
BRANCH   7  14
ATOM      8  C   UNL     1      -0.016   1.348   0.009  0.00  0.00    +0.001 A 
ATOM      9  C   UNL     1       1.166   2.101   0.002  0.00  0.00    +0.002 A 
ATOM     10  C   UNL     1       2.391   1.535  -0.013  0.00  0.00    +0.026 A 
ATOM     11  C   UNL     1       2.529   0.120  -0.022  0.00  0.00    +0.043 A 
ATOM     12  N   UNL     1       3.587  -0.654  -0.037  0.00  0.00    -0.380 N 
ATOM     13  C   UNL     1       3.143  -2.053  -0.041  0.00  0.00    +0.144 C 
ATOM     14  C   UNL     1       1.631  -2.008  -0.025  0.00  0.00    -0.040 C 
ATOM     15  C   UNL     1       1.295  -0.698  -0.014  0.00  0.00    -0.001 A 
ATOM     16  C   UNL     1       0.002  -0.004   0.002  0.00  0.00    +0.010 A 
ATOM     17  H   UNL     1       4.509  -0.353  -0.045  0.00  0.00    +0.160 HD
ENDBRANCH   7  14
ENDBRANCH   6   7
ENDBRANCH   2   6
ENDBRANCH   1   3
BRANCH   1  18
ATOM     18  O   UNL     1      -1.970  -6.994  -3.965  0.00  0.00    -0.483 OA
BRANCH  18  19
ATOM     19  C   UNL     1      -2.801  -8.055  -4.141  0.00  0.00    +0.125 A 
ATOM     20  C   UNL     1      -3.398  -8.660  -3.043  0.00  0.00    +0.046 A 
ATOM     21  C   UNL     1      -4.239  -9.740  -3.226  0.00  0.00    +0.011 A 
ATOM     22  C   UNL     1      -4.490 -10.222  -4.500  0.00  0.00    -0.001 A 
ATOM     23  C   UNL     1      -3.904  -9.620  -5.598  0.00  0.00    +0.139 A 
ATOM     24  C   UNL     1      -3.057  -8.531  -5.415  0.00  0.00    +0.092 A 
ATOM     25  O   UNL     1      -4.141 -10.041  -6.871  0.00  0.00    -0.425 OA
ATOM     26  C   UNL     1      -4.846 -11.181  -7.034  0.00  0.00    +0.316 C 
ATOM     27  O   UNL     1      -4.583 -11.974  -7.907  0.00  0.00    -0.250 OA
ATOM     28  C   UNL     1      -5.981 -11.411  -6.065  0.00  0.00    +0.106 C 
ATOM     29  C   UNL     1      -5.407 -11.418  -4.650  0.00  0.00    +0.036 C 
ATOM     30  C   UNL     1      -4.566 -12.678  -4.425  0.00  0.00    +0.009 C 
ATOM     31  C   UNL     1      -5.401 -13.928  -4.697  0.00  0.00    +0.001 C 
ATOM     32  C   UNL     1      -5.855 -13.913  -6.160  0.00  0.00    +0.001 C 
ATOM     33  C   UNL     1      -6.731 -12.693  -6.378  0.00  0.00    +0.015 C 
ENDBRANCH  18  19
ENDBRANCH   1  18
TORSDOF 6
