REMARK  Name = ZINC35744554
REMARK  13 active torsions:
REMARK  status: ('A' for Active; 'I' for Inactive)
REMARK    1  A    between atoms: C_1  and  C_2
REMARK    2  A    between atoms: C_5  and  C_9
REMARK    3  A    between atoms: C_11  and  C_14
REMARK    4  A    between atoms: C_14  and  C_16
REMARK    5  A    between atoms: C_14  and  N_19
REMARK    6  A    between atoms: C_16  and  C_17
REMARK    7  A    between atoms: C_16  and  C_18
REMARK    8  A    between atoms: N_19  and  C_20
REMARK    9  A    between atoms: C_20  and  C_21
REMARK   10  A    between atoms: C_21  and  C_23
REMARK   11  A    between atoms: C_21  and  O_31
REMARK   12  A    between atoms: C_23  and  O_24
REMARK   13  A    between atoms: O_24  and  C_25
REMARK                            x       y       z     vdW  Elec       q    Type
REMARK                         _______ _______ _______ _____ _____    ______ ____
ROOT
ATOM      1  C   UNL     1       0.182  -7.323   1.723  0.00  0.00    +0.022 C 
ENDROOT
BRANCH   1   4
ATOM      2  C   UNL     1       0.548  -4.268  -0.202  0.00  0.00    +0.202 A 
ATOM      3  N   UNL     1       0.405  -4.955   0.945  0.00  0.00    -0.193 NA
ATOM      4  C   UNL     1       0.342  -6.231   0.696  0.00  0.00    +0.214 A 
ATOM      5  O   UNL     1       0.442  -6.411  -0.628  0.00  0.00    -0.339 OA
ATOM      6  N   UNL     1       0.571  -5.117  -1.199  0.00  0.00    -0.056 NA
BRANCH   2  11
ATOM      7  C   UNL     1       0.965   1.460  -0.662  0.00  0.00    +0.045 C 
ATOM      8  C   UNL     1       0.856  -0.039  -0.541  0.00  0.00    -0.032 A 
ATOM      9  C   UNL     1       0.895  -0.826  -1.678  0.00  0.00    +0.005 A 
ATOM     10  C   UNL     1       0.796  -2.199  -1.573  0.00  0.00    +0.012 A 
ATOM     11  C   UNL     1       0.656  -2.792  -0.320  0.00  0.00    +0.024 A 
ATOM     12  C   UNL     1       0.617  -1.995   0.822  0.00  0.00    +0.032 A 
ATOM     13  C   UNL     1       0.723  -0.622   0.707  0.00  0.00    +0.045 A 
ATOM     14 CL   UNL     1       0.682   0.373   2.129  0.00  0.00    -0.083 Cl
ENDBRANCH   2  11
ENDBRANCH   1   4
BRANCH   1  15
ATOM     15  C   UNL     1       1.520  -8.040   1.916  0.00  0.00    -0.022 C 
ATOM     16  C   UNL     1       2.583  -7.029   2.350  0.00  0.00    +0.006 C 
ATOM     17  C   UNL     1       1.370  -9.117   2.993  0.00  0.00    +0.006 C 
ENDBRANCH   1  15
BRANCH   1  18
ATOM     18  N   UNL     1      -0.828  -8.285   1.262  0.00  0.00    +0.389 N 
ATOM     19  H   UNL     1      -0.579  -8.619   0.343  0.00  0.00    -0.085 HD
ATOM     20  H   UNL     1      -0.868  -9.063   1.903  0.00  0.00    -0.085 HD
BRANCH  18  21
ATOM     21  C   UNL     1      -2.140  -7.628   1.206  0.00  0.00    -0.046 C 
BRANCH  21  22
ATOM     22  C   UNL     1      -3.180  -8.611   0.665  0.00  0.00    +0.135 C 
BRANCH  22  23
ATOM     23  O   UNL     1      -2.801  -9.031  -0.647  0.00  0.00    -0.390 OA
ATOM     24  H   UNL     1      -2.732  -8.309  -1.287  0.00  0.00    +0.210 HD
ENDBRANCH  22  23
BRANCH  22  25
ATOM     25  C   UNL     1      -4.547  -7.927   0.606  0.00  0.00    +0.258 C 
BRANCH  25  26
ATOM     26  O   UNL     1      -5.539  -8.877   0.212  0.00  0.00    -0.489 OA
BRANCH  26  27
ATOM     27  C   UNL     1      -6.818  -8.428   0.111  0.00  0.00    +0.121 A 
ATOM     28  C   UNL     1      -7.111  -7.099   0.380  0.00  0.00    +0.045 A 
ATOM     29  C   UNL     1      -8.412  -6.645   0.276  0.00  0.00    +0.004 A 
ATOM     30  C   UNL     1      -9.421  -7.514  -0.095  0.00  0.00    +0.000 A 
ATOM     31  C   UNL     1      -9.131  -8.840  -0.363  0.00  0.00    +0.004 A 
ATOM     32  C   UNL     1      -7.832  -9.297  -0.267  0.00  0.00    +0.045 A 
ENDBRANCH  26  27
ENDBRANCH  25  26
ENDBRANCH  22  25
ENDBRANCH  21  22
ENDBRANCH  18  21
ENDBRANCH   1  18
TORSDOF 10
