REMARK  Name = ZINC20783221
REMARK  12 active torsions:
REMARK  status: ('A' for Active; 'I' for Inactive)
REMARK    1  A    between atoms: C_1  and  C_2
REMARK    2  A    between atoms: C_2  and  C_3
REMARK    3  A    between atoms: C_2  and  N_4
REMARK    4  A    between atoms: C_7  and  N_10
REMARK    5  A    between atoms: N_13  and  C_20
REMARK    6  A    between atoms: C_15  and  C_17
REMARK    7  A    between atoms: C_17  and  C_18
REMARK    8  A    between atoms: C_18  and  O_19
REMARK    9  A    between atoms: C_20  and  C_21
REMARK   10  A    between atoms: N_24  and  C_26
REMARK   11  A    between atoms: C_31  and  O_32
REMARK   12  A    between atoms: O_32  and  C_33
REMARK                            x       y       z     vdW  Elec       q    Type
REMARK                         _______ _______ _______ _____ _____    ______ ____
ROOT
ATOM      1  N   UNL     1      -0.789   1.496  -1.073  0.00  0.00    +0.385 N 
ATOM      2  C   UNL     1      -0.046   0.863   0.025  0.00  0.00    -0.062 C 
ATOM      3  C   UNL     1      -0.645   1.304   1.363  0.00  0.00    +0.066 C 
ATOM      4  N   UNL     1      -0.583   2.769   1.465  0.00  0.00    -0.301 NA
ATOM      5  C   UNL     1      -1.325   3.402   0.366  0.00  0.00    +0.069 C 
ATOM      6  C   UNL     1      -0.727   2.961  -0.972  0.00  0.00    -0.052 C 
ATOM      7  H   UNL     1      -1.843   1.194  -0.990  0.00  0.00    -0.081 HD
ENDROOT
BRANCH   1  11
ATOM      8  N   UNL     1       1.496  -0.644  -3.899  0.00  0.00    -0.300 NA
ATOM      9  C   UNL     1       1.730   0.803  -3.824  0.00  0.00    +0.083 C 
ATOM     10  C   UNL     1       1.206   1.337  -2.489  0.00  0.00    +0.000 C 
ATOM     11  C   UNL     1      -0.292   1.038  -2.378  0.00  0.00    -0.066 C 
ATOM     12  C   UNL     1      -0.515  -0.472  -2.508  0.00  0.00    +0.000 C 
ATOM     13  C   UNL     1       0.061  -0.954  -3.842  0.00  0.00    +0.083 C 
BRANCH   8  15
ATOM     14  C   UNL     1       1.953  -2.737  -5.086  0.00  0.00    +0.024 C 
ATOM     15  C   UNL     1       2.110  -1.215  -5.105  0.00  0.00    +0.050 C 
ATOM     16  C   UNL     1       1.419  -0.647  -6.347  0.00  0.00    +0.024 C 
ENDBRANCH   8  15
ENDBRANCH   1  11
BRANCH   6  17
ATOM     17  C   UNL     1      -1.523   3.587  -2.118  0.00  0.00    +0.014 C 
BRANCH  17  18
ATOM     18  C   UNL     1      -1.392   5.110  -2.059  0.00  0.00    +0.154 C 
BRANCH  18  19
ATOM     19  O   UNL     1      -2.192   5.697  -3.087  0.00  0.00    -0.395 OA
ATOM     20  H   UNL     1      -2.225   6.791  -3.200  0.00  0.00    +0.209 HD
ENDBRANCH  18  19
ENDBRANCH  17  18
ENDBRANCH   6  17
BRANCH   4  21
ATOM     21  C   UNL     1      -1.080   3.227   2.769  0.00  0.00    +0.122 C 
BRANCH  21  22
ATOM     22  C   UNL     1      -0.148   2.756   3.856  0.00  0.00    +0.004 A 
ATOM     23  C   UNL     1       0.963   3.450   4.345  0.00  0.00    +0.139 A 
ATOM     24  N   UNL     1       1.520   2.723   5.281  0.00  0.00    -0.174 NA
ATOM     25  N   UNL     1       0.779   1.542   5.418  0.00  0.00    -0.236 N 
ATOM     26  C   UNL     1      -0.243   1.589   4.535  0.00  0.00    +0.119 A 
BRANCH  25  27
ATOM     27  C   UNL     1       1.048   0.499   6.316  0.00  0.00    +0.107 A 
ATOM     28  C   UNL     1       0.225  -0.618   6.351  0.00  0.00    +0.031 A 
ATOM     29  C   UNL     1       0.494  -1.647   7.233  0.00  0.00    +0.002 A 
ATOM     30  C   UNL     1       1.576  -1.562   8.090  0.00  0.00    +0.004 A 
ATOM     31  C   UNL     1       2.397  -0.451   8.065  0.00  0.00    +0.048 A 
ATOM     32  C   UNL     1       2.137   0.584   7.179  0.00  0.00    +0.145 A 
BRANCH  32  33
ATOM     33  O   UNL     1       2.943   1.678   7.154  0.00  0.00    -0.493 OA
ATOM     34  C   UNL     1       4.042   1.696   8.068  0.00  0.00    +0.277 C 
ENDBRANCH  32  33
ENDBRANCH  25  27
ENDBRANCH  21  22
ENDBRANCH   4  21
TORSDOF 9
