REMARK  Name = ZINC06442551
REMARK  7 active torsions:
REMARK  status: ('A' for Active; 'I' for Inactive)
REMARK    1  A    between atoms: C_1  and  C_2
REMARK    2  A    between atoms: C_7  and  C_15
REMARK    3  A    between atoms: C_13  and  C_14
REMARK    4  A    between atoms: C_15  and  C_17
REMARK    5  A    between atoms: C_15  and  N_60
REMARK    6  A    between atoms: N_21  and  C_22
REMARK    7  A    between atoms: C_22  and  C_23
REMARK                            x       y       z     vdW  Elec       q    Type
REMARK                         _______ _______ _______ _____ _____    ______ ____
ROOT
ATOM      1  C   UNL     1       1.258  -2.141  -0.022  0.00  0.00    +0.039 C 
ENDROOT
BRANCH   1   8
ATOM      2  C   UNL     1      -0.013   5.733   0.034  0.00  0.00    +0.044 C 
ATOM      3  C   UNL     1      -0.006   4.226   0.025  0.00  0.00    -0.046 A 
ATOM      4  C   UNL     1      -1.209   3.533   0.033  0.00  0.00    +0.004 A 
ATOM      5  C   UNL     1      -1.224   2.167   0.031  0.00  0.00    +0.010 A 
ATOM      6  C   UNL     1      -0.018   1.460   0.010  0.00  0.00    -0.001 A 
ATOM      7  C   UNL     1       0.002  -0.004   0.002  0.00  0.00    +0.017 A 
ATOM      8  C   UNL     1       1.202  -0.635  -0.013  0.00  0.00    +0.011 A 
ATOM      9  C   UNL     1       2.399   0.113  -0.020  0.00  0.00    +0.251 A 
ATOM     10  O   UNL     1       3.467  -0.475  -0.034  0.00  0.00    -0.268 OA
ATOM     11  N   UNL     1       2.391   1.457  -0.013  0.00  0.00    -0.322 N 
ATOM     12  H   UNL     1       3.232   1.940  -0.019  0.00  0.00    +0.169 HD
ATOM     13  C   UNL     1       1.204   2.159   0.002  0.00  0.00    +0.052 A 
ATOM     14  C   UNL     1       1.195   3.550   0.010  0.00  0.00    -0.024 A 
ATOM     15  C   UNL     1       2.494   4.315   0.002  0.00  0.00    +0.046 C 
ENDBRANCH   1   8
BRANCH   1  21
ATOM     16  C   UNL     1       1.530  -2.055  -2.426  0.00  0.00    -0.077 C 
ATOM     17  C   UNL     1       2.470  -2.426  -3.576  0.00  0.00    -0.019 C 
ATOM     18  C   UNL     1       2.586  -3.951  -3.661  0.00  0.00    -0.004 C 
ATOM     19  C   UNL     1       3.093  -4.492  -2.321  0.00  0.00    -0.019 C 
ATOM     20  C   UNL     1       2.136  -4.061  -1.208  0.00  0.00    -0.077 C 
ATOM     21  N   UNL     1       2.087  -2.584  -1.162  0.00  0.00    +0.389 N 
ATOM     22  H   UNL     1       3.040  -2.223  -1.041  0.00  0.00    -0.080 HD
ENDBRANCH   1  21
BRANCH   1  23
ATOM     23  C   UNL     1       1.888  -2.628   1.257  0.00  0.00    +0.143 A 
ATOM     24  N   UNL     1       3.161  -2.587   1.567  0.00  0.00    -0.115 NA
ATOM     25  N   UNL     1       3.301  -3.097   2.743  0.00  0.00    -0.023 NA
ATOM     26  N   UNL     1       2.151  -3.462   3.190  0.00  0.00    -0.044 NA
ATOM     27  N   UNL     1       1.253  -3.185   2.305  0.00  0.00    -0.226 N 
BRANCH  27  28
ATOM     28  C   UNL     1      -0.186  -3.433   2.419  0.00  0.00    +0.182 C 
BRANCH  28  29
ATOM     29  C   UNL     1      -0.503  -4.805   1.881  0.00  0.00    -0.026 A 
ATOM     30  C   UNL     1      -0.820  -4.967   0.545  0.00  0.00    +0.008 A 
ATOM     31  C   UNL     1      -1.107  -6.225   0.050  0.00  0.00    +0.038 A 
ATOM     32  C   UNL     1      -1.086  -7.322   0.895  0.00  0.00    +0.123 A 
ATOM     33  C   UNL     1      -0.773  -7.158   2.234  0.00  0.00    +0.038 A 
ATOM     34  C   UNL     1      -0.482  -5.899   2.725  0.00  0.00    +0.008 A 
ATOM     35  F   UNL     1      -1.370  -8.552   0.413  0.00  0.00    -0.205 F 
ENDBRANCH  28  29
ENDBRANCH  27  28
ENDBRANCH   1  23
TORSDOF 5
