REMARK  Name = ZINC47873292
REMARK  7 active torsions:
REMARK  status: ('A' for Active; 'I' for Inactive)
REMARK    1  A    between atoms: C_1  and  C_2
REMARK    2  A    between atoms: C_2  and  C_3
REMARK    3  A    between atoms: C_2  and  C_4
REMARK    4  A    between atoms: C_4  and  C_6
REMARK    5  A    between atoms: C_4  and  N_12
REMARK    6  A    between atoms: N_12  and  C_13
REMARK    7  A    between atoms: C_16  and  N_20
REMARK                            x       y       z     vdW  Elec       q    Type
REMARK                         _______ _______ _______ _____ _____    ______ ____
ROOT
ATOM      1  N   UNL     1       0.762  -1.976   1.234  0.00  0.00    -0.335 N 
ATOM      2  H   UNL     1       1.526  -2.448   0.869  0.00  0.00    +0.147 HD
ENDROOT
BRANCH   1   3
ATOM      3  C   UNL     1      -0.321  -2.693   1.752  0.00  0.00    +0.063 A 
ATOM      4  C   UNL     1      -1.419  -2.018   2.269  0.00  0.00    +0.028 A 
ATOM      5  C   UNL     1      -2.487  -2.729   2.780  0.00  0.00    +0.035 A 
ATOM      6  C   UNL     1      -2.466  -4.111   2.777  0.00  0.00    +0.129 A 
ATOM      7  C   UNL     1      -1.375  -4.788   2.263  0.00  0.00    +0.073 A 
ATOM      8  C   UNL     1      -0.304  -4.083   1.745  0.00  0.00    +0.146 A 
ATOM      9  F   UNL     1       0.759  -4.744   1.238  0.00  0.00    -0.203 F 
BRANCH   6  10
ATOM     10  N   UNL     1      -3.613  -4.869   3.326  0.00  0.00    +0.057 N 
ATOM     11  O   UNL     1      -4.567  -4.278   3.776  0.00  0.00    -0.126 OA
ATOM     12  O   UNL     1      -3.596  -6.077   3.324  0.00  0.00    -0.126 OA
ENDBRANCH   6  10
ENDBRANCH   1   3
BRANCH   1  13
ATOM     13  C   UNL     1       0.742  -0.511   1.242  0.00  0.00    +0.103 C 
BRANCH  13  14
ATOM     14  C   UNL     1       2.156   0.011   1.231  0.00  0.00    -0.027 A 
ATOM     15  C   UNL     1       3.113  -0.603   0.445  0.00  0.00    +0.005 A 
ATOM     16  C   UNL     1       4.410  -0.124   0.435  0.00  0.00    +0.000 A 
ATOM     17  C   UNL     1       4.750   0.968   1.211  0.00  0.00    +0.000 A 
ATOM     18  C   UNL     1       3.792   1.582   1.996  0.00  0.00    +0.000 A 
ATOM     19  C   UNL     1       2.494   1.106   2.003  0.00  0.00    +0.005 A 
ENDBRANCH  13  14
BRANCH  13  21
ATOM     20  C   UNL     1      -0.019   1.526   0.010  0.00  0.00    +0.009 C 
ATOM     21  C   UNL     1       0.002  -0.004   0.002  0.00  0.00    +0.007 C 
ATOM     22  C   UNL     1       0.718  -0.497  -1.257  0.00  0.00    +0.009 C 
ENDBRANCH  13  21
ENDBRANCH   1  13
TORSDOF 5
