REMARK  Name = ZINC08993705
REMARK  5 active torsions:
REMARK  status: ('A' for Active; 'I' for Inactive)
REMARK    1  A    between atoms: C_1  and  C_2
REMARK    2  A    between atoms: C_8  and  N_10
REMARK    3  A    between atoms: C_11  and  C_13
REMARK    4  A    between atoms: C_13  and  C_14
REMARK    5  A    between atoms: C_20  and  C_22
REMARK                            x       y       z     vdW  Elec       q    Type
REMARK                         _______ _______ _______ _____ _____    ______ ____
ROOT
ATOM      1  C   UNL     1       1.019   1.955   0.003  0.00  0.00    +0.059 A 
ATOM      2  C   UNL     1      -0.013   1.076   0.008  0.00  0.00    +0.072 A 
ATOM      3  S   UNL     1      -1.404   2.197   0.019  0.00  0.00    -0.060 S 
ATOM      4  C   UNL     1      -0.499   3.679   0.027  0.00  0.00    +0.165 A 
ATOM      5  N   UNL     1       0.746   3.245   0.012  0.00  0.00    -0.229 NA
ATOM      6  N   UNL     1      -0.967   4.987   0.038  0.00  0.00    -0.260 N 
ATOM      7  C   UNL     1      -2.293   5.228   0.052  0.00  0.00    +0.256 C 
ATOM      8  O   UNL     1      -3.080   4.300   0.055  0.00  0.00    -0.269 OA
ATOM      9  H   UNL     1      -0.340   5.727   0.035  0.00  0.00    +0.157 HD
ENDROOT
BRANCH   7  10
ATOM     10  C   UNL     1      -2.787   6.608   0.064  0.00  0.00    +0.074 A 
ATOM     11  C   UNL     1      -4.094   7.068   0.079  0.00  0.00    +0.021 A 
ATOM     12  C   UNL     1      -4.278   8.428   0.087  0.00  0.00    +0.008 A 
ATOM     13  C   UNL     1      -3.192   9.245   0.081  0.00  0.00    +0.046 A 
ATOM     14  S   UNL     1      -1.861   8.133   0.070  0.00  0.00    -0.092 S 
ENDBRANCH   7  10
BRANCH   1  15
ATOM     15  C   UNL     1       2.446   1.469  -0.013  0.00  0.00    +0.151 C 
BRANCH  15  17
ATOM     16  N   UNL     1       4.471   1.792  -1.396  0.00  0.00    -0.312 N 
ATOM     17  C   UNL     1       3.173   2.084  -1.181  0.00  0.00    +0.219 C 
ATOM     18  O   UNL     1       2.591   2.843  -1.926  0.00  0.00    -0.275 OA
ATOM     19  H   UNL     1       4.937   1.185  -0.799  0.00  0.00    +0.149 HD
BRANCH  16  26
ATOM     20  C   UNL     1       5.821   0.112  -3.331  0.00  0.00    +0.009 C 
ATOM     21  C   UNL     1       6.349   1.492  -2.933  0.00  0.00    +0.006 C 
ATOM     22  C   UNL     1       7.088   2.116  -4.118  0.00  0.00    +0.005 C 
ATOM     23  C   UNL     1       7.617   3.496  -3.720  0.00  0.00    +0.000 C 
ATOM     24  C   UNL     1       6.445   4.394  -3.318  0.00  0.00    +0.002 C 
ATOM     25  C   UNL     1       5.707   3.769  -2.133  0.00  0.00    +0.022 C 
ATOM     26  C   UNL     1       5.178   2.390  -2.531  0.00  0.00    +0.076 C 
ENDBRANCH  16  26
ENDBRANCH  15  17
ENDBRANCH   1  15
TORSDOF 4
