REMARK  Name = ZINC63824278
REMARK  8 active torsions:
REMARK  status: ('A' for Active; 'I' for Inactive)
REMARK    1  A    between atoms: C_1  and  C_2
REMARK    2  A    between atoms: C_2  and  C_4
REMARK    3  A    between atoms: C_2  and  N_11
REMARK    4  A    between atoms: C_4  and  C_5
REMARK    5  A    between atoms: N_11  and  C_12
REMARK    6  A    between atoms: C_12  and  C_13
REMARK    7  A    between atoms: C_19  and  C_21
REMARK    8  A    between atoms: C_21  and  C_22
REMARK                            x       y       z     vdW  Elec       q    Type
REMARK                         _______ _______ _______ _____ _____    ______ ____
ROOT
ATOM      1  N   UNL     1      -1.148  -0.497  -0.073  0.00  0.00    -0.294 N 
ATOM      2  C   UNL     1      -1.668  -1.293   0.882  0.00  0.00    +0.220 C 
ATOM      3  O   UNL     1      -1.050  -1.497   1.905  0.00  0.00    -0.275 OA
ENDROOT
BRANCH   1   5
ATOM      4  C   UNL     1       0.163   1.545   0.232  0.00  0.00    +0.028 C 
ATOM      5  C   UNL     1       0.213   0.024   0.070  0.00  0.00    +0.074 C 
BRANCH   5   6
ATOM      6  C   UNL     1       1.028  -0.328  -1.177  0.00  0.00    +0.037 C 
BRANCH   6   7
ATOM      7  C   UNL     1       1.224  -1.844  -1.246  0.00  0.00    +0.056 C 
ATOM      8  C   UNL     1       1.977  -2.263  -2.536  0.00  0.00    +0.042 C 
ATOM      9  C   UNL     1       1.413  -3.531  -3.091  0.00  0.00    -0.019 C 
ATOM     10  C   UNL     1       0.215  -3.935  -2.716  0.00  0.00    +0.036 C 
ATOM     11  S   UNL     1      -0.369  -2.719  -1.548  0.00  0.00    -0.130 S 
ENDBRANCH   6   7
ENDBRANCH   5   6
ENDBRANCH   1   5
BRANCH   1  12
ATOM     12  C   UNL     1      -1.944  -0.153  -1.254  0.00  0.00    +0.143 C 
BRANCH  12  13
ATOM     13  C   UNL     1      -2.609   1.183  -1.039  0.00  0.00    -0.030 A 
ATOM     14  C   UNL     1      -3.785   1.261  -0.317  0.00  0.00    +0.005 A 
ATOM     15  C   UNL     1      -4.395   2.486  -0.120  0.00  0.00    +0.000 A 
ATOM     16  C   UNL     1      -3.829   3.633  -0.646  0.00  0.00    +0.000 A 
ATOM     17  C   UNL     1      -2.652   3.554  -1.367  0.00  0.00    +0.000 A 
ATOM     18  C   UNL     1      -2.040   2.330  -1.560  0.00  0.00    +0.005 A 
ENDBRANCH  12  13
ENDBRANCH   1  12
BRANCH   2  19
ATOM     19  C   UNL     1      -3.019  -1.930   0.679  0.00  0.00    +0.129 C 
BRANCH  19  20
ATOM     20  C   UNL     1      -3.417  -2.673   1.928  0.00  0.00    -0.033 C 
ATOM     21  C   UNL     1      -4.193  -2.212   2.935  0.00  0.00    -0.001 A 
ATOM     22  C   UNL     1      -4.872  -0.931   3.161  0.00  0.00    +0.010 A 
ATOM     23  C   UNL     1      -5.594  -0.761   4.293  0.00  0.00    +0.001 A 
ATOM     24  C   UNL     1      -5.709  -1.776   5.252  0.00  0.00    +0.002 A 
ATOM     25  C   UNL     1      -5.115  -2.980   5.115  0.00  0.00    +0.026 A 
ATOM     26  C   UNL     1      -4.331  -3.268   3.964  0.00  0.00    +0.043 A 
ATOM     27  N   UNL     1      -3.666  -4.340   3.606  0.00  0.00    -0.380 N 
ATOM     28  C   UNL     1      -3.035  -4.087   2.306  0.00  0.00    +0.145 C 
ATOM     29  H   UNL     1      -3.604  -5.164   4.114  0.00  0.00    +0.160 HD
ENDBRANCH  19  20
ENDBRANCH   2  19
TORSDOF 7
