REMARK  Name = ZINC64380663
REMARK  2 active torsions:
REMARK  status: ('A' for Active; 'I' for Inactive)
REMARK    1  A    between atoms: C_1  and  N_2
REMARK    2  A    between atoms: C_5  and  C_11
REMARK                            x       y       z     vdW  Elec       q    Type
REMARK                         _______ _______ _______ _____ _____    ______ ____
ROOT
ATOM      1  C   UNL     1      -1.702   4.835  -2.770  0.00  0.00    -0.003 C 
ATOM      2  C   UNL     1      -2.568   5.449  -1.668  0.00  0.00    +0.097 C 
ATOM      3  C   UNL     1      -2.557   6.954  -1.908  0.00  0.00    -0.041 C 
ATOM      4  C   UNL     1      -3.825   7.334  -1.966  0.00  0.00    -0.001 A 
ATOM      5  C   UNL     1      -4.449   8.662  -2.088  0.00  0.00    +0.010 A 
ATOM      6  C   UNL     1      -5.807   8.685  -2.134  0.00  0.00    +0.001 A 
ATOM      7  C   UNL     1      -6.599   7.534  -2.071  0.00  0.00    +0.002 A 
ATOM      8  C   UNL     1      -6.111   6.274  -1.952  0.00  0.00    +0.026 A 
ATOM      9  C   UNL     1      -4.696   6.121  -1.889  0.00  0.00    +0.043 A 
ATOM     10  N   UNL     1      -3.966   5.031  -1.747  0.00  0.00    -0.379 N 
ATOM     11  C   UNL     1      -1.267   7.708  -2.125  0.00  0.00    +0.014 C 
ATOM     12  C   UNL     1      -0.465   6.894  -3.157  0.00  0.00    -0.077 C 
ATOM     13  N   UNL     1      -0.385   5.491  -2.746  0.00  0.00    +0.386 N 
ATOM     14  H   UNL     1      -0.013   5.444  -1.809  0.00  0.00    -0.085 HD
ATOM     15  H   UNL     1      -4.289   4.117  -1.708  0.00  0.00    +0.160 HD
ATOM     16  H   UNL     1       0.237   5.000  -3.370  0.00  0.00    -0.085 HD
ENDROOT
BRANCH   1  21
ATOM     17  C   UNL     1      -0.013   1.086   0.008  0.00  0.00    +0.154 C 
ATOM     18  N   UNL     1      -0.721   1.571  -1.179  0.00  0.00    -0.291 N 
ATOM     19  C   UNL     1      -0.857   2.897  -1.382  0.00  0.00    +0.260 A 
ATOM     20  O   UNL     1      -0.392   3.691  -0.582  0.00  0.00    -0.267 OA
ATOM     21  C   UNL     1      -1.538   3.357  -2.523  0.00  0.00    +0.070 A 
ATOM     22  C   UNL     1      -2.048   2.449  -3.402  0.00  0.00    +0.257 A 
ATOM     23  N   UNL     1      -1.887   1.109  -3.157  0.00  0.00    -0.302 N 
ATOM     24  C   UNL     1      -1.227   0.690  -2.061  0.00  0.00    +0.163 A 
ATOM     25  S   UNL     1      -1.034  -0.988  -1.782  0.00  0.00    -0.013 S 
ATOM     26  O   UNL     1      -2.706   2.864  -4.505  0.00  0.00    -0.267 OA
ATOM     27  H   UNL     1      -2.249   0.459  -3.779  0.00  0.00    +0.171 HD
ENDBRANCH   1  21
TORSDOF 1
