REMARK  Name = ZINC39672916
REMARK  5 active torsions:
REMARK  status: ('A' for Active; 'I' for Inactive)
REMARK    1  A    between atoms: C_4  and  C_8
REMARK    2  A    between atoms: C_12  and  C_21
REMARK    3  A    between atoms: N_23  and  C_24
REMARK    4  A    between atoms: C_24  and  C_25
REMARK    5  A    between atoms: C_25  and  N_31
REMARK                            x       y       z     vdW  Elec       q    Type
REMARK                         _______ _______ _______ _____ _____    ______ ____
ROOT
ATOM      1  C   UNL     1       4.212  -0.829  -0.090  0.00  0.00    +0.249 C 
ATOM      2  O   UNL     1       5.299  -0.287  -0.136  0.00  0.00    -0.270 OA
ATOM      3  N   UNL     1       4.132  -2.169   0.034  0.00  0.00    -0.296 N 
ATOM      4  C   UNL     1       2.914  -3.013   0.006  0.00  0.00    +0.121 C 
ATOM      5  C   UNL     1       3.329  -4.271  -0.789  0.00  0.00    +0.100 C 
ATOM      6  C   UNL     1       4.858  -4.344  -0.638  0.00  0.00    -0.004 C 
ATOM      7  C   UNL     1       5.244  -3.132   0.222  0.00  0.00    +0.115 C 
ATOM      8  C   UNL     1       5.258  -5.639   0.062  0.00  0.00    -0.010 C 
ATOM      9  C   UNL     1       6.785  -5.717   0.149  0.00  0.00    -0.082 C 
ATOM     10  N   UNL     1       7.356  -5.671  -1.203  0.00  0.00    +0.379 N 
ATOM     11  C   UNL     1       7.045  -4.383  -1.835  0.00  0.00    -0.082 C 
ATOM     12  C   UNL     1       5.529  -4.250  -2.005  0.00  0.00    -0.010 C 
ATOM     13  H   UNL     1       8.357  -5.783  -1.147  0.00  0.00    -0.086 HD
ATOM     14  H   UNL     1       6.967  -6.419  -1.756  0.00  0.00    -0.086 HD
ENDROOT
BRANCH   1  18
ATOM     15  C   UNL     1       0.665   1.498  -0.319  0.00  0.00    +0.023 A 
ATOM     16  C   UNL     1       1.824   1.953  -0.919  0.00  0.00    +0.040 A 
ATOM     17  C   UNL     1       2.983   1.202  -0.849  0.00  0.00    +0.136 A 
ATOM     18  C   UNL     1       2.979  -0.020  -0.169  0.00  0.00    +0.073 A 
ATOM     19  C   UNL     1       1.804  -0.472   0.435  0.00  0.00    +0.036 A 
ATOM     20  C   UNL     1       0.655   0.289   0.356  0.00  0.00    +0.042 A 
ATOM     21 CL   UNL     1      -0.807  -0.272   1.106  0.00  0.00    -0.084 Cl
ATOM     22  F   UNL     1       4.115   1.646  -1.437  0.00  0.00    -0.205 F 
ENDBRANCH   1  18
BRANCH   5  23
ATOM     23  C   UNL     1       2.682  -5.499  -0.203  0.00  0.00    +0.218 C 
ATOM     24  O   UNL     1       2.351  -5.512   0.963  0.00  0.00    -0.275 OA
ATOM     25  N   UNL     1       2.470  -6.583  -0.976  0.00  0.00    -0.313 N 
ATOM     26  H   UNL     1       2.735  -6.573  -1.909  0.00  0.00    +0.149 HD
BRANCH  25  27
ATOM     27  C   UNL     1       1.841  -7.777  -0.406  0.00  0.00    +0.126 C 
BRANCH  27  28
ATOM     28  C   UNL     1       1.606  -8.807  -1.513  0.00  0.00    +0.038 C 
ATOM     29  C   UNL     1       0.838 -10.001  -0.944  0.00  0.00    +0.024 C 
ATOM     30  C   UNL     1       1.650 -10.640   0.184  0.00  0.00    +0.002 C 
ATOM     31  C   UNL     1       2.997 -11.116  -0.365  0.00  0.00    +0.000 C 
ATOM     32  C   UNL     1       3.766  -9.922  -0.934  0.00  0.00    +0.002 C 
ATOM     33  C   UNL     1       2.953  -9.283  -2.062  0.00  0.00    +0.024 C 
BRANCH  28  34
ATOM     34  N   UNL     1       0.826  -8.193  -2.595  0.00  0.00    -0.291 NA
ATOM     35  C   UNL     1      -0.394  -7.561  -2.073  0.00  0.00    +0.113 C 
ATOM     36  C   UNL     1      -1.145  -6.884  -3.222  0.00  0.00    +0.175 C 
ATOM     37  O   UNL     1      -1.429  -7.853  -4.236  0.00  0.00    -0.377 OA
ATOM     38  C   UNL     1      -0.263  -8.488  -4.768  0.00  0.00    +0.175 C 
ATOM     39  C   UNL     1       0.497  -9.181  -3.634  0.00  0.00    +0.113 C 
ENDBRANCH  28  34
ENDBRANCH  27  28
ENDBRANCH  25  27
ENDBRANCH   5  23
TORSDOF 5
