REMARK  Name = ZINC39698802
REMARK  5 active torsions:
REMARK  status: ('A' for Active; 'I' for Inactive)
REMARK    1  A    between atoms: C_4  and  C_7
REMARK    2  A    between atoms: C_17  and  C_19
REMARK    3  A    between atoms: C_19  and  N_20
REMARK    4  A    between atoms: N_20  and  S_21
REMARK    5  A    between atoms: S_21  and  C_24
REMARK                            x       y       z     vdW  Elec       q    Type
REMARK                         _______ _______ _______ _____ _____    ______ ____
ROOT
ATOM      1  C   UNL     1       3.710  -0.651  -0.080  0.00  0.00    -0.018 C 
ATOM      2  C   UNL     1       4.951  -0.017  -0.181  0.00  0.00    +0.002 A 
ATOM      3  C   UNL     1       5.035   1.385  -0.313  0.00  0.00    +0.030 A 
ATOM      4  C   UNL     1       6.257   1.978  -0.409  0.00  0.00    +0.042 A 
ATOM      5  C   UNL     1       7.431   1.226  -0.378  0.00  0.00    +0.022 A 
ATOM      6  C   UNL     1       7.412  -0.130  -0.253  0.00  0.00    +0.025 A 
ATOM      7  C   UNL     1       6.186  -0.809  -0.148  0.00  0.00    +0.041 A 
ATOM      8  N   UNL     1       6.170  -2.140  -0.024  0.00  0.00    -0.284 N 
ATOM      9  C   UNL     1       5.063  -2.850   0.078  0.00  0.00    +0.226 C 
ATOM     10  O   UNL     1       5.125  -4.060   0.188  0.00  0.00    -0.275 OA
ATOM     11  C   UNL     1       3.718  -2.161   0.066  0.00  0.00    +0.122 C 
ATOM     12 CL   UNL     1       6.356   3.703  -0.573  0.00  0.00    -0.084 Cl
ATOM     13  H   UNL     1       7.019  -2.610  -0.009  0.00  0.00    +0.155 HD
ENDROOT
BRANCH   1  17
ATOM     14  C   UNL     1       0.128   1.520  -0.163  0.00  0.00    +0.000 A 
ATOM     15  C   UNL     1       0.949   1.506  -1.278  0.00  0.00    +0.001 A 
ATOM     16  C   UNL     1       2.128   0.795  -1.261  0.00  0.00    +0.008 A 
ATOM     17  C   UNL     1       2.498   0.084  -0.108  0.00  0.00    -0.020 A 
ATOM     18  C   UNL     1       1.658   0.106   1.018  0.00  0.00    +0.008 A 
ATOM     19  C   UNL     1       0.482   0.822   0.980  0.00  0.00    +0.001 A 
ENDBRANCH   1  17
BRANCH  11  20
ATOM     20  C   UNL     1       2.905  -2.749  -1.089  0.00  0.00    +0.123 C 
BRANCH  20  21
ATOM     21  N   UNL     1       2.748  -4.192  -0.890  0.00  0.00    -0.189 NA
ATOM     22  H   UNL     1       3.306  -4.657  -0.247  0.00  0.00    +0.148 HD
BRANCH  21  23
ATOM     23  S   UNL     1       1.618  -5.030  -1.764  0.00  0.00    +0.058 S 
ATOM     24  O   UNL     1       1.728  -6.391  -1.370  0.00  0.00    -0.153 OA
ATOM     25  O   UNL     1       0.402  -4.302  -1.660  0.00  0.00    -0.153 OA
BRANCH  23  26
ATOM     26  C   UNL     1       2.107  -4.954  -3.455  0.00  0.00    +0.105 A 
ATOM     27  C   UNL     1       1.666  -3.918  -4.257  0.00  0.00    +0.028 A 
ATOM     28  C   UNL     1       2.049  -3.858  -5.583  0.00  0.00    +0.002 A 
ATOM     29  C   UNL     1       2.873  -4.836  -6.109  0.00  0.00    +0.000 A 
ATOM     30  C   UNL     1       3.315  -5.872  -5.308  0.00  0.00    +0.002 A 
ATOM     31  C   UNL     1       2.935  -5.929  -3.980  0.00  0.00    +0.028 A 
ENDBRANCH  23  26
ENDBRANCH  21  23
ENDBRANCH  20  21
ENDBRANCH  11  20
TORSDOF 5
