REMARK  Name = ZINC01722980
REMARK  2 active torsions:
REMARK  status: ('A' for Active; 'I' for Inactive)
REMARK    1  A    between atoms: C_1  and  O_2
REMARK    2  A    between atoms: O_2  and  N_3
REMARK                            x       y       z     vdW  Elec       q    Type
REMARK                         _______ _______ _______ _____ _____    ______ ____
ROOT
ATOM      1  N   UNL     1      -0.738   3.492   0.026  0.00  0.00    -0.163 N 
ATOM      2  C   UNL     1       0.602   3.539   0.015  0.00  0.00    +0.253 C 
ATOM      3  O   UNL     1       1.261   4.557   0.015  0.00  0.00    -0.272 OA
ATOM      4  C   UNL     1       1.169   2.144   0.002  0.00  0.00    +0.109 C 
ATOM      5  C   UNL     1       2.003   1.922  -1.259  0.00  0.00    +0.024 C 
ATOM      6  C   UNL     1       2.541   0.489  -1.268  0.00  0.00    +0.001 C 
ATOM      7  C   UNL     1       3.406   0.263  -0.027  0.00  0.00    +0.000 C 
ATOM      8  C   UNL     1       2.563   0.477   1.232  0.00  0.00    +0.001 C 
ATOM      9  C   UNL     1       2.025   1.910   1.246  0.00  0.00    +0.024 C 
ATOM     10  C   UNL     1      -0.014   1.203   0.009  0.00  0.00    +0.178 C 
ATOM     11  O   UNL     1       0.002  -0.004   0.002  0.00  0.00    -0.294 OA
ATOM     12  C   UNL     1      -1.224   2.113   0.018  0.00  0.00    +0.141 C 
ATOM     13  C   UNL     1      -2.046   1.848   1.283  0.00  0.00    +0.041 C 
ATOM     14  C   UNL     1      -2.719   0.476   1.142  0.00  0.00    +0.007 C 
ATOM     15  C   UNL     1      -3.761   0.561   0.025  0.00  0.00    +0.027 C 
ATOM     16  C   UNL     1      -3.158   1.179  -1.202  0.00  0.00    -0.028 C 
ATOM     17  C   UNL     1      -2.056   1.859  -1.205  0.00  0.00    +0.004 C 
ENDROOT
BRANCH   1  19
ATOM     18  C   UNL     1      -1.930   5.106  -1.264  0.00  0.00    +0.227 C 
ATOM     19  O   UNL     1      -1.576   4.633   0.037  0.00  0.00    -0.279 OA
ENDBRANCH   1  19
TORSDOF 1
