REMARK  Name = ZINC36502224
REMARK  15 active torsions:
REMARK  status: ('A' for Active; 'I' for Inactive)
REMARK    1  A    between atoms: C_1  and  C_2
REMARK    2  A    between atoms: C_2  and  C_4
REMARK    3  A    between atoms: C_2  and  C_10
REMARK    4  A    between atoms: C_10  and  C_12
REMARK    5  A    between atoms: C_10  and  N_19
REMARK    6  A    between atoms: N_14  and  C_15
REMARK    7  A    between atoms: C_15  and  C_16
REMARK    8  A    between atoms: C_15  and  C_17
REMARK    9  A    between atoms: C_15  and  C_18
REMARK   10  A    between atoms: N_19  and  C_20
REMARK   11  A    between atoms: C_20  and  C_21
REMARK   12  A    between atoms: C_26  and  C_28
REMARK   13  A    between atoms: C_28  and  C_29
REMARK   14  A    between atoms: C_28  and  C_35
REMARK   15  A    between atoms: C_28  and  O_41
REMARK                            x       y       z     vdW  Elec       q    Type
REMARK                         _______ _______ _______ _____ _____    ______ ____
ROOT
ATOM      1  N   UNL     1       3.665  -0.970  -2.293  0.00  0.00    -0.279 N 
ATOM      2  C   UNL     1       4.063  -2.021  -1.549  0.00  0.00    +0.258 C 
ATOM      3  O   UNL     1       3.427  -3.054  -1.569  0.00  0.00    -0.272 OA
ENDROOT
BRANCH   1   4
ATOM      4  C   UNL     1       2.405  -1.035  -3.037  0.00  0.00    +0.169 C 
BRANCH   4   5
ATOM      5  C   UNL     1       2.691  -1.356  -4.482  0.00  0.00    +0.235 C 
ATOM      6  O   UNL     1       3.822  -1.272  -4.909  0.00  0.00    -0.274 OA
ATOM      7  N   UNL     1       1.688  -1.737  -5.298  0.00  0.00    -0.309 N 
ATOM      8  H   UNL     1       0.773  -1.736  -4.976  0.00  0.00    +0.149 HD
BRANCH   7   9
ATOM      9  C   UNL     1       1.981  -2.151  -6.673  0.00  0.00    +0.026 C 
ATOM     10  C   UNL     1       2.923  -3.357  -6.652  0.00  0.00    +0.031 C 
ATOM     11  C   UNL     1       0.678  -2.534  -7.378  0.00  0.00    +0.031 C 
ATOM     12  C   UNL     1       2.647  -0.996  -7.423  0.00  0.00    +0.031 C 
ENDBRANCH   7   9
ENDBRANCH   4   5
BRANCH   4  14
ATOM     13  C   UNL     1       0.370   0.244  -3.720  0.00  0.00    +0.015 C 
ATOM     14  C   UNL     1       1.689   0.314  -2.947  0.00  0.00    +0.045 C 
BRANCH  14  15
ATOM     15  C   UNL     1       1.407   0.637  -1.502  0.00  0.00    -0.042 A 
ATOM     16  C   UNL     1       0.692  -0.251  -0.722  0.00  0.00    +0.004 A 
ATOM     17  C   UNL     1       0.433   0.045   0.604  0.00  0.00    +0.000 A 
ATOM     18  C   UNL     1       0.891   1.231   1.149  0.00  0.00    +0.000 A 
ATOM     19  C   UNL     1       1.608   2.119   0.368  0.00  0.00    +0.000 A 
ATOM     20  C   UNL     1       1.869   1.820  -0.956  0.00  0.00    +0.004 A 
ENDBRANCH  14  15
ENDBRANCH   4  14
ENDBRANCH   1   4
BRANCH   1  21
ATOM     21  C   UNL     1       4.492   0.237  -2.357  0.00  0.00    +0.182 C 
BRANCH  21  22
ATOM     22  C   UNL     1       5.344   0.197  -3.600  0.00  0.00    +0.122 A 
ATOM     23  C   UNL     1       5.064   0.807  -4.765  0.00  0.00    +0.046 A 
ATOM     24  C   UNL     1       6.125   0.505  -5.650  0.00  0.00    +0.041 A 
ATOM     25  C   UNL     1       6.989  -0.271  -4.972  0.00  0.00    +0.195 A 
ATOM     26  O   UNL     1       6.514  -0.450  -3.729  0.00  0.00    -0.466 OA
ENDBRANCH  21  22
ENDBRANCH   1  21
BRANCH   2  27
ATOM     27  C   UNL     1       5.298  -1.913  -0.692  0.00  0.00    +0.192 C 
BRANCH  27  28
ATOM     28  C   UNL     1       4.991  -1.083   0.529  0.00  0.00    -0.003 A 
ATOM     29  C   UNL     1       3.755  -1.183   1.140  0.00  0.00    +0.007 A 
ATOM     30  C   UNL     1       3.474  -0.423   2.259  0.00  0.00    +0.000 A 
ATOM     31  C   UNL     1       4.428   0.438   2.768  0.00  0.00    +0.000 A 
ATOM     32  C   UNL     1       5.665   0.537   2.158  0.00  0.00    +0.000 A 
ATOM     33  C   UNL     1       5.948  -0.227   1.041  0.00  0.00    +0.007 A 
ENDBRANCH  27  28
BRANCH  27  34
ATOM     34  C   UNL     1       5.736  -3.290  -0.266  0.00  0.00    -0.003 A 
ATOM     35  C   UNL     1       4.849  -4.127   0.385  0.00  0.00    +0.007 A 
ATOM     36  C   UNL     1       5.251  -5.391   0.776  0.00  0.00    +0.000 A 
ATOM     37  C   UNL     1       6.540  -5.817   0.515  0.00  0.00    +0.000 A 
ATOM     38  C   UNL     1       7.426  -4.981  -0.136  0.00  0.00    +0.000 A 
ATOM     39  C   UNL     1       7.023  -3.719  -0.531  0.00  0.00    +0.007 A 
ENDBRANCH  27  34
BRANCH  27  40
ATOM     40  O   UNL     1       6.344  -1.290  -1.440  0.00  0.00    -0.371 OA
ATOM     41  H   UNL     1       6.594  -1.770  -2.241  0.00  0.00    +0.212 HD
ENDBRANCH  27  40
ENDBRANCH   2  27
TORSDOF 11
