REMARK  Name = ZINC02119067
REMARK  4 active torsions:
REMARK  status: ('A' for Active; 'I' for Inactive)
REMARK    1  A    between atoms: C_7  and  C_10
REMARK    2  A    between atoms: C_10  and  C_11
REMARK    3  A    between atoms: C_11  and  N_12
REMARK    4  A    between atoms: C_13  and  C_14
REMARK                            x       y       z     vdW  Elec       q    Type
REMARK                         _______ _______ _______ _____ _____    ______ ____
ROOT
ATOM      1  C   UNL     1      -4.741   7.405  -1.735  0.00  0.00    +0.076 A 
ATOM      2  C   UNL     1      -3.964   8.481  -2.148  0.00  0.00    +0.028 A 
ATOM      3  C   UNL     1      -4.530   9.777  -2.077  0.00  0.00    +0.019 A 
ATOM      4  C   UNL     1      -3.877  10.874  -2.658  0.00  0.00    +0.017 A 
ATOM      5  C   UNL     1      -4.452  12.113  -2.623  0.00  0.00    -0.025 A 
ATOM      6  C   UNL     1      -5.691  12.302  -2.005  0.00  0.00    +0.040 A 
ATOM      7  C   UNL     1      -6.340  11.231  -1.403  0.00  0.00    +0.017 A 
ATOM      8  C   UNL     1      -5.762   9.970  -1.426  0.00  0.00    +0.144 A 
ATOM      9  O   UNL     1      -6.373   8.932  -0.803  0.00  0.00    -0.421 OA
ATOM     10  C   UNL     1      -6.116   7.693  -1.290  0.00  0.00    +0.346 A 
ATOM     11  O   UNL     1      -6.988   6.847  -1.355  0.00  0.00    -0.244 OA
ATOM     12  C   UNL     1      -7.667  11.397  -0.710  0.00  0.00    +0.042 C 
ATOM     13  C   UNL     1      -7.878  12.856  -0.304  0.00  0.00    +0.024 C 
ATOM     14  C   UNL     1      -7.658  13.737  -1.540  0.00  0.00    +0.105 C 
ATOM     15  N   UNL     1      -6.269  13.568  -1.977  0.00  0.00    -0.329 N 
ATOM     16  C   UNL     1      -5.486  14.743  -2.373  0.00  0.00    +0.105 C 
ATOM     17  C   UNL     1      -4.683  14.381  -3.628  0.00  0.00    +0.024 C 
ATOM     18  C   UNL     1      -3.712  13.255  -3.272  0.00  0.00    +0.038 C 
ENDROOT
BRANCH   1  20
ATOM     19  N   UNL     1      -4.962   5.047  -1.362  0.00  0.00    -0.389 N 
ATOM     20  C   UNL     1      -4.214   6.033  -1.747  0.00  0.00    +0.093 C 
ATOM     21  H   UNL     1      -5.871   5.215  -1.065  0.00  0.00    +0.159 HD
BRANCH  19  22
ATOM     22  C   UNL     1      -4.437   3.680  -1.374  0.00  0.00    +0.117 C 
BRANCH  22  23
ATOM     23  C   UNL     1      -4.358   3.151   0.060  0.00  0.00    +0.058 C 
BRANCH  23  30
ATOM     24  C   UNL     1      -0.017   1.384   0.010  0.00  0.00    +0.001 A 
ATOM     25  C   UNL     1       0.002  -0.004   0.002  0.00  0.00    +0.002 A 
ATOM     26  C   UNL     1      -1.173  -0.723   0.009  0.00  0.00    +0.026 A 
ATOM     27  C   UNL     1      -2.392  -0.053   0.024  0.00  0.00    +0.047 A 
ATOM     28  N   UNL     1      -3.704  -0.472   0.034  0.00  0.00    -0.360 N 
ATOM     29  C   UNL     1      -4.539   0.612   0.047  0.00  0.00    +0.087 A 
ATOM     30  C   UNL     1      -3.818   1.744   0.047  0.00  0.00    -0.021 A 
ATOM     31  C   UNL     1      -2.406   1.353   0.032  0.00  0.00    +0.003 A 
ATOM     32  C   UNL     1      -1.203   2.062   0.030  0.00  0.00    +0.010 A 
ATOM     33  H   UNL     1      -3.993  -1.398   0.030  0.00  0.00    +0.165 HD
ENDBRANCH  23  30
ENDBRANCH  22  23
ENDBRANCH  19  22
ENDBRANCH   1  20
TORSDOF 4
