REMARK  Name = ZINC40013724
REMARK  10 active torsions:
REMARK  status: ('A' for Active; 'I' for Inactive)
REMARK    1  A    between atoms: C_1  and  C_2
REMARK    2  A    between atoms: C_2  and  N_3
REMARK    3  A    between atoms: N_3  and  C_4
REMARK    4  A    between atoms: N_3  and  C_6
REMARK    5  A    between atoms: C_4  and  C_5
REMARK    6  A    between atoms: C_6  and  C_7
REMARK    7  A    between atoms: C_7  and  C_8
REMARK    8  A    between atoms: C_8  and  N_9
REMARK    9  A    between atoms: C_10  and  C_26
REMARK   10  A    between atoms: C_30  and  N_32
REMARK                            x       y       z     vdW  Elec       q    Type
REMARK                         _______ _______ _______ _____ _____    ______ ____
ROOT
ATOM      1  N   UNL     1      -2.831  -3.899  -1.943  0.00  0.00    -0.284 N 
ATOM      2  C   UNL     1      -3.734  -4.222  -0.826  0.00  0.00    +0.145 C 
ATOM      3  C   UNL     1      -5.087  -4.395  -1.434  0.00  0.00    +0.072 A 
ATOM      4  C   UNL     1      -6.381  -4.731  -0.832  0.00  0.00    +0.199 A 
ATOM      5  O   UNL     1      -6.570  -4.759   0.372  0.00  0.00    -0.287 OA
ATOM      6  C   UNL     1      -7.440  -5.033  -1.827  0.00  0.00    +0.067 A 
ATOM      7  C   UNL     1      -8.665  -5.561  -1.417  0.00  0.00    +0.053 A 
ATOM      8  C   UNL     1      -9.635  -5.840  -2.357  0.00  0.00    +0.124 A 
ATOM      9  C   UNL     1      -9.390  -5.596  -3.703  0.00  0.00    +0.042 A 
ATOM     10  C   UNL     1      -8.186  -5.074  -4.117  0.00  0.00    +0.050 A 
ATOM     11  C   UNL     1      -7.190  -4.781  -3.186  0.00  0.00    +0.140 A 
ATOM     12  O   UNL     1      -6.020  -4.258  -3.620  0.00  0.00    -0.450 OA
ATOM     13  C   UNL     1      -4.970  -4.184  -2.779  0.00  0.00    +0.199 A 
ATOM     14  C   UNL     1      -3.561  -3.874  -3.077  0.00  0.00    +0.283 C 
ATOM     15  O   UNL     1      -3.120  -3.633  -4.183  0.00  0.00    -0.267 OA
ATOM     16  F   UNL     1     -10.823  -6.352  -1.968  0.00  0.00    -0.205 F 
ENDROOT
BRANCH   2  17
ATOM     17  C   UNL     1      -3.297  -5.499  -0.156  0.00  0.00    -0.020 A 
ATOM     18  C   UNL     1      -2.840  -6.558  -0.919  0.00  0.00    +0.006 A 
ATOM     19  C   UNL     1      -2.439  -7.729  -0.304  0.00  0.00    +0.003 A 
ATOM     20  C   UNL     1      -2.494  -7.842   1.073  0.00  0.00    +0.033 A 
ATOM     21  C   UNL     1      -2.949  -6.782   1.835  0.00  0.00    +0.127 A 
ATOM     22  C   UNL     1      -3.346  -5.609   1.220  0.00  0.00    +0.038 A 
BRANCH  21  23
ATOM     23  N   UNL     1      -3.008  -6.902   3.309  0.00  0.00    +0.056 N 
ATOM     24  O   UNL     1      -2.658  -7.927   3.846  0.00  0.00    -0.126 OA
ATOM     25  O   UNL     1      -3.406  -5.976   3.976  0.00  0.00    -0.126 OA
ENDBRANCH  21  23
ENDBRANCH   2  17
BRANCH   1  26
ATOM     26  C   UNL     1      -1.392  -3.644  -1.840  0.00  0.00    +0.107 C 
BRANCH  26  27
ATOM     27  C   UNL     1      -1.155  -2.151  -1.603  0.00  0.00    +0.000 C 
BRANCH  27  28
ATOM     28  C   UNL     1       0.348  -1.884  -1.496  0.00  0.00    -0.077 C 
BRANCH  28  29
ATOM     29  N   UNL     1       0.576  -0.451  -1.269  0.00  0.00    +0.379 N 
ATOM     30  H   UNL     1       0.124   0.081  -1.998  0.00  0.00    -0.082 HD
BRANCH  29  32
ATOM     31  C   UNL     1       0.128   1.449   0.210  0.00  0.00    -0.017 C 
ATOM     32  C   UNL     1       0.019  -0.067   0.035  0.00  0.00    -0.082 C 
ENDBRANCH  29  32
BRANCH  29  33
ATOM     33  C   UNL     1       2.019  -0.176  -1.285  0.00  0.00    -0.082 C 
ATOM     34  C   UNL     1       2.573  -0.440  -2.687  0.00  0.00    -0.017 C 
ENDBRANCH  29  33
ENDBRANCH  28  29
ENDBRANCH  27  28
ENDBRANCH  26  27
ENDBRANCH   1  26
TORSDOF 8
