REMARK  Name = ZINC00822548
REMARK  8 active torsions:
REMARK  status: ('A' for Active; 'I' for Inactive)
REMARK    1  A    between atoms: C_1  and  C_2
REMARK    2  A    between atoms: C_5  and  O_9
REMARK    3  A    between atoms: O_9  and  C_10
REMARK    4  A    between atoms: C_10  and  C_11
REMARK    5  A    between atoms: N_13  and  N_14
REMARK    6  A    between atoms: C_15  and  C_16
REMARK    7  A    between atoms: C_18  and  O_24
REMARK    8  A    between atoms: C_19  and  O_23
REMARK                            x       y       z     vdW  Elec       q    Type
REMARK                         _______ _______ _______ _____ _____    ______ ____
ROOT
ATOM      1  C   UNL     1       1.030   3.512   0.011  0.00  0.00    +0.270 C 
ATOM      2  O   UNL     1      -0.097   3.961   0.024  0.00  0.00    -0.270 OA
ATOM      3  N   UNL     1       2.088   4.348   0.005  0.00  0.00    -0.204 N 
ATOM      4  H   UNL     1       2.989   3.989  -0.005  0.00  0.00    +0.177 HD
ENDROOT
BRANCH   3   5
ATOM      5  N   UNL     1       1.885   5.734   0.015  0.00  0.00    -0.188 NA
ATOM      6  C   UNL     1       2.904   6.538   0.009  0.00  0.00    +0.138 C 
BRANCH   6   7
ATOM      7  C   UNL     1       2.691   7.997   0.019  0.00  0.00    -0.001 A 
ATOM      8  C   UNL     1       3.786   8.865   0.019  0.00  0.00    +0.058 A 
ATOM      9  C   UNL     1       3.581  10.232   0.023  0.00  0.00    +0.160 A 
ATOM     10  C   UNL     1       2.285  10.742   0.038  0.00  0.00    +0.173 A 
ATOM     11  C   UNL     1       1.197   9.881   0.044  0.00  0.00    +0.063 A 
ATOM     12  C   UNL     1       1.394   8.515   0.035  0.00  0.00    +0.028 A 
ATOM     13 BR   UNL     1      -0.560  10.581   0.065  0.00  0.00    -0.046 Br
BRANCH  10  14
ATOM     14  O   UNL     1       2.086  12.087   0.048  0.00  0.00    -0.503 OA
ATOM     15  H   UNL     1       2.037  12.471   0.934  0.00  0.00    +0.292 HD
ENDBRANCH  10  14
BRANCH   9  16
ATOM     16  O   UNL     1       4.645  11.079   0.017  0.00  0.00    -0.503 OA
ATOM     17  H   UNL     1       4.962  11.319   0.898  0.00  0.00    +0.292 HD
ENDBRANCH   9  16
ENDBRANCH   6   7
ENDBRANCH   3   5
BRANCH   1  18
ATOM     18  C   UNL     1       1.248   2.021   0.001  0.00  0.00    +0.326 C 
BRANCH  18  19
ATOM     19  O   UNL     1      -0.016   1.355   0.009  0.00  0.00    -0.482 OA
BRANCH  19  24
ATOM     20  C   UNL     1       0.061  -4.278  -0.019  0.00  0.00    +0.044 C 
ATOM     21  C   UNL     1       0.040  -2.771  -0.012  0.00  0.00    -0.049 A 
ATOM     22  C   UNL     1       1.228  -2.064  -0.020  0.00  0.00    +0.007 A 
ATOM     23  C   UNL     1       1.212  -0.682  -0.013  0.00  0.00    +0.047 A 
ATOM     24  C   UNL     1       0.002  -0.004   0.002  0.00  0.00    +0.135 A 
ATOM     25  C   UNL     1      -1.190  -0.716   0.015  0.00  0.00    +0.060 A 
ATOM     26  C   UNL     1      -1.168  -2.098   0.004  0.00  0.00    +0.022 A 
ATOM     27 BR   UNL     1      -2.841   0.205   0.043  0.00  0.00    -0.047 Br
ENDBRANCH  19  24
ENDBRANCH  18  19
ENDBRANCH   1  18
TORSDOF 7
