REMARK  Name = ZINC39687823
REMARK  6 active torsions:
REMARK  status: ('A' for Active; 'I' for Inactive)
REMARK    1  A    between atoms: C_1  and  C_2
REMARK    2  A    between atoms: C_2  and  C_3
REMARK    3  A    between atoms: C_3  and  C_5
REMARK    4  A    between atoms: C_3  and  C_11
REMARK    5  A    between atoms: C_15  and  C_24
REMARK    6  A    between atoms: N_26  and  C_27
REMARK                            x       y       z     vdW  Elec       q    Type
REMARK                         _______ _______ _______ _____ _____    ______ ____
ROOT
ATOM      1  C   UNL     1      -2.265  -0.097  -1.903  0.00  0.00    +0.223 C 
ATOM      2  O   UNL     1      -2.868  -0.731  -2.744  0.00  0.00    -0.275 OA
ATOM      3  N   UNL     1      -2.233   1.249  -1.968  0.00  0.00    -0.300 N 
ATOM      4  C   UNL     1      -1.632   2.191  -0.995  0.00  0.00    +0.121 C 
ATOM      5  C   UNL     1      -0.981   3.289  -1.867  0.00  0.00    +0.100 C 
ATOM      6  C   UNL     1      -1.749   3.239  -3.198  0.00  0.00    -0.004 C 
ATOM      7  C   UNL     1      -2.788   2.121  -3.031  0.00  0.00    +0.115 C 
ATOM      8  C   UNL     1      -0.799   2.902  -4.343  0.00  0.00    -0.010 C 
ATOM      9  C   UNL     1      -1.574   2.915  -5.664  0.00  0.00    -0.082 C 
ATOM     10  N   UNL     1      -2.171   4.240  -5.870  0.00  0.00    +0.379 N 
ATOM     11  C   UNL     1      -3.152   4.517  -4.815  0.00  0.00    -0.082 C 
ATOM     12  C   UNL     1      -2.444   4.572  -3.458  0.00  0.00    -0.010 C 
ATOM     13  H   UNL     1      -1.446   4.941  -5.847  0.00  0.00    -0.086 HD
ATOM     14  H   UNL     1      -2.630   4.264  -6.769  0.00  0.00    -0.086 HD
ENDROOT
BRANCH   5  15
ATOM     15  C   UNL     1       0.478   2.987  -2.088  0.00  0.00    +0.218 C 
ATOM     16  O   UNL     1       0.863   1.837  -2.114  0.00  0.00    -0.275 OA
ATOM     17  N   UNL     1       1.357   3.995  -2.257  0.00  0.00    -0.312 N 
ATOM     18  H   UNL     1       1.064   4.915  -2.163  0.00  0.00    +0.149 HD
BRANCH  17  19
ATOM     19  C   UNL     1       2.754   3.702  -2.584  0.00  0.00    +0.076 C 
ATOM     20  C   UNL     1       3.540   3.461  -1.293  0.00  0.00    +0.041 C 
ATOM     21  C   UNL     1       4.993   3.121  -1.640  0.00  0.00    +0.108 C 
ATOM     22  N   UNL     1       5.539   4.188  -2.489  0.00  0.00    -0.314 N 
ATOM     23  C   UNL     1       4.812   4.562  -3.710  0.00  0.00    +0.108 C 
ATOM     24  C   UNL     1       3.361   4.886  -3.340  0.00  0.00    +0.041 C 
ATOM     25  C   UNL     1       6.722   4.833  -2.144  0.00  0.00    +0.140 A 
ATOM     26  C   UNL     1       7.931   4.384  -2.668  0.00  0.00    +0.081 A 
ATOM     27  C   UNL     1       9.100   5.036  -2.316  0.00  0.00    +0.025 A 
ATOM     28  C   UNL     1       9.020   6.118  -1.448  0.00  0.00    +0.021 A 
ATOM     29  C   UNL     1       7.787   6.509  -0.967  0.00  0.00    +0.113 A 
ATOM     30  N   UNL     1       6.687   5.872  -1.324  0.00  0.00    -0.239 NA
ATOM     31 CL   UNL     1       7.972   3.025  -3.748  0.00  0.00    -0.080 Cl
ENDBRANCH  17  19
ENDBRANCH   5  15
BRANCH   1  32
ATOM     32  C   UNL     1      -1.551  -0.815  -0.787  0.00  0.00    +0.105 C 
BRANCH  32  33
ATOM     33  C   UNL     1      -2.507  -1.042   0.356  0.00  0.00    -0.036 A 
ATOM     34  C   UNL     1      -3.651  -1.793   0.160  0.00  0.00    +0.004 A 
ATOM     35  C   UNL     1      -4.528  -2.002   1.209  0.00  0.00    +0.000 A 
ATOM     36  C   UNL     1      -4.260  -1.460   2.452  0.00  0.00    +0.000 A 
ATOM     37  C   UNL     1      -3.115  -0.711   2.647  0.00  0.00    +0.000 A 
ATOM     38  C   UNL     1      -2.236  -0.505   1.600  0.00  0.00    +0.004 A 
ENDBRANCH  32  33
BRANCH  32  40
ATOM     39  C   UNL     1       0.042  -1.927  -2.358  0.00  0.00    +0.005 C 
ATOM     40  C   UNL     1      -1.034  -2.162  -1.295  0.00  0.00    +0.014 C 
ENDBRANCH  32  40
ENDBRANCH   1  32
TORSDOF 5
