REMARK  Name = ZINC38702278
REMARK  8 active torsions:
REMARK  status: ('A' for Active; 'I' for Inactive)
REMARK    1  A    between atoms: C_1  and  C_2
REMARK    2  A    between atoms: C_4  and  C_10
REMARK    3  A    between atoms: C_5  and  O_9
REMARK    4  A    between atoms: C_7  and  C_8
REMARK    5  A    between atoms: N_18  and  C_29
REMARK    6  A    between atoms: C_19  and  C_21
REMARK    7  A    between atoms: C_24  and  S_27
REMARK    8  A    between atoms: S_27  and  C_28
REMARK                            x       y       z     vdW  Elec       q    Type
REMARK                         _______ _______ _______ _____ _____    ______ ____
ROOT
ATOM      1  C   UNL     1       0.031  -2.814  -2.495  0.00  0.00    +0.102 A 
ATOM      2  C   UNL     1       0.144  -4.199  -2.657  0.00  0.00    +0.035 A 
ATOM      3  C   UNL     1       0.101  -4.423  -4.020  0.00  0.00    +0.126 A 
ATOM      4  N   UNL     1      -0.032  -3.195  -4.602  0.00  0.00    -0.272 N 
ATOM      5  H   UNL     1      -0.090  -3.035  -5.557  0.00  0.00    +0.189 HD
ATOM      6  N   UNL     1      -0.074  -2.283  -3.697  0.00  0.00    -0.173 NA
ATOM      7  C   UNL     1       0.215  -5.866  -4.259  0.00  0.00    +0.266 C 
ATOM      8  O   UNL     1       0.211  -6.390  -5.356  0.00  0.00    -0.268 OA
ATOM      9  N   UNL     1       0.325  -6.527  -3.092  0.00  0.00    -0.280 N 
ATOM     10  C   UNL     1       0.290  -5.545  -2.001  0.00  0.00    +0.142 C 
ENDROOT
BRANCH   1  14
ATOM     11  C   UNL     1      -1.617  -2.323   2.192  0.00  0.00    +0.044 C 
ATOM     12  C   UNL     1      -0.764  -1.838   1.048  0.00  0.00    -0.047 A 
ATOM     13  C   UNL     1      -0.762  -2.526  -0.149  0.00  0.00    +0.017 A 
ATOM     14  C   UNL     1       0.025  -2.078  -1.206  0.00  0.00    +0.044 A 
ATOM     15  C   UNL     1       0.811  -0.932  -1.048  0.00  0.00    +0.126 A 
ATOM     16  C   UNL     1       0.800  -0.251   0.158  0.00  0.00    +0.049 A 
ATOM     17  C   UNL     1       0.010  -0.701   1.200  0.00  0.00    -0.044 A 
ATOM     18  C   UNL     1      -0.004   0.047   2.508  0.00  0.00    +0.044 C 
BRANCH  15  19
ATOM     19  O   UNL     1       1.582  -0.488  -2.075  0.00  0.00    -0.506 OA
ATOM     20  H   UNL     1       1.163   0.196  -2.614  0.00  0.00    +0.292 HD
ENDBRANCH  15  19
ENDBRANCH   1  14
BRANCH   9  21
ATOM     21  C   UNL     1       0.456  -7.978  -2.937  0.00  0.00    +0.100 C 
ATOM     22  C   UNL     1       1.706  -8.469  -3.686  0.00  0.00    +0.047 C 
ATOM     23  C   UNL     1       1.680 -10.012  -3.800  0.00  0.00    +0.168 C 
ATOM     24  S   UNL     1      -0.120 -10.388  -3.786  0.00  0.00    -0.029 S 
ATOM     25  O   UNL     1      -0.421 -11.166  -2.635  0.00  0.00    -0.174 OA
ATOM     26  O   UNL     1      -0.504 -10.862  -5.069  0.00  0.00    -0.174 OA
ATOM     27  C   UNL     1      -0.785  -8.687  -3.550  0.00  0.00    +0.188 C 
ENDBRANCH   9  21
BRANCH  10  28
ATOM     28  C   UNL     1       1.572  -5.600  -1.212  0.00  0.00    -0.022 A 
ATOM     29  C   UNL     1       2.785  -5.693  -1.870  0.00  0.00    +0.007 A 
ATOM     30  C   UNL     1       3.962  -5.745  -1.150  0.00  0.00    +0.015 A 
ATOM     31  C   UNL     1       3.927  -5.702   0.239  0.00  0.00    +0.008 A 
ATOM     32  C   UNL     1       2.707  -5.608   0.897  0.00  0.00    +0.015 A 
ATOM     33  C   UNL     1       1.534  -5.552   0.170  0.00  0.00    +0.007 A 
BRANCH  31  34
ATOM     34  S   UNL     1       5.426  -5.768   1.162  0.00  0.00    -0.129 S 
ATOM     35  C   UNL     1       4.881  -5.684   2.890  0.00  0.00    +0.090 C 
ENDBRANCH  31  34
ENDBRANCH  10  28
TORSDOF 5
