REMARK  Name = ZINC08586469
REMARK  8 active torsions:
REMARK  status: ('A' for Active; 'I' for Inactive)
REMARK    1  A    between atoms: C_1  and  C_2
REMARK    2  A    between atoms: C_2  and  O_29
REMARK    3  A    between atoms: C_3  and  O_28
REMARK    4  A    between atoms: C_5  and  C_26
REMARK    5  A    between atoms: C_8  and  N_10
REMARK    6  A    between atoms: C_18  and  N_19
REMARK    7  A    between atoms: N_19  and  C_20
REMARK    8  A    between atoms: C_26  and  O_27
REMARK                            x       y       z     vdW  Elec       q    Type
REMARK                         _______ _______ _______ _____ _____    ______ ____
ROOT
ATOM      1  N   UNL     1       2.119   5.579   0.012  0.00  0.00    -0.285 N 
ATOM      2  C   UNL     1       0.761   5.704   0.026  0.00  0.00    +0.203 A 
ATOM      3  N   UNL     1       0.207   4.526   0.025  0.00  0.00    -0.231 NA
ATOM      4  C   UNL     1       1.171   3.574   0.010  0.00  0.00    +0.148 A 
ATOM      5  C   UNL     1       2.409   4.238   0.002  0.00  0.00    +0.169 A 
ATOM      6  N   UNL     1       3.527   3.521  -0.013  0.00  0.00    -0.198 NA
ATOM      7  C   UNL     1       3.480   2.204  -0.020  0.00  0.00    +0.226 A 
ATOM      8  N   UNL     1       2.340   1.536  -0.006  0.00  0.00    -0.200 NA
ATOM      9  C   UNL     1       1.171   2.169   0.003  0.00  0.00    +0.151 A 
ATOM     10 CL   UNL     1       4.970   1.313  -0.040  0.00  0.00    -0.041 Cl
ENDROOT
BRANCH   1  16
ATOM     11  C   UNL     1       2.504   6.533   2.462  0.00  0.00    +0.049 C 
ATOM     12  C   UNL     1       3.556   6.987   1.448  0.00  0.00    +0.136 C 
ATOM     13  C   UNL     1       3.704   8.525   1.470  0.00  0.00    +0.181 C 
ATOM     14  C   UNL     1       3.311   8.961   0.042  0.00  0.00    +0.178 C 
ATOM     15  O   UNL     1       2.468   7.896  -0.450  0.00  0.00    -0.345 OA
ATOM     16  C   UNL     1       3.090   6.676   0.008  0.00  0.00    +0.256 C 
BRANCH  13  17
ATOM     17  O   UNL     1       5.056   8.893   1.752  0.00  0.00    -0.386 OA
ATOM     18  H   UNL     1       5.207   9.848   1.778  0.00  0.00    +0.210 HD
ENDBRANCH  13  17
BRANCH  12  19
ATOM     19  O   UNL     1       4.811   6.359   1.715  0.00  0.00    -0.382 OA
ATOM     20  H   UNL     1       5.151   6.521   2.605  0.00  0.00    +0.210 HD
ENDBRANCH  12  19
BRANCH  14  21
ATOM     21  C   UNL     1       2.538  10.281   0.082  0.00  0.00    +0.190 C 
BRANCH  21  22
ATOM     22  O   UNL     1       2.285  10.725  -1.253  0.00  0.00    -0.392 OA
ATOM     23  H   UNL     1       1.797  11.559  -1.304  0.00  0.00    +0.210 HD
ENDBRANCH  21  22
ENDBRANCH  14  21
ENDBRANCH   1  16
BRANCH   9  24
ATOM     24  N   UNL     1      -0.018   1.461   0.010  0.00  0.00    -0.324 N 
ATOM     25  H   UNL     1      -0.537   1.691   0.833  0.00  0.00    +0.148 HD
BRANCH  24  26
ATOM     26  C   UNL     1       0.002  -0.004   0.002  0.00  0.00    +0.072 C 
ATOM     27  C   UNL     1       0.069  -0.524  -1.449  0.00  0.00    +0.022 C 
ATOM     28  C   UNL     1      -0.823  -1.791  -1.439  0.00  0.00    +0.002 C 
ATOM     29  C   UNL     1      -1.984  -1.386  -0.498  0.00  0.00    +0.002 C 
ATOM     30  C   UNL     1      -1.302  -0.552   0.607  0.00  0.00    +0.022 C 
ENDBRANCH  24  26
ENDBRANCH   9  24
TORSDOF 7
