REMARK  Name = ZINC65246838
REMARK  4 active torsions:
REMARK  status: ('A' for Active; 'I' for Inactive)
REMARK    1  A    between atoms: C_1  and  C_2
REMARK    2  A    between atoms: C_12  and  S_14
REMARK    3  A    between atoms: S_14  and  N_17
REMARK    4  A    between atoms: N_17  and  C_18
REMARK                            x       y       z     vdW  Elec       q    Type
REMARK                         _______ _______ _______ _____ _____    ______ ____
ROOT
ATOM      1  C   UNL     1      -0.019   1.526   0.010  0.00  0.00    +0.056 C 
ATOM      2  C   UNL     1       0.002  -0.004   0.002  0.00  0.00    +0.209 C 
ATOM      3  N   UNL     1       0.716  -0.491  -1.187  0.00  0.00    -0.173 NA
ATOM      4  N   UNL     1       1.876  -0.883  -1.175  0.00  0.00    -0.082 NA
ATOM      5  C   UNL     1       2.696  -0.947  -0.111  0.00  0.00    +0.274 C 
ATOM      6  O   UNL     1       3.799  -1.428  -0.218  0.00  0.00    -0.270 OA
ATOM      7  C   UNL     1       2.221  -0.412   1.218  0.00  0.00    +0.170 C 
ATOM      8  N   UNL     1       0.738  -0.503   1.171  0.00  0.00    -0.300 N 
ATOM      9  C   UNL     1       0.286  -1.138   2.298  0.00  0.00    +0.097 C 
ATOM     10  C   UNL     1       1.248  -1.667   3.023  0.00  0.00    +0.099 C 
ATOM     11  C   UNL     1       2.600  -1.352   2.371  0.00  0.00    +0.089 C 
ENDROOT
BRANCH  10  12
ATOM     12  S   UNL     1       1.022  -2.585   4.509  0.00  0.00    +0.056 S 
ATOM     13  O   UNL     1      -0.375  -2.810   4.639  0.00  0.00    -0.153 OA
ATOM     14  O   UNL     1       1.965  -3.647   4.478  0.00  0.00    -0.153 OA
BRANCH  12  15
ATOM     15  N   UNL     1       1.461  -1.599   5.765  0.00  0.00    -0.187 NA
ATOM     16  H   UNL     1       2.228  -1.825   6.314  0.00  0.00    +0.148 HD
BRANCH  15  17
ATOM     17  C   UNL     1       0.691  -0.385   6.047  0.00  0.00    +0.077 C 
ATOM     18  C   UNL     1       1.352   0.810   5.358  0.00  0.00    +0.020 C 
ATOM     19  C   UNL     1       0.548   2.078   5.652  0.00  0.00    +0.002 C 
ATOM     20  C   UNL     1       0.509   2.318   7.162  0.00  0.00    +0.000 C 
ATOM     21  C   UNL     1      -0.152   1.123   7.852  0.00  0.00    +0.002 C 
ATOM     22  C   UNL     1       0.652  -0.145   7.558  0.00  0.00    +0.020 C 
ENDBRANCH  15  17
ENDBRANCH  12  15
ENDBRANCH  10  12
TORSDOF 3
