REMARK  Name = ZINC08385621
REMARK  4 active torsions:
REMARK  status: ('A' for Active; 'I' for Inactive)
REMARK    1  A    between atoms: C_4  and  N_7
REMARK    2  A    between atoms: C_12  and  C_13
REMARK    3  A    between atoms: C_12  and  N_58
REMARK    4  A    between atoms: N_15  and  C_16
REMARK                            x       y       z     vdW  Elec       q    Type
REMARK                         _______ _______ _______ _____ _____    ______ ____
ROOT
ATOM      1  C   UNL     1       7.592   4.321   2.266  0.00  0.00    +0.197 C 
ATOM      2  O   UNL     1       7.182   3.505   3.064  0.00  0.00    -0.278 OA
ATOM      3  N   UNL     1       8.714   5.018   2.531  0.00  0.00    -0.310 N 
ATOM      4  H   UNL     1       9.082   5.618   1.863  0.00  0.00    +0.149 HD
ENDROOT
BRANCH   3   5
ATOM      5  C   UNL     1       9.379   4.871   3.828  0.00  0.00    +0.108 C 
ATOM      6  C   UNL     1       8.749   5.833   4.782  0.00  0.00    +0.063 C 
ATOM      7  C   UNL     1       9.097   5.545   6.206  0.00  0.00    -0.030 A 
ATOM      8  C   UNL     1       8.164   4.912   7.020  0.00  0.00    +0.024 A 
ATOM      9  C   UNL     1       8.491   4.612   8.330  0.00  0.00    +0.041 A 
ATOM     10  C   UNL     1       9.740   4.933   8.833  0.00  0.00    +0.021 A 
ATOM     11  C   UNL     1      10.662   5.573   8.027  0.00  0.00    +0.017 A 
ATOM     12  C   UNL     1      10.314   5.887   6.718  0.00  0.00    +0.016 A 
ATOM     13  S   UNL     1      11.423   6.784   5.691  0.00  0.00    -0.089 S 
ATOM     14  C   UNL     1      11.780   5.743   4.322  0.00  0.00    +0.018 A 
ATOM     15  C   UNL     1      10.860   5.012   3.611  0.00  0.00    -0.013 A 
ATOM     16  C   UNL     1      11.313   4.261   2.516  0.00  0.00    +0.006 A 
ATOM     17  C   UNL     1      12.637   4.219   2.154  0.00  0.00    +0.000 A 
ATOM     18  C   UNL     1      13.566   4.936   2.887  0.00  0.00    +0.001 A 
ATOM     19  C   UNL     1      13.136   5.686   3.953  0.00  0.00    +0.015 A 
ATOM     20 CL   UNL     1       7.326   3.827   9.351  0.00  0.00    -0.084 Cl
ENDBRANCH   3   5
BRANCH   1  21
ATOM     21  C   UNL     1       6.846   4.554   0.977  0.00  0.00    +0.019 C 
BRANCH  21  27
ATOM     22  N   UNL     1       3.936   1.746  -0.244  0.00  0.00    -0.333 N 
ATOM     23  C   UNL     1       4.814   1.385   0.877  0.00  0.00    +0.086 C 
ATOM     24  C   UNL     1       6.065   2.266   0.847  0.00  0.00    -0.059 C 
ATOM     25  C   UNL     1       4.790   4.040  -0.194  0.00  0.00    -0.059 C 
ATOM     26  C   UNL     1       3.539   3.159  -0.163  0.00  0.00    +0.086 C 
ATOM     27  N   UNL     1       5.653   3.681   0.951  0.00  0.00    +0.387 N 
ATOM     28  H   UNL     1       5.125   3.812   1.822  0.00  0.00    -0.081 HD
BRANCH  22  32
ATOM     29  C   UNL     1       0.596  -0.736  -0.384  0.00  0.00    +0.000 A 
ATOM     30  C   UNL     1       0.433   0.635  -0.306  0.00  0.00    +0.002 A 
ATOM     31  C   UNL     1       1.539   1.461  -0.259  0.00  0.00    +0.023 A 
ATOM     32  C   UNL     1       2.815   0.914  -0.291  0.00  0.00    +0.030 A 
ATOM     33  C   UNL     1       2.975  -0.464  -0.369  0.00  0.00    +0.023 A 
ATOM     34  C   UNL     1       1.865  -1.284  -0.416  0.00  0.00    +0.002 A 
ENDBRANCH  22  32
ENDBRANCH  21  27
ENDBRANCH   1  21
TORSDOF 4
