REMARK  Name = ZINC39533222
REMARK  12 active torsions:
REMARK  status: ('A' for Active; 'I' for Inactive)
REMARK    1  A    between atoms: C_1  and  C_2
REMARK    2  A    between atoms: C_2  and  C_3
REMARK    3  A    between atoms: C_3  and  C_4
REMARK    4  A    between atoms: C_7  and  C_10
REMARK    5  A    between atoms: C_10  and  C_12
REMARK    6  A    between atoms: C_10  and  N_21
REMARK    7  A    between atoms: C_12  and  N_13
REMARK    8  A    between atoms: N_13  and  C_14
REMARK    9  A    between atoms: C_19  and  O_20
REMARK   10  A    between atoms: C_25  and  S_28
REMARK   11  A    between atoms: S_28  and  O_31
REMARK   12  A    between atoms: O_31  and  C_32
REMARK                            x       y       z     vdW  Elec       q    Type
REMARK                         _______ _______ _______ _____ _____    ______ ____
ROOT
ATOM      1  C   UNL     1       0.821  -6.289   1.210  0.00  0.00    +0.104 C 
ENDROOT
BRANCH   1   2
ATOM      2  N   UNL     1       1.179  -6.767  -0.132  0.00  0.00    -0.296 NA
ATOM      3  C   UNL     1       2.540  -6.349  -0.494  0.00  0.00    +0.066 C 
ATOM      4  C   UNL     1       2.895  -6.916  -1.871  0.00  0.00    -0.064 C 
ATOM      5  N   UNL     1       1.932  -6.425  -2.866  0.00  0.00    +0.398 N 
ATOM      6  C   UNL     1       0.581  -6.872  -2.503  0.00  0.00    +0.130 C 
ATOM      7  C   UNL     1       0.206  -6.304  -1.132  0.00  0.00    +0.095 C 
ATOM      8  H   UNL     1       1.958  -5.417  -2.890  0.00  0.00    -0.083 HD
ATOM      9  H   UNL     1       2.174  -6.789  -3.775  0.00  0.00    -0.083 HD
BRANCH   6  10
ATOM     10  S   UNL     1      -0.604  -6.283  -3.745  0.00  0.00    +0.109 S 
ATOM     11  O   UNL     1      -1.884  -6.853  -3.509  0.00  0.00    -0.138 OA
ATOM     12  O   UNL     1      -0.458  -4.883  -3.935  0.00  0.00    -0.138 OA
BRANCH  10  13
ATOM     13  O   UNL     1      -0.138  -6.904  -5.055  0.00  0.00    -0.347 OA
BRANCH  13  14
ATOM     14  C   UNL     1      -0.418  -8.228  -5.169  0.00  0.00    +0.156 A 
ATOM     15  C   UNL     1       0.494  -9.173  -4.720  0.00  0.00    +0.048 A 
ATOM     16  C   UNL     1       0.206 -10.519  -4.837  0.00  0.00    +0.004 A 
ATOM     17  C   UNL     1      -0.989 -10.925  -5.402  0.00  0.00    +0.000 A 
ATOM     18  C   UNL     1      -1.899  -9.986  -5.851  0.00  0.00    +0.004 A 
ATOM     19  C   UNL     1      -1.619  -8.639  -5.730  0.00  0.00    +0.048 A 
ENDBRANCH  13  14
ENDBRANCH  10  13
ENDBRANCH   6  10
ENDBRANCH   1   2
BRANCH   1  23
ATOM     20  C   UNL     1       1.120  -2.029   1.329  0.00  0.00    -0.047 A 
ATOM     21  C   UNL     1       2.264  -2.801   1.258  0.00  0.00    +0.004 A 
ATOM     22  C   UNL     1       2.168  -4.179   1.220  0.00  0.00    +0.005 A 
ATOM     23  C   UNL     1       0.926  -4.786   1.253  0.00  0.00    -0.029 A 
ATOM     24  C   UNL     1      -0.219  -4.015   1.325  0.00  0.00    +0.005 A 
ATOM     25  C   UNL     1      -0.122  -2.636   1.367  0.00  0.00    +0.004 A 
BRANCH  20  26
ATOM     26  C   UNL     1       1.225  -0.527   1.370  0.00  0.00    +0.035 C 
BRANCH  26  28
ATOM     27  C   UNL     1       1.434   1.463   2.867  0.00  0.00    +0.004 C 
ATOM     28  C   UNL     1       1.327  -0.063   2.825  0.00  0.00    +0.001 C 
ENDBRANCH  26  28
ENDBRANCH  20  26
ENDBRANCH   1  23
BRANCH   1  29
ATOM     29  C   UNL     1       1.776  -6.897   2.240  0.00  0.00    +0.125 C 
BRANCH  29  30
ATOM     30  N   UNL     1       1.762  -8.356   2.116  0.00  0.00    -0.339 N 
ATOM     31  H   UNL     1       1.198  -8.782   1.451  0.00  0.00    +0.146 HD
BRANCH  30  32
ATOM     32  C   UNL     1       2.562  -9.137   2.959  0.00  0.00    +0.069 A 
ATOM     33  C   UNL     1       3.364  -8.531   3.914  0.00  0.00    +0.026 A 
ATOM     34  C   UNL     1       4.153  -9.305   4.745  0.00  0.00    +0.002 A 
ATOM     35  C   UNL     1       4.144 -10.682   4.627  0.00  0.00    +0.004 A 
ATOM     36  C   UNL     1       3.347 -11.293   3.676  0.00  0.00    +0.047 A 
ATOM     37  C   UNL     1       2.550 -10.526   2.843  0.00  0.00    +0.138 A 
BRANCH  37  38
ATOM     38  O   UNL     1       1.761 -11.126   1.912  0.00  0.00    -0.505 OA
ATOM     39  H   UNL     1       2.193 -11.256   1.056  0.00  0.00    +0.292 HD
ENDBRANCH  37  38
ENDBRANCH  30  32
ENDBRANCH  29  30
ENDBRANCH   1  29
TORSDOF 11
