REMARK  Name = ZINC65968092
REMARK  5 active torsions:
REMARK  status: ('A' for Active; 'I' for Inactive)
REMARK    1  A    between atoms: C_1  and  C_2
REMARK    2  A    between atoms: C_2  and  C_3
REMARK    3  A    between atoms: C_2  and  N_14
REMARK    4  A    between atoms: N_5  and  C_6
REMARK    5  A    between atoms: C_7  and  C_11
REMARK                            x       y       z     vdW  Elec       q    Type
REMARK                         _______ _______ _______ _____ _____    ______ ____
ROOT
ATOM      1  C   UNL     1       0.090   1.326   0.753  0.00  0.00    -0.004 C 
ATOM      2  C   UNL     1       0.002  -0.004   0.002  0.00  0.00    +0.017 C 
ENDROOT
BRANCH   2   3
ATOM      3  N   UNL     1       0.993  -0.941   0.548  0.00  0.00    +0.389 N 
ATOM      4  C   UNL     1       2.258  -0.272   0.596  0.00  0.00    -0.074 C 
ATOM      5  C   UNL     1       3.461  -1.163   0.629  0.00  0.00    -0.027 C 
ATOM      6  C   UNL     1       3.326  -2.370   1.532  0.00  0.00    +0.005 C 
ATOM      7  C   UNL     1       2.673  -3.569   0.866  0.00  0.00    -0.012 C 
ATOM      8  C   UNL     1       3.323  -3.864  -0.488  0.00  0.00    +0.007 C 
ATOM      9  C   UNL     1       3.188  -2.615  -1.361  0.00  0.00    -0.012 C 
ATOM     10  C   UNL     1       4.025  -1.497  -0.733  0.00  0.00    +0.005 C 
ATOM     11  C   UNL     1       1.744  -2.180  -1.494  0.00  0.00    -0.012 C 
ATOM     12  C   UNL     1       0.938  -2.151  -0.229  0.00  0.00    -0.067 C 
ATOM     13  C   UNL     1       1.176  -3.370   0.658  0.00  0.00    -0.012 C 
ATOM     14  H   UNL     1       0.721  -1.164   1.494  0.00  0.00    -0.080 HD
ENDBRANCH   2   3
BRANCH   2  15
ATOM     15  C   UNL     1      -1.380  -0.582   0.165  0.00  0.00    +0.204 C 
ATOM     16  O   UNL     1      -1.613  -1.349   1.076  0.00  0.00    -0.277 OA
ATOM     17  N   UNL     1      -2.357  -0.248  -0.701  0.00  0.00    -0.281 N 
ATOM     18  H   UNL     1      -2.171   0.365  -1.429  0.00  0.00    +0.155 HD
BRANCH  17  19
ATOM     19  C   UNL     1      -3.629  -0.780  -0.550  0.00  0.00    +0.084 A 
ATOM     20  C   UNL     1      -4.746  -0.556  -1.341  0.00  0.00    +0.065 A 
ATOM     21  C   UNL     1      -5.958  -1.243  -0.958  0.00  0.00    +0.022 A 
ATOM     22  C   UNL     1      -5.867  -2.029   0.131  0.00  0.00    +0.048 A 
ATOM     23  S   UNL     1      -4.167  -1.849   0.626  0.00  0.00    -0.081 S 
BRANCH  20  24
ATOM     24  C   UNL     1      -4.700   0.333  -2.506  0.00  0.00    +0.244 C 
ATOM     25  O   UNL     1      -3.662   0.897  -2.801  0.00  0.00    -0.270 OA
ATOM     26  N   UNL     1      -5.806   0.526  -3.251  0.00  0.00    -0.325 N 
ATOM     27  H   UNL     1      -6.633   0.077  -3.016  0.00  0.00    +0.145 HD
ATOM     28  H   UNL     1      -5.776   1.115  -4.021  0.00  0.00    +0.145 HD
ENDBRANCH  20  24
ENDBRANCH  17  19
ENDBRANCH   2  15
TORSDOF 4
