REMARK  Name = ZINC44095770
REMARK  3 active torsions:
REMARK  status: ('A' for Active; 'I' for Inactive)
REMARK    1  A    between atoms: C_4  and  C_8
REMARK    2  A    between atoms: C_19  and  C_22
REMARK    3  A    between atoms: C_24  and  C_27
REMARK                            x       y       z     vdW  Elec       q    Type
REMARK                         _______ _______ _______ _____ _____    ______ ____
ROOT
ATOM      1  C   UNL     1       3.675  -0.674  -0.051  0.00  0.00    +0.251 C 
ATOM      2  O   UNL     1       4.205  -0.996   0.995  0.00  0.00    -0.270 OA
ATOM      3  N   UNL     1       4.253  -0.995  -1.226  0.00  0.00    -0.294 N 
ATOM      4  C   UNL     1       3.627  -0.607  -2.497  0.00  0.00    +0.127 C 
ATOM      5  C   UNL     1       4.644   0.193  -3.320  0.00  0.00    +0.125 C 
ATOM      6  N   UNL     1       5.911  -0.552  -3.353  0.00  0.00    -0.314 N 
ATOM      7  C   UNL     1       6.537  -0.940  -2.081  0.00  0.00    +0.125 C 
ATOM      8  C   UNL     1       5.522  -1.734  -1.258  0.00  0.00    +0.127 C 
ATOM      9  C   UNL     1       6.505  -0.883  -4.562  0.00  0.00    +0.099 A 
ATOM     10  C   UNL     1       5.834  -0.617  -5.753  0.00  0.00    +0.042 A 
ATOM     11  C   UNL     1       6.432  -0.949  -6.952  0.00  0.00    +0.016 A 
ATOM     12  C   UNL     1       7.699  -1.544  -6.922  0.00  0.00    +0.038 A 
ATOM     13  C   UNL     1       8.308  -1.778  -5.693  0.00  0.00    +0.095 A 
ATOM     14  N   UNL     1       7.706  -1.442  -4.569  0.00  0.00    -0.349 N 
ATOM     15  H   UNL     1       8.153  -1.612  -3.725  0.00  0.00    +0.167 HD
ENDROOT
BRANCH   1  19
ATOM     16  C   UNL     1       0.004   1.464  -0.003  0.00  0.00    +0.004 A 
ATOM     17  C   UNL     1       1.202   2.155   0.003  0.00  0.00    +0.039 A 
ATOM     18  C   UNL     1       2.401   1.468  -0.013  0.00  0.00    +0.137 A 
ATOM     19  C   UNL     1       2.400   0.069  -0.034  0.00  0.00    +0.090 A 
ATOM     20  C   UNL     1       1.185  -0.621  -0.040  0.00  0.00    +0.056 A 
ATOM     21  C   UNL     1      -0.004   0.081  -0.024  0.00  0.00    +0.021 A 
ATOM     22 CL   UNL     1       1.170  -2.357  -0.066  0.00  0.00    -0.083 Cl
ATOM     23  F   UNL     1       3.570   2.144  -0.007  0.00  0.00    -0.205 F 
ENDBRANCH   1  19
BRANCH  12  24
ATOM     24  C   UNL     1       8.383  -1.920  -8.183  0.00  0.00    +0.203 A 
ATOM     25  N   UNL     1       9.594  -2.499  -8.277  0.00  0.00    -0.191 NA
ATOM     26  C   UNL     1       9.899  -2.695  -9.528  0.00  0.00    +0.231 A 
ATOM     27  O   UNL     1       8.890  -2.247 -10.287  0.00  0.00    -0.337 OA
ATOM     28  N   UNL     1       7.907  -1.748  -9.392  0.00  0.00    -0.056 NA
BRANCH  26  29
ATOM     29  C   UNL     1      11.172  -3.321 -10.036  0.00  0.00    +0.078 C 
ATOM     30  C   UNL     1      11.427  -3.278 -11.544  0.00  0.00    +0.014 C 
ATOM     31  C   UNL     1      11.048  -4.598 -10.870  0.00  0.00    +0.014 C 
ENDBRANCH  26  29
ENDBRANCH  12  24
TORSDOF 3
