REMARK  Name = ZINC35742048
REMARK  13 active torsions:
REMARK  status: ('A' for Active; 'I' for Inactive)
REMARK    1  A    between atoms: C_1  and  C_2
REMARK    2  A    between atoms: C_2  and  C_3
REMARK    3  A    between atoms: N_5  and  C_6
REMARK    4  A    between atoms: N_5  and  C_13
REMARK    5  A    between atoms: C_6  and  C_7
REMARK    6  A    between atoms: C_7  and  N_8
REMARK    7  A    between atoms: C_13  and  C_14
REMARK    8  A    between atoms: C_24  and  C_26
REMARK    9  A    between atoms: C_26  and  O_27
REMARK   10  A    between atoms: O_27  and  C_28
REMARK   11  A    between atoms: C_31  and  C_34
REMARK   12  A    between atoms: C_34  and  C_35
REMARK   13  A    between atoms: C_34  and  C_36
REMARK                            x       y       z     vdW  Elec       q    Type
REMARK                         _______ _______ _______ _____ _____    ______ ____
ROOT
ATOM      1  C   UNL     1      -1.108  -3.120  -0.863  0.00  0.00    +0.234 C 
ATOM      2  O   UNL     1      -1.623  -2.610  -1.835  0.00  0.00    -0.274 OA
ATOM      3  N   UNL     1      -1.806  -3.995  -0.112  0.00  0.00    -0.289 N 
ATOM      4  C   UNL     1      -1.194  -4.616   1.072  0.00  0.00    +0.114 C 
ATOM      5  C   UNL     1      -1.079  -6.127   0.820  0.00  0.00    +0.061 C 
ATOM      6  C   UNL     1      -2.349  -6.606   0.195  0.00  0.00    -0.004 A 
ATOM      7  C   UNL     1      -3.322  -5.862  -0.397  0.00  0.00    -0.014 A 
ATOM      8  C   UNL     1      -4.413  -6.558  -0.915  0.00  0.00    +0.013 A 
ATOM      9  C   UNL     1      -4.469  -7.905  -0.809  0.00  0.00    +0.046 A 
ATOM     10  S   UNL     1      -2.944  -8.270   0.047  0.00  0.00    -0.101 S 
ATOM     11  C   UNL     1      -3.192  -4.338  -0.462  0.00  0.00    +0.144 C 
ENDROOT
BRANCH   1  12
ATOM     12  C   UNL     1       0.312  -2.777  -0.495  0.00  0.00    +0.203 C 
BRANCH  12  15
ATOM     13  C   UNL     1       0.707  -0.490  -1.238  0.00  0.00    +0.216 C 
ATOM     14  O   UNL     1       1.150   0.308  -2.036  0.00  0.00    -0.276 OA
ATOM     15  N   UNL     1       0.847  -1.812  -1.460  0.00  0.00    -0.294 N 
BRANCH  13  17
ATOM     16  C   UNL     1      -0.019   1.526   0.010  0.00  0.00    +0.013 C 
ATOM     17  C   UNL     1       0.002  -0.004   0.002  0.00  0.00    +0.092 C 
ENDBRANCH  13  17
BRANCH  15  18
ATOM     18  C   UNL     1       1.532  -2.285  -2.665  0.00  0.00    +0.090 C 
BRANCH  18  19
ATOM     19  C   UNL     1       3.027  -2.436  -2.375  0.00  0.00    -0.060 C 
BRANCH  19  20
ATOM     20  N   UNL     1       3.715  -2.910  -3.584  0.00  0.00    +0.381 N 
ATOM     21  C   UNL     1       3.708  -1.851  -4.625  0.00  0.00    -0.079 C 
ATOM     22  C   UNL     1       4.891  -2.249  -5.543  0.00  0.00    -0.020 C 
ATOM     23  C   UNL     1       5.941  -2.781  -4.542  0.00  0.00    -0.020 C 
ATOM     24  C   UNL     1       5.139  -3.176  -3.289  0.00  0.00    -0.079 C 
ATOM     25  H   UNL     1       3.269  -3.745  -3.933  0.00  0.00    -0.082 HD
ENDBRANCH  19  20
ENDBRANCH  18  19
ENDBRANCH  15  18
ENDBRANCH  12  15
ENDBRANCH   1  12
BRANCH  11  26
ATOM     26  C   UNL     1      -4.153  -3.689   0.536  0.00  0.00    +0.256 C 
BRANCH  26  27
ATOM     27  O   UNL     1      -3.945  -4.250   1.833  0.00  0.00    -0.490 OA
BRANCH  27  28
ATOM     28  C   UNL     1      -4.724  -3.780   2.842  0.00  0.00    +0.121 A 
ATOM     29  C   UNL     1      -5.674  -2.802   2.587  0.00  0.00    +0.046 A 
ATOM     30  C   UNL     1      -6.466  -2.325   3.614  0.00  0.00    +0.007 A 
ATOM     31  C   UNL     1      -6.311  -2.822   4.895  0.00  0.00    -0.045 A 
ATOM     32  C   UNL     1      -5.365  -3.797   5.152  0.00  0.00    +0.007 A 
ATOM     33  C   UNL     1      -4.575  -4.281   4.127  0.00  0.00    +0.046 A 
BRANCH  31  34
ATOM     34  C   UNL     1      -7.176  -2.300   6.014  0.00  0.00    +0.013 C 
ATOM     35  C   UNL     1      -7.984  -3.453   6.614  0.00  0.00    +0.012 C 
ATOM     36  C   UNL     1      -6.290  -1.681   7.097  0.00  0.00    +0.012 C 
ENDBRANCH  31  34
ENDBRANCH  27  28
ENDBRANCH  26  27
ENDBRANCH  11  26
TORSDOF 10
