REMARK  Name = ZINC12821764
REMARK  6 active torsions:
REMARK  status: ('A' for Active; 'I' for Inactive)
REMARK    1  A    between atoms: C_1  and  C_2
REMARK    2  A    between atoms: C_5  and  C_8
REMARK    3  A    between atoms: C_8  and  C_10
REMARK    4  A    between atoms: C_8  and  N_15
REMARK    5  A    between atoms: C_16  and  C_18
REMARK    6  A    between atoms: C_18  and  N_19
REMARK                            x       y       z     vdW  Elec       q    Type
REMARK                         _______ _______ _______ _____ _____    ______ ____
ROOT
ATOM      1  N   UNL     1      -6.706   1.016   1.732  0.00  0.00    -0.303 N 
ATOM      2  C   UNL     1      -5.453   1.443   1.478  0.00  0.00    +0.233 C 
ATOM      3  O   UNL     1      -4.670   1.601   2.389  0.00  0.00    -0.274 OA
ATOM      4  H   UNL     1      -7.333   0.890   1.002  0.00  0.00    +0.150 HD
ENDROOT
BRANCH   1   5
ATOM      5  C   UNL     1      -7.121   0.744   3.110  0.00  0.00    +0.140 C 
BRANCH   5  10
ATOM      6  C   UNL     1     -12.858   1.294   3.537  0.00  0.00    +0.044 C 
ATOM      7  C   UNL     1     -11.362   1.151   3.426  0.00  0.00    -0.050 A 
ATOM      8  C   UNL     1     -10.545   1.618   4.438  0.00  0.00    +0.004 A 
ATOM      9  C   UNL     1      -9.173   1.486   4.336  0.00  0.00    +0.006 A 
ATOM     10  C   UNL     1      -8.617   0.887   3.221  0.00  0.00    -0.022 A 
ATOM     11  C   UNL     1      -9.434   0.425   2.206  0.00  0.00    +0.006 A 
ATOM     12  C   UNL     1     -10.806   0.552   2.311  0.00  0.00    +0.004 A 
ENDBRANCH   5  10
BRANCH   5  13
ATOM     13  C   UNL     1      -6.722  -0.659   3.487  0.00  0.00    +0.014 A 
ATOM     14  C   UNL     1      -6.213  -1.117   4.657  0.00  0.00    +0.013 A 
ATOM     15  C   UNL     1      -5.920  -2.462   4.780  0.00  0.00    +0.008 A 
ATOM     16  C   UNL     1      -6.141  -3.282   3.724  0.00  0.00    +0.045 A 
ATOM     17  S   UNL     1      -6.788  -2.149   2.506  0.00  0.00    -0.099 S 
ENDBRANCH   5  13
ENDBRANCH   1   5
BRANCH   2  18
ATOM     18  C   UNL     1      -5.026   1.723   0.060  0.00  0.00    +0.227 C 
BRANCH  18  19
ATOM     19  N   UNL     1      -3.631   2.171   0.050  0.00  0.00    -0.194 N 
ATOM     20  C   UNL     1      -2.480   1.365   0.034  0.00  0.00    +0.061 A 
ATOM     21  C   UNL     1      -2.411  -0.027   0.025  0.00  0.00    +0.025 A 
ATOM     22  C   UNL     1      -1.184  -0.678   0.010  0.00  0.00    +0.002 A 
ATOM     23  C   UNL     1       0.002  -0.004   0.002  0.00  0.00    +0.009 A 
ATOM     24  C   UNL     1      -0.017   1.401   0.010  0.00  0.00    -0.014 A 
ATOM     25  C   UNL     1      -1.268   2.053   0.031  0.00  0.00    +0.031 A 
ATOM     26  C   UNL     1      -1.327   3.451   0.035  0.00  0.00    +0.118 A 
ATOM     27  C   UNL     1      -0.199   4.184   0.028  0.00  0.00    +0.029 A 
ATOM     28  C   UNL     1       1.048   3.546   0.012  0.00  0.00    +0.003 A 
ATOM     29  C   UNL     1       1.148   2.186   0.003  0.00  0.00    +0.009 A 
ATOM     30  S   UNL     1      -3.072   3.751   0.054  0.00  0.00    +0.076 S 
ATOM     31  O   UNL     1      -3.424   4.339  -1.191  0.00  0.00    -0.150 OA
ATOM     32  O   UNL     1      -3.400   4.324   1.312  0.00  0.00    -0.150 OA
ENDBRANCH  18  19
ENDBRANCH   2  18
TORSDOF 5
