REMARK  Name = ZINC40013916
REMARK  10 active torsions:
REMARK  status: ('A' for Active; 'I' for Inactive)
REMARK    1  A    between atoms: C_1  and  C_2
REMARK    2  A    between atoms: C_2  and  O_3
REMARK    3  A    between atoms: O_3  and  C_4
REMARK    4  A    between atoms: C_7  and  C_10
REMARK    5  A    between atoms: N_25  and  C_26
REMARK    6  A    between atoms: C_26  and  C_27
REMARK    7  A    between atoms: C_27  and  C_28
REMARK    8  A    between atoms: C_28  and  N_29
REMARK    9  A    between atoms: N_29  and  C_30
REMARK   10  A    between atoms: N_29  and  C_31
REMARK                            x       y       z     vdW  Elec       q    Type
REMARK                         _______ _______ _______ _____ _____    ______ ____
ROOT
ATOM      1  C   UNL     1       1.109  -6.040  -1.847  0.00  0.00    +0.144 C 
ATOM      2  C   UNL     1       0.109  -6.518  -2.848  0.00  0.00    +0.072 A 
ATOM      3  C   UNL     1      -1.357  -6.469  -2.848  0.00  0.00    +0.199 A 
ATOM      4  O   UNL     1      -2.003  -5.833  -2.035  0.00  0.00    -0.287 OA
ATOM      5  C   UNL     1      -1.978  -7.269  -3.934  0.00  0.00    +0.067 A 
ATOM      6  C   UNL     1      -3.356  -7.486  -3.951  0.00  0.00    +0.053 A 
ATOM      7  C   UNL     1      -3.915  -8.235  -4.965  0.00  0.00    +0.124 A 
ATOM      8  C   UNL     1      -3.107  -8.770  -5.962  0.00  0.00    +0.042 A 
ATOM      9  C   UNL     1      -1.747  -8.560  -5.954  0.00  0.00    +0.050 A 
ATOM     10  C   UNL     1      -1.158  -7.803  -4.941  0.00  0.00    +0.140 A 
ATOM     11  O   UNL     1       0.180  -7.604  -4.965  0.00  0.00    -0.450 OA
ATOM     12  C   UNL     1       0.795  -7.079  -3.887  0.00  0.00    +0.199 A 
ATOM     13  C   UNL     1       2.236  -6.988  -3.592  0.00  0.00    +0.283 C 
ATOM     14  O   UNL     1       3.121  -7.400  -4.315  0.00  0.00    -0.267 OA
ATOM     15  N   UNL     1       2.429  -6.382  -2.402  0.00  0.00    -0.284 N 
ATOM     16  F   UNL     1      -5.248  -8.450  -4.988  0.00  0.00    -0.205 F 
ENDROOT
BRANCH   1  20
ATOM     17  C   UNL     1       0.777  -1.810  -1.336  0.00  0.00    +0.121 A 
ATOM     18  C   UNL     1       0.243  -2.669  -0.386  0.00  0.00    +0.046 A 
ATOM     19  C   UNL     1       0.351  -4.036  -0.554  0.00  0.00    +0.009 A 
ATOM     20  C   UNL     1       0.992  -4.548  -1.667  0.00  0.00    -0.022 A 
ATOM     21  C   UNL     1       1.525  -3.694  -2.615  0.00  0.00    +0.009 A 
ATOM     22  C   UNL     1       1.414  -2.327  -2.455  0.00  0.00    +0.046 A 
BRANCH  17  23
ATOM     23  O   UNL     1       0.671  -0.465  -1.174  0.00  0.00    -0.492 OA
BRANCH  23  25
ATOM     24  C   UNL     1      -0.019   1.526   0.010  0.00  0.00    +0.048 C 
ATOM     25  C   UNL     1       0.002  -0.004   0.002  0.00  0.00    +0.225 C 
ENDBRANCH  23  25
ENDBRANCH  17  23
ENDBRANCH   1  20
BRANCH  15  26
ATOM     26  C   UNL     1       3.724  -6.111  -1.772  0.00  0.00    +0.107 C 
BRANCH  26  27
ATOM     27  C   UNL     1       4.121  -7.297  -0.890  0.00  0.00    +0.000 C 
BRANCH  27  28
ATOM     28  C   UNL     1       5.473  -7.013  -0.233  0.00  0.00    -0.078 C 
BRANCH  28  29
ATOM     29  N   UNL     1       5.854  -8.152   0.613  0.00  0.00    +0.376 N 
ATOM     30  C   UNL     1       6.072  -9.336  -0.228  0.00  0.00    -0.097 C 
ATOM     31  C   UNL     1       7.091  -7.831   1.337  0.00  0.00    -0.097 C 
ATOM     32  H   UNL     1       5.116  -8.341   1.276  0.00  0.00    -0.083 HD
ENDBRANCH  28  29
ENDBRANCH  27  28
ENDBRANCH  26  27
ENDBRANCH  15  26
TORSDOF 7
