REMARK  Name = ZINC01873757
REMARK  10 active torsions:
REMARK  status: ('A' for Active; 'I' for Inactive)
REMARK    1  A    between atoms: C_1  and  N_2
REMARK    2  A    between atoms: C_3  and  C_29
REMARK    3  A    between atoms: C_6  and  S_7
REMARK    4  A    between atoms: S_7  and  C_8
REMARK    5  A    between atoms: C_8  and  C_9
REMARK    6  A    between atoms: N_11  and  N_12
REMARK    7  A    between atoms: C_13  and  C_14
REMARK    8  A    between atoms: C_19  and  O_20
REMARK    9  A    between atoms: O_20  and  C_21
REMARK   10  A    between atoms: C_21  and  C_22
REMARK                            x       y       z     vdW  Elec       q    Type
REMARK                         _______ _______ _______ _____ _____    ______ ____
ROOT
ATOM      1  C   UNL     1       0.540  -1.629   5.144  0.00  0.00    +0.242 C 
ATOM      2  O   UNL     1       0.578  -0.484   5.543  0.00  0.00    -0.273 OA
ATOM      3  N   UNL     1       0.630  -2.650   6.019  0.00  0.00    -0.206 N 
ATOM      4  H   UNL     1       0.600  -3.566   5.700  0.00  0.00    +0.177 HD
ENDROOT
BRANCH   3   5
ATOM      5  N   UNL     1       0.769  -2.389   7.388  0.00  0.00    -0.188 NA
ATOM      6  C   UNL     1       0.856  -3.373   8.231  0.00  0.00    +0.142 C 
BRANCH   6   7
ATOM      7  C   UNL     1       1.002  -3.098   9.671  0.00  0.00    +0.036 A 
ATOM      8  C   UNL     1       1.102  -4.154  10.581  0.00  0.00    +0.013 A 
ATOM      9  C   UNL     1       1.238  -3.890  11.928  0.00  0.00    +0.001 A 
ATOM     10  C   UNL     1       1.276  -2.583  12.383  0.00  0.00    +0.004 A 
ATOM     11  C   UNL     1       1.177  -1.530  11.493  0.00  0.00    +0.046 A 
ATOM     12  C   UNL     1       1.046  -1.777  10.136  0.00  0.00    +0.130 A 
BRANCH  12  13
ATOM     13  O   UNL     1       0.955  -0.743   9.261  0.00  0.00    -0.487 OA
BRANCH  13  14
ATOM     14  C   UNL     1       1.007   0.577   9.807  0.00  0.00    +0.264 C 
BRANCH  14  15
ATOM     15  C   UNL     1       0.892   1.586   8.694  0.00  0.00    -0.010 A 
ATOM     16  C   UNL     1       2.030   2.048   8.059  0.00  0.00    +0.008 A 
ATOM     17  C   UNL     1       1.924   2.974   7.038  0.00  0.00    +0.020 A 
ATOM     18  C   UNL     1       0.680   3.439   6.652  0.00  0.00    +0.041 A 
ATOM     19  C   UNL     1      -0.459   2.977   7.288  0.00  0.00    +0.020 A 
ATOM     20  C   UNL     1      -0.352   2.046   8.305  0.00  0.00    +0.008 A 
ATOM     21 CL   UNL     1       0.547   4.602   5.371  0.00  0.00    -0.084 Cl
ENDBRANCH  14  15
ENDBRANCH  13  14
ENDBRANCH  12  13
ENDBRANCH   6   7
ENDBRANCH   3   5
BRANCH   1  22
ATOM     22  C   UNL     1       0.391  -1.910   3.671  0.00  0.00    +0.174 C 
BRANCH  22  23
ATOM     23  S   UNL     1       0.296  -0.342   2.763  0.00  0.00    -0.077 S 
BRANCH  23  29
ATOM     24  C   UNL     1       0.012   1.461   0.007  0.00  0.00    +0.153 C 
ATOM     25  N   UNL     1       0.015  -0.004   0.001  0.00  0.00    -0.305 N 
ATOM     26  C   UNL     1      -0.087  -0.831  -1.094  0.00  0.00    +0.165 A 
ATOM     27  N   UNL     1      -0.042  -2.065  -0.651  0.00  0.00    -0.128 NA
ATOM     28  N   UNL     1       0.080  -2.067   0.629  0.00  0.00    -0.122 NA
ATOM     29  C   UNL     1       0.126  -0.834   1.080  0.00  0.00    +0.192 A 
BRANCH  26  30
ATOM     30  C   UNL     1      -0.223  -0.408  -2.504  0.00  0.00    +0.020 A 
ATOM     31  C   UNL     1       0.143   0.883  -2.888  0.00  0.00    +0.011 A 
ATOM     32  C   UNL     1       0.013   1.272  -4.205  0.00  0.00    +0.002 A 
ATOM     33  C   UNL     1      -0.479   0.385  -5.146  0.00  0.00    +0.015 A 
ATOM     34  C   UNL     1      -0.844  -0.897  -4.773  0.00  0.00    +0.019 A 
ATOM     35  C   UNL     1      -0.713  -1.300  -3.459  0.00  0.00    +0.027 A 
ATOM     36 BR   UNL     1      -1.516  -2.102  -6.067  0.00  0.00    -0.050 Br
ENDBRANCH  26  30
ENDBRANCH  23  29
ENDBRANCH  22  23
ENDBRANCH   1  22
TORSDOF 9
