REMARK  Name = ZINC33010803
REMARK  4 active torsions:
REMARK  status: ('A' for Active; 'I' for Inactive)
REMARK    1  A    between atoms: C_7  and  C_24
REMARK    2  A    between atoms: C_10  and  N_11
REMARK    3  A    between atoms: N_14  and  C_17
REMARK    4  A    between atoms: C_17  and  C_18
REMARK                            x       y       z     vdW  Elec       q    Type
REMARK                         _______ _______ _______ _____ _____    ______ ____
ROOT
ATOM      1  C   UNL     1      -0.170   6.565   7.097  0.00  0.00    +0.001 A 
ATOM      2  C   UNL     1       0.529   6.165   5.961  0.00  0.00    +0.001 A 
ATOM      3  C   UNL     1       0.116   5.095   5.223  0.00  0.00    +0.012 A 
ATOM      4  C   UNL     1      -1.027   4.390   5.614  0.00  0.00    +0.024 A 
ATOM      5  C   UNL     1      -1.738   4.798   6.771  0.00  0.00    +0.013 A 
ATOM      6  C   UNL     1      -1.288   5.899   7.506  0.00  0.00    +0.011 A 
ATOM      7  C   UNL     1      -2.890   4.056   7.132  0.00  0.00    +0.099 A 
ATOM      8  N   UNL     1      -3.248   3.027   6.383  0.00  0.00    -0.172 NA
ATOM      9  N   UNL     1      -2.608   2.664   5.335  0.00  0.00    -0.263 N 
ATOM     10  C   UNL     1      -1.517   3.272   4.901  0.00  0.00    +0.123 A 
ATOM     11  H   UNL     1      -2.961   1.804   4.745  0.00  0.00    +0.190 HD
ENDROOT
BRANCH   7  12
ATOM     12  C   UNL     1      -3.679   4.426   8.329  0.00  0.00    +0.003 A 
ATOM     13  C   UNL     1      -4.128   3.437   9.205  0.00  0.00    +0.013 A 
ATOM     14  C   UNL     1      -4.859   3.788  10.321  0.00  0.00    +0.039 A 
ATOM     15  C   UNL     1      -5.157   5.119  10.567  0.00  0.00    +0.123 A 
ATOM     16  C   UNL     1      -4.718   6.104   9.697  0.00  0.00    +0.039 A 
ATOM     17  C   UNL     1      -3.982   5.764   8.581  0.00  0.00    +0.013 A 
ATOM     18  F   UNL     1      -5.877   5.457  11.659  0.00  0.00    -0.205 F 
ENDBRANCH   7  12
BRANCH  10  19
ATOM     19  N   UNL     1      -0.868   2.824   3.763  0.00  0.00    -0.313 N 
ATOM     20  C   UNL     1      -0.931   1.359   3.662  0.00  0.00    +0.122 C 
ATOM     21  C   UNL     1      -0.137   0.900   2.438  0.00  0.00    +0.103 C 
ATOM     22  N   UNL     1      -0.690   1.532   1.232  0.00  0.00    -0.297 NA
ATOM     23  C   UNL     1      -0.627   2.997   1.333  0.00  0.00    +0.103 C 
ATOM     24  C   UNL     1      -1.422   3.456   2.557  0.00  0.00    +0.122 C 
BRANCH  22  25
ATOM     25  C   UNL     1      -0.002   1.057   0.025  0.00  0.00    +0.116 C 
BRANCH  25  26
ATOM     26  C   UNL     1      -0.758   1.536  -1.216  0.00  0.00    +0.132 C 
ATOM     27  C   UNL     1      -0.047   1.036  -2.489  0.00  0.00    +0.035 C 
ATOM     28  C   UNL     1      -1.125   0.202  -3.222  0.00  0.00    +0.031 C 
ATOM     29  C   UNL     1      -2.436   0.749  -2.603  0.00  0.00    +0.160 C 
ATOM     30  O   UNL     1      -2.086   0.988  -1.221  0.00  0.00    -0.375 OA
ENDBRANCH  25  26
ENDBRANCH  22  25
ENDBRANCH  10  19
TORSDOF 4
