REMARK  Name = ZINC66277804
REMARK  5 active torsions:
REMARK  status: ('A' for Active; 'I' for Inactive)
REMARK    1  A    between atoms: C_1  and  O_2
REMARK    2  A    between atoms: O_2  and  C_3
REMARK    3  A    between atoms: C_3  and  C_4
REMARK    4  A    between atoms: C_12  and  C_13
REMARK    5  A    between atoms: N_15  and  N_16
REMARK                            x       y       z     vdW  Elec       q    Type
REMARK                         _______ _______ _______ _____ _____    ______ ____
ROOT
ATOM      1  C   UNL     1      -1.097  -2.480   2.483  0.00  0.00    +0.296 C 
ATOM      2  O   UNL     1      -1.205  -1.297   2.745  0.00  0.00    -0.265 OA
ATOM      3  N   UNL     1      -1.004  -3.385   3.478  0.00  0.00    -0.218 N 
ATOM      4  H   UNL     1      -0.918  -4.328   3.268  0.00  0.00    +0.174 HD
ENDROOT
BRANCH   3   5
ATOM      5  N   UNL     1      -1.031  -2.963   4.813  0.00  0.00    -0.147 N 
ATOM      6  C   UNL     1      -0.006  -2.357   5.441  0.00  0.00    +0.271 C 
ATOM      7  O   UNL     1       1.071  -2.092   4.946  0.00  0.00    -0.268 OA
ATOM      8  C   UNL     1      -0.412  -2.066   6.832  0.00  0.00    +0.051 A 
ATOM      9  C   UNL     1       0.210  -1.470   7.917  0.00  0.00    +0.014 A 
ATOM     10  C   UNL     1      -0.470  -1.350   9.119  0.00  0.00    +0.001 A 
ATOM     11  C   UNL     1      -1.764  -1.820   9.241  0.00  0.00    +0.001 A 
ATOM     12  C   UNL     1      -2.400  -2.418   8.165  0.00  0.00    +0.014 A 
ATOM     13  C   UNL     1      -1.732  -2.545   6.957  0.00  0.00    +0.051 A 
ATOM     14  C   UNL     1      -2.086  -3.105   5.636  0.00  0.00    +0.271 C 
ATOM     15  O   UNL     1      -3.150  -3.612   5.342  0.00  0.00    -0.268 OA
ENDBRANCH   3   5
BRANCH   1  24
ATOM     16  C   UNL     1      -1.156  -2.103   0.002  0.00  0.00    +0.036 A 
ATOM     17  C   UNL     1      -1.080  -2.972  -1.172  0.00  0.00    +0.026 A 
ATOM     18  C   UNL     1      -1.107  -2.750  -2.551  0.00  0.00    +0.012 A 
ATOM     19  C   UNL     1      -1.012  -3.809  -3.409  0.00  0.00    +0.001 A 
ATOM     20  C   UNL     1      -0.889  -5.103  -2.920  0.00  0.00    +0.004 A 
ATOM     21  C   UNL     1      -0.861  -5.343  -1.564  0.00  0.00    +0.047 A 
ATOM     22  C   UNL     1      -0.956  -4.281  -0.671  0.00  0.00    +0.136 A 
ATOM     23  O   UNL     1      -0.957  -4.204   0.674  0.00  0.00    -0.450 OA
ATOM     24  C   UNL     1      -1.070  -2.922   1.082  0.00  0.00    +0.197 A 
BRANCH  16  25
ATOM     25  C   UNL     1      -1.295  -0.603   0.011  0.00  0.00    +0.199 C 
BRANCH  25  27
ATOM     26  C   UNL     1      -0.017   1.425   0.010  0.00  0.00    +0.194 C 
ATOM     27  O   UNL     1       0.002  -0.004   0.002  0.00  0.00    -0.378 OA
ENDBRANCH  25  27
ENDBRANCH  16  25
ENDBRANCH   1  24
TORSDOF 4
