REMARK  Name = ZINC43222782
REMARK  11 active torsions:
REMARK  status: ('A' for Active; 'I' for Inactive)
REMARK    1  A    between atoms: C_1  and  C_2
REMARK    2  A    between atoms: C_2  and  C_4
REMARK    3  A    between atoms: C_2  and  N_8
REMARK    4  A    between atoms: C_4  and  C_5
REMARK    5  A    between atoms: C_5  and  C_6
REMARK    6  A    between atoms: C_5  and  C_7
REMARK    7  A    between atoms: C_9  and  C_11
REMARK    8  A    between atoms: C_16  and  C_18
REMARK    9  A    between atoms: N_20  and  C_21
REMARK   10  A    between atoms: C_21  and  C_23
REMARK   11  A    between atoms: C_21  and  C_24
REMARK                            x       y       z     vdW  Elec       q    Type
REMARK                         _______ _______ _______ _____ _____    ______ ____
ROOT
ATOM      1  C   UNL     1       0.480  -0.953  -3.516  0.00  0.00    +0.068 C 
ATOM      2  C   UNL     1       0.982  -2.386  -3.236  0.00  0.00    -0.069 C 
ATOM      3  N   UNL     1      -0.059  -3.268  -3.823  0.00  0.00    +0.380 N 
ATOM      4  C   UNL     1      -0.443  -2.589  -5.088  0.00  0.00    -0.069 C 
ATOM      5  C   UNL     1      -0.456  -1.084  -4.735  0.00  0.00    +0.068 C 
ATOM      6  H   UNL     1       0.320  -4.183  -4.015  0.00  0.00    -0.086 HD
ATOM      7  H   UNL     1      -0.854  -3.337  -3.204  0.00  0.00    -0.086 HD
ENDROOT
BRANCH   1   9
ATOM      8  N   UNL     1       0.348  -0.259  -1.145  0.00  0.00    -0.313 N 
ATOM      9  C   UNL     1      -0.279  -0.423  -2.327  0.00  0.00    +0.215 C 
ATOM     10  O   UNL     1      -1.454  -0.144  -2.433  0.00  0.00    -0.276 OA
ATOM     11  H   UNL     1       1.288  -0.482  -1.060  0.00  0.00    +0.149 HD
BRANCH   8  13
ATOM     12  C   UNL     1      -0.399   1.785  -0.030  0.00  0.00    +0.028 C 
ATOM     13  C   UNL     1      -0.390   0.256   0.011  0.00  0.00    +0.070 C 
BRANCH  13  14
ATOM     14  C   UNL     1       0.286  -0.216   1.299  0.00  0.00    +0.025 C 
BRANCH  14  15
ATOM     15  C   UNL     1       0.184  -1.740   1.400  0.00  0.00    -0.015 C 
ATOM     16  C   UNL     1       0.967  -2.223   2.623  0.00  0.00    +0.007 C 
ATOM     17  C   UNL     1      -1.284  -2.144   1.542  0.00  0.00    +0.007 C 
ENDBRANCH  14  15
ENDBRANCH  13  14
ENDBRANCH   8  13
ENDBRANCH   1   9
BRANCH   5  18
ATOM     18  C   UNL     1       0.069  -0.269  -5.888  0.00  0.00    +0.215 C 
ATOM     19  O   UNL     1       1.095   0.365  -5.766  0.00  0.00    -0.276 OA
ATOM     20  N   UNL     1      -0.603  -0.244  -7.057  0.00  0.00    -0.309 N 
ATOM     21  H   UNL     1      -1.424  -0.751  -7.155  0.00  0.00    +0.149 HD
BRANCH  20  22
ATOM     22  C   UNL     1      -0.093   0.548  -8.178  0.00  0.00    +0.101 C 
ATOM     23  C   UNL     1      -0.618   1.981  -8.071  0.00  0.00    +0.033 C 
BRANCH  22  24
ATOM     24  C   UNL     1      -0.557  -0.061  -9.476  0.00  0.00    -0.020 A 
ATOM     25  C   UNL     1      -1.710  -0.785  -9.518  0.00  0.00    +0.006 A 
ATOM     26  C   UNL     1      -2.155  -1.356 -10.709  0.00  0.00    +0.001 A 
ATOM     27  C   UNL     1      -1.450  -1.207 -11.864  0.00  0.00    +0.008 A 
ATOM     28  C   UNL     1      -0.256  -0.467 -11.859  0.00  0.00    -0.018 A 
ATOM     29  C   UNL     1       0.194   0.119 -10.650  0.00  0.00    -0.013 A 
ATOM     30  C   UNL     1       1.386   0.865 -10.646  0.00  0.00    +0.009 A 
ATOM     31  C   UNL     1       2.087   1.018 -11.802  0.00  0.00    +0.001 A 
ATOM     32  C   UNL     1       1.641   0.448 -12.993  0.00  0.00    +0.001 A 
ATOM     33  C   UNL     1       0.499  -0.292 -13.032  0.00  0.00    +0.008 A 
ENDBRANCH  22  24
ENDBRANCH  20  22
ENDBRANCH   5  18
TORSDOF 7
