REMARK  Name = ZINC65146376
REMARK  4 active torsions:
REMARK  status: ('A' for Active; 'I' for Inactive)
REMARK    1  A    between atoms: C_9  and  C_11
REMARK    2  A    between atoms: N_13  and  N_14
REMARK    3  A    between atoms: N_17  and  C_18
REMARK    4  A    between atoms: C_18  and  C_19
REMARK                            x       y       z     vdW  Elec       q    Type
REMARK                         _______ _______ _______ _____ _____    ______ ____
ROOT
ATOM      1  C   UNL     1       1.225  -2.169  -0.022  0.00  0.00    +0.262 C 
ATOM      2  O   UNL     1       2.283  -2.768  -0.036  0.00  0.00    -0.269 OA
ATOM      3  N   UNL     1       0.064  -2.853  -0.014  0.00  0.00    -0.229 N 
ATOM      4  H   UNL     1      -0.780  -2.375  -0.003  0.00  0.00    +0.173 HD
ENDROOT
BRANCH   1  13
ATOM      5  C   UNL     1      -0.017   1.379   0.010  0.00  0.00    +0.001 A 
ATOM      6  C   UNL     1       1.160   2.097   0.002  0.00  0.00    +0.010 A 
ATOM      7  C   UNL     1       2.386   1.430  -0.013  0.00  0.00    +0.004 A 
ATOM      8  C   UNL     1       3.781   1.861  -0.022  0.00  0.00    -0.019 A 
ATOM      9  C   UNL     1       4.543   0.751  -0.038  0.00  0.00    +0.020 A 
ATOM     10  N   UNL     1       3.740  -0.355  -0.038  0.00  0.00    -0.357 N 
ATOM     11  H   UNL     1       4.056  -1.272  -0.048  0.00  0.00    +0.166 HD
ATOM     12  C   UNL     1       2.420   0.022  -0.022  0.00  0.00    +0.059 A 
ATOM     13  C   UNL     1       1.212  -0.694  -0.014  0.00  0.00    +0.062 A 
ATOM     14  C   UNL     1       0.002  -0.004   0.002  0.00  0.00    +0.015 A 
ATOM     15  C   UNL     1       6.054   0.772  -0.053  0.00  0.00    +0.053 C 
ATOM     16  C   UNL     1       6.517   2.173  -0.468  0.00  0.00    +0.006 C 
ATOM     17  C   UNL     1       5.797   3.223   0.383  0.00  0.00    +0.005 C 
ATOM     18  C   UNL     1       4.317   3.269  -0.015  0.00  0.00    +0.037 C 
ENDBRANCH   1  13
BRANCH   3  19
ATOM     19  N   UNL     1       0.076  -4.254  -0.022  0.00  0.00    -0.218 N 
ATOM     20  C   UNL     1      -1.085  -4.938  -0.014  0.00  0.00    +0.316 C 
ATOM     21  O   UNL     1      -1.075  -6.154  -0.021  0.00  0.00    -0.251 OA
ATOM     22  N   UNL     1      -2.258  -4.274   0.002  0.00  0.00    -0.296 N 
ATOM     23  H   UNL     1       0.920  -4.732  -0.033  0.00  0.00    +0.174 HD
ATOM     24  H   UNL     1      -2.267  -3.304   0.007  0.00  0.00    +0.150 HD
BRANCH  22  25
ATOM     25  C   UNL     1      -3.521  -5.018   0.010  0.00  0.00    +0.137 C 
BRANCH  25  26
ATOM     26  C   UNL     1      -4.692  -4.033   0.027  0.00  0.00    +0.135 C 
ATOM     27  C   UNL     1      -6.023  -4.806   0.153  0.00  0.00    +0.035 C 
ATOM     28  C   UNL     1      -6.958  -4.006  -0.795  0.00  0.00    +0.031 C 
ATOM     29  C   UNL     1      -5.959  -3.572  -1.897  0.00  0.00    +0.160 C 
ATOM     30  O   UNL     1      -4.730  -3.302  -1.204  0.00  0.00    -0.375 OA
ENDBRANCH  25  26
ENDBRANCH  22  25
ENDBRANCH   3  19
TORSDOF 4
