REMARK  Name = ZINC11747598
REMARK  9 active torsions:
REMARK  status: ('A' for Active; 'I' for Inactive)
REMARK    1  A    between atoms: C_1  and  C_2
REMARK    2  A    between atoms: C_2  and  N_3
REMARK    3  A    between atoms: N_3  and  C_4
REMARK    4  A    between atoms: C_12  and  C_14
REMARK    5  A    between atoms: C_14  and  S_15
REMARK    6  A    between atoms: S_15  and  C_16
REMARK    7  A    between atoms: N_20  and  C_21
REMARK    8  A    between atoms: C_21  and  C_22
REMARK    9  A    between atoms: C_31  and  C_34
REMARK                            x       y       z     vdW  Elec       q    Type
REMARK                         _______ _______ _______ _____ _____    ______ ____
ROOT
ATOM      1  C   UNL     1       0.761   1.343   4.665  0.00  0.00    +0.193 A 
ATOM      2  N   UNL     1       1.643   0.584   4.062  0.00  0.00    -0.121 NA
ATOM      3  N   UNL     1       1.192   0.350   2.756  0.00  0.00    -0.112 NA
ATOM      4  C   UNL     1       0.054   0.980   2.602  0.00  0.00    +0.220 A 
ATOM      5  N   UNL     1      -0.245   1.608   3.778  0.00  0.00    -0.288 N 
ATOM      6  N   UNL     1      -0.718   1.000   1.447  0.00  0.00    -0.300 N 
ATOM      7  C   UNL     1      -0.003   1.662   0.348  0.00  0.00    +0.108 C 
ATOM      8  C   UNL     1      -0.933   1.796  -0.860  0.00  0.00    +0.022 C 
ATOM      9  C   UNL     1      -1.399   0.404  -1.295  0.00  0.00    -0.011 C 
ATOM     10  C   UNL     1      -2.098  -0.282  -0.118  0.00  0.00    +0.022 C 
ATOM     11  C   UNL     1      -1.134  -0.356   1.069  0.00  0.00    +0.108 C 
ATOM     12  C   UNL     1      -2.378   0.535  -2.464  0.00  0.00    +0.007 C 
ENDROOT
BRANCH   1  13
ATOM     13  S   UNL     1       0.855   1.921   6.327  0.00  0.00    -0.077 S 
BRANCH  13  14
ATOM     14  C   UNL     1       2.411   1.225   6.946  0.00  0.00    +0.173 C 
BRANCH  14  16
ATOM     15  N   UNL     1       3.714   1.247   9.049  0.00  0.00    -0.296 N 
ATOM     16  C   UNL     1       2.616   1.648   8.378  0.00  0.00    +0.226 C 
ATOM     17  O   UNL     1       1.794   2.351   8.926  0.00  0.00    -0.275 OA
BRANCH  15  18
ATOM     18  C   UNL     1       3.913   1.658  10.441  0.00  0.00    +0.098 C 
ATOM     19  C   UNL     1       3.983   3.193  10.514  0.00  0.00    +0.046 C 
ATOM     20  C   UNL     1       3.878   3.611  12.009  0.00  0.00    +0.168 C 
ATOM     21  S   UNL     1       2.583   2.440  12.597  0.00  0.00    -0.029 S 
ATOM     22  O   UNL     1       1.311   3.061  12.480  0.00  0.00    -0.174 OA
ATOM     23  O   UNL     1       2.985   1.896  13.847  0.00  0.00    -0.174 OA
ATOM     24  C   UNL     1       2.737   1.142  11.303  0.00  0.00    +0.188 C 
ENDBRANCH  15  18
BRANCH  15  26
ATOM     25  C   UNL     1       5.758   1.279   7.707  0.00  0.00    +0.024 C 
ATOM     26  C   UNL     1       4.708   0.398   8.386  0.00  0.00    +0.105 C 
ENDBRANCH  15  26
ENDBRANCH  14  16
ENDBRANCH  13  14
ENDBRANCH   1  13
BRANCH   5  27
ATOM     27  C   UNL     1      -1.434   2.421   4.042  0.00  0.00    +0.158 C 
BRANCH  27  28
ATOM     28  C   UNL     1      -2.592   1.512   4.458  0.00  0.00    +0.138 C 
ATOM     29  C   UNL     1      -3.873   2.352   4.655  0.00  0.00    +0.035 C 
ATOM     30  C   UNL     1      -4.513   1.688   5.904  0.00  0.00    +0.031 C 
ATOM     31  C   UNL     1      -3.249   1.280   6.702  0.00  0.00    +0.160 C 
ATOM     32  O   UNL     1      -2.291   0.882   5.708  0.00  0.00    -0.375 OA
ENDBRANCH  27  28
ENDBRANCH   5  27
TORSDOF 7
