REMARK  Name = ZINC07980537
REMARK  6 active torsions:
REMARK  status: ('A' for Active; 'I' for Inactive)
REMARK    1  A    between atoms: C_1  and  C_2
REMARK    2  A    between atoms: C_3  and  C_8
REMARK    3  A    between atoms: C_4  and  C_7
REMARK    4  A    between atoms: C_9  and  C_10
REMARK    5  A    between atoms: N_12  and  N_13
REMARK    6  A    between atoms: N_13  and  C_14
REMARK                            x       y       z     vdW  Elec       q    Type
REMARK                         _______ _______ _______ _____ _____    ______ ____
ROOT
ATOM      1  C   UNL     1      -0.018   1.226  -0.098  0.00  0.00    +0.253 C 
ATOM      2  O   UNL     1       0.010   0.013  -0.002  0.00  0.00    -0.269 OA
ATOM      3  N   UNL     1      -1.199   1.876  -0.094  0.00  0.00    -0.233 N 
ATOM      4  H   UNL     1      -1.221   2.842  -0.171  0.00  0.00    +0.173 HD
ENDROOT
BRANCH   1   6
ATOM      5  C   UNL     1       2.376   1.305  -0.228  0.00  0.00    +0.018 C 
ATOM      6  C   UNL     1       1.192   1.956  -0.219  0.00  0.00    +0.069 C 
BRANCH   5   9
ATOM      7  C   UNL     1       3.130   3.608  -2.473  0.00  0.00    +0.070 C 
ATOM      8  C   UNL     1       3.985   3.090  -1.345  0.00  0.00    +0.088 A 
ATOM      9  C   UNL     1       3.629   2.061  -0.354  0.00  0.00    +0.040 A 
ATOM     10  C   UNL     1       4.763   1.978   0.421  0.00  0.00    +0.142 A 
ATOM     11  O   UNL     1       5.628   2.861  -0.085  0.00  0.00    -0.359 OA
ATOM     12  N   UNL     1       5.194   3.458  -1.039  0.00  0.00    -0.083 NA
ATOM     13  C   UNL     1       4.983   1.073   1.606  0.00  0.00    +0.090 C 
ENDBRANCH   5   9
ENDBRANCH   1   6
BRANCH   3  14
ATOM     14  N   UNL     1      -2.394   1.154   0.020  0.00  0.00    -0.259 N 
ATOM     15  H   UNL     1      -2.377   0.184   0.019  0.00  0.00    +0.170 HD
BRANCH  14  16
ATOM     16  C   UNL     1      -3.615   1.834   0.135  0.00  0.00    +0.121 A 
ATOM     17  C   UNL     1      -3.682   3.027   0.844  0.00  0.00    +0.186 A 
ATOM     18  C   UNL     1      -4.888   3.700   0.952  0.00  0.00    +0.198 A 
ATOM     19  C   UNL     1      -6.029   3.178   0.363  0.00  0.00    +0.199 A 
ATOM     20  C   UNL     1      -5.965   1.985  -0.339  0.00  0.00    +0.198 A 
ATOM     21  C   UNL     1      -4.760   1.312  -0.455  0.00  0.00    +0.186 A 
ATOM     22  F   UNL     1      -4.698   0.149  -1.139  0.00  0.00    -0.200 F 
ATOM     23  F   UNL     1      -7.078   1.478  -0.912  0.00  0.00    -0.199 F 
ATOM     24  F   UNL     1      -7.205   3.834   0.474  0.00  0.00    -0.199 F 
ATOM     25  F   UNL     1      -4.952   4.863   1.636  0.00  0.00    -0.199 F 
ATOM     26  F   UNL     1      -2.571   3.534   1.422  0.00  0.00    -0.200 F 
ENDBRANCH  14  16
ENDBRANCH   3  14
TORSDOF 4
