REMARK  Name = ZINC51036020
REMARK  7 active torsions:
REMARK  status: ('A' for Active; 'I' for Inactive)
REMARK    1  A    between atoms: C_1  and  C_2
REMARK    2  A    between atoms: C_2  and  C_3
REMARK    3  A    between atoms: C_3  and  C_5
REMARK    4  A    between atoms: C_3  and  N_24
REMARK    5  A    between atoms: C_5  and  C_7
REMARK    6  A    between atoms: C_5  and  S_13
REMARK    7  A    between atoms: S_13  and  C_14
REMARK                            x       y       z     vdW  Elec       q    Type
REMARK                         _______ _______ _______ _____ _____    ______ ____
ROOT
ATOM      1  C   UNL     1      -1.435  -2.040  -0.254  0.00  0.00    +0.068 C 
ENDROOT
BRANCH   1   2
ATOM      2  C   UNL     1      -2.897  -2.351  -0.446  0.00  0.00    -0.033 A 
ATOM      3  C   UNL     1      -3.641  -1.695  -1.415  0.00  0.00    +0.024 A 
ATOM      4  C   UNL     1      -4.979  -2.006  -1.562  0.00  0.00    +0.111 A 
ATOM      5  N   UNL     1      -5.549  -2.913  -0.794  0.00  0.00    -0.263 NA
ATOM      6  C   UNL     1      -4.873  -3.557   0.138  0.00  0.00    +0.111 A 
ATOM      7  C   UNL     1      -3.530  -3.303   0.339  0.00  0.00    +0.024 A 
ENDBRANCH   1   2
BRANCH   1   8
ATOM      8  C   UNL     1      -1.271  -0.564   0.114  0.00  0.00    -0.057 C 
BRANCH   8   9
ATOM      9  N   UNL     1      -2.059  -0.270   1.319  0.00  0.00    +0.381 N 
ATOM     10  H   UNL     1      -1.951   0.704   1.562  0.00  0.00    -0.090 HD
ATOM     11  H   UNL     1      -3.032  -0.466   1.141  0.00  0.00    -0.090 HD
ATOM     12  H   UNL     1      -1.734  -0.844   2.082  0.00  0.00    -0.090 HD
ENDBRANCH   8   9
BRANCH   8  14
ATOM     13  C   UNL     1       0.388   1.234   0.621  0.00  0.00    +0.002 C 
ATOM     14  C   UNL     1       0.205  -0.267   0.385  0.00  0.00    -0.018 C 
ENDBRANCH   8  14
ENDBRANCH   1   8
BRANCH   1  15
ATOM     15  S   UNL     1      -0.537  -2.384  -1.792  0.00  0.00    -0.097 S 
BRANCH  15  16
ATOM     16  C   UNL     1      -0.611  -4.137  -1.946  0.00  0.00    +0.126 A 
ATOM     17  C   UNL     1      -0.112  -4.776  -3.084  0.00  0.00    +0.117 A 
ATOM     18  C   UNL     1      -0.193  -6.175  -3.160  0.00  0.00    +0.182 A 
ATOM     19  N   UNL     1       0.350  -6.534  -4.339  0.00  0.00    -0.216 NA
ATOM     20  H   UNL     1       0.694  -3.449  -4.505  0.00  0.00    +0.167 HD
ATOM     21  C   UNL     1       0.753  -5.473  -4.981  0.00  0.00    +0.199 A 
ATOM     22  N   UNL     1       0.492  -4.363  -4.253  0.00  0.00    -0.341 N 
ATOM     23  N   UNL     1      -0.746  -6.842  -2.142  0.00  0.00    -0.214 NA
ATOM     24  C   UNL     1      -1.203  -6.199  -1.091  0.00  0.00    +0.224 A 
ATOM     25  N   UNL     1      -1.140  -4.884  -0.980  0.00  0.00    -0.227 NA
ENDBRANCH  15  16
ENDBRANCH   1  15
TORSDOF 6
