REMARK  Name = ZINC00641319
REMARK  6 active torsions:
REMARK  status: ('A' for Active; 'I' for Inactive)
REMARK    1  A    between atoms: C_1  and  C_2
REMARK    2  A    between atoms: C_6  and  N_9
REMARK    3  A    between atoms: C_7  and  C_8
REMARK    4  A    between atoms: C_10  and  C_12
REMARK    5  A    between atoms: C_13  and  C_27
REMARK    6  A    between atoms: C_18  and  C_20
REMARK                            x       y       z     vdW  Elec       q    Type
REMARK                         _______ _______ _______ _____ _____    ______ ____
ROOT
ATOM      1  C   UNL     1       2.464   5.745   0.062  0.00  0.00    +0.056 C 
ATOM      2  C   UNL     1       3.578   6.506   0.071  0.00  0.00    +0.017 C 
ATOM      3  N   UNL     1       3.505   7.865  -0.043  0.00  0.00    -0.300 N 
ATOM      4  C   UNL     1       2.354   8.538  -0.171  0.00  0.00    +0.135 C 
ATOM      5  S   UNL     1       2.403  10.244  -0.306  0.00  0.00    -0.019 S 
ATOM      6  N   UNL     1       1.159   7.917  -0.197  0.00  0.00    -0.315 N 
ATOM      7  C   UNL     1       1.130   6.448  -0.086  0.00  0.00    +0.139 C 
ATOM      8  C   UNL     1       4.926   5.846   0.210  0.00  0.00    +0.061 C 
ATOM      9  H   UNL     1       4.332   8.371  -0.031  0.00  0.00    +0.154 HD
ATOM     10  H   UNL     1       0.337   8.424  -0.291  0.00  0.00    +0.149 HD
ENDROOT
BRANCH   7  11
ATOM     11  C   UNL     1       0.283   6.094   1.109  0.00  0.00    -0.023 A 
ATOM     12  C   UNL     1       0.554   6.660   2.341  0.00  0.00    +0.007 A 
ATOM     13  C   UNL     1      -0.226   6.339   3.436  0.00  0.00    +0.020 A 
ATOM     14  C   UNL     1      -1.271   5.443   3.302  0.00  0.00    +0.041 A 
ATOM     15  C   UNL     1      -1.539   4.872   2.070  0.00  0.00    +0.020 A 
ATOM     16  C   UNL     1      -0.761   5.198   0.975  0.00  0.00    +0.007 A 
ATOM     17 CL   UNL     1      -2.246   5.034   4.679  0.00  0.00    -0.084 Cl
ENDBRANCH   7  11
BRANCH   1  19
ATOM     18  N   UNL     1       2.701   3.769   1.392  0.00  0.00    -0.281 N 
ATOM     19  C   UNL     1       2.539   4.336   0.180  0.00  0.00    +0.248 C 
ATOM     20  O   UNL     1       2.458   3.636  -0.813  0.00  0.00    -0.270 OA
ATOM     21  H   UNL     1       2.691   4.319   2.191  0.00  0.00    +0.155 HD
BRANCH  18  27
ATOM     22  C   UNL     1       2.579  -0.318   4.122  0.00  0.00    +0.044 C 
ATOM     23  C   UNL     1       2.832   0.379   2.810  0.00  0.00    -0.046 A 
ATOM     24  C   UNL     1       3.246  -0.349   1.709  0.00  0.00    +0.004 A 
ATOM     25  C   UNL     1       3.480   0.287   0.504  0.00  0.00    +0.002 A 
ATOM     26  C   UNL     1       3.300   1.652   0.395  0.00  0.00    +0.023 A 
ATOM     27  C   UNL     1       2.884   2.386   1.499  0.00  0.00    +0.037 A 
ATOM     28  C   UNL     1       2.651   1.744   2.708  0.00  0.00    -0.026 A 
ATOM     29  C   UNL     1       2.194   2.536   3.906  0.00  0.00    +0.046 C 
ENDBRANCH  18  27
ENDBRANCH   1  19
TORSDOF 3
