REMARK  Name = ZINC06231611
REMARK  5 active torsions:
REMARK  status: ('A' for Active; 'I' for Inactive)
REMARK    1  A    between atoms: C_1  and  O_2
REMARK    2  A    between atoms: O_2  and  C_3
REMARK    3  A    between atoms: C_3  and  C_5
REMARK    4  A    between atoms: C_8  and  C_10
REMARK    5  A    between atoms: C_10  and  N_11
REMARK                            x       y       z     vdW  Elec       q    Type
REMARK                         _______ _______ _______ _____ _____    ______ ____
ROOT
ATOM      1  N   UNL     1       0.533  -5.815  -1.408  0.00  0.00    -0.217 N 
ATOM      2  C   UNL     1      -0.235  -6.662  -2.125  0.00  0.00    +0.251 C 
ATOM      3  O   UNL     1      -1.246  -7.224  -1.762  0.00  0.00    -0.272 OA
ATOM      4  C   UNL     1       0.432  -6.761  -3.476  0.00  0.00    +0.139 C 
ATOM      5  C   UNL     1       0.843  -8.194  -3.778  0.00  0.00    +0.040 C 
ATOM      6  C   UNL     1       1.355  -8.304  -5.218  0.00  0.00    +0.008 C 
ATOM      7  C   UNL     1       0.177  -8.098  -6.181  0.00  0.00    +0.043 C 
ATOM      8  C   UNL     1      -0.581  -6.885  -5.753  0.00  0.00    -0.005 A 
ATOM      9  C   UNL     1      -0.505  -6.243  -4.554  0.00  0.00    -0.005 A 
ATOM     10  C   UNL     1      -1.317  -5.120  -4.397  0.00  0.00    +0.014 A 
ATOM     11  C   UNL     1      -2.127  -4.723  -5.405  0.00  0.00    +0.046 A 
ATOM     12  S   UNL     1      -1.777  -5.944  -6.661  0.00  0.00    -0.101 S 
ATOM     13  N   UNL     1       1.603  -5.885  -3.366  0.00  0.00    -0.281 N 
ATOM     14  C   UNL     1       1.576  -5.371  -2.120  0.00  0.00    +0.310 C 
ATOM     15  O   UNL     1       2.406  -4.594  -1.691  0.00  0.00    -0.252 OA
ATOM     16  H   UNL     1       2.264  -5.709  -4.053  0.00  0.00    +0.152 HD
ENDROOT
BRANCH   1  17
ATOM     17  C   UNL     1       0.256  -5.425  -0.023  0.00  0.00    +0.192 C 
BRANCH  17  21
ATOM     18  C   UNL     1      -1.248  -2.096   0.003  0.00  0.00    +0.212 A 
ATOM     19  C   UNL     1      -2.384  -2.856   0.004  0.00  0.00    +0.057 A 
ATOM     20  C   UNL     1      -1.972  -4.197  -0.006  0.00  0.00    +0.047 A 
ATOM     21  C   UNL     1      -0.621  -4.199  -0.012  0.00  0.00    +0.124 A 
ATOM     22  O   UNL     1      -0.188  -2.931  -0.012  0.00  0.00    -0.452 OA
BRANCH  18  23
ATOM     23  C   UNL     1      -1.191  -0.633   0.010  0.00  0.00    +0.375 C 
ATOM     24  O   UNL     1      -2.220   0.016   0.023  0.00  0.00    -0.241 OA
BRANCH  23  26
ATOM     25  C   UNL     1      -0.017   1.425   0.010  0.00  0.00    +0.280 C 
ATOM     26  O   UNL     1       0.002  -0.004   0.002  0.00  0.00    -0.462 OA
ENDBRANCH  23  26
ENDBRANCH  18  23
ENDBRANCH  17  21
ENDBRANCH   1  17
TORSDOF 4
