REMARK  Name = ZINC40160331
REMARK  8 active torsions:
REMARK  status: ('A' for Active; 'I' for Inactive)
REMARK    1  A    between atoms: C_1  and  C_2
REMARK    2  A    between atoms: C_2  and  C_3
REMARK    3  A    between atoms: C_2  and  C_4
REMARK    4  A    between atoms: C_4  and  C_6
REMARK    5  A    between atoms: C_4  and  N_19
REMARK    6  A    between atoms: N_15  and  C_18
REMARK    7  A    between atoms: C_20  and  C_22
REMARK    8  A    between atoms: C_25  and  N_29
REMARK                            x       y       z     vdW  Elec       q    Type
REMARK                         _______ _______ _______ _____ _____    ______ ____
ROOT
ATOM      1  C   UNL     1      -1.433  -0.534   0.013  0.00  0.00    +0.162 C 
ENDROOT
BRANCH   1   2
ATOM      2  C   UNL     1      -2.125  -0.137  -1.266  0.00  0.00    +0.239 C 
ATOM      3  O   UNL     1      -3.122   0.552  -1.228  0.00  0.00    -0.273 OA
ATOM      4  N   UNL     1      -1.635  -0.549  -2.452  0.00  0.00    -0.263 N 
ATOM      5  C   UNL     1      -2.272  -0.183  -3.632  0.00  0.00    +0.165 A 
ATOM      6  N   UNL     1      -1.945  -0.492  -4.868  0.00  0.00    -0.229 NA
ATOM      7  C   UNL     1      -2.654  -0.069  -5.908  0.00  0.00    +0.056 A 
ATOM      8  C   UNL     1      -3.729   0.701  -5.593  0.00  0.00    +0.028 A 
ATOM      9  S   UNL     1      -3.658   0.758  -3.826  0.00  0.00    -0.055 S 
ATOM     10  C   UNL     1      -4.699   1.318  -6.541  0.00  0.00    +0.128 C 
ATOM     11  N   UNL     1      -4.116   1.256  -7.896  0.00  0.00    -0.300 NA
ATOM     12  C   UNL     1      -3.614  -0.094  -8.186  0.00  0.00    +0.090 C 
ATOM     13  C   UNL     1      -2.351  -0.380  -7.367  0.00  0.00    +0.071 C 
ATOM     14  C   UNL     1      -5.091   1.684  -8.909  0.00  0.00    +0.105 C 
ATOM     15  H   UNL     1      -0.837  -1.100  -2.483  0.00  0.00    +0.157 HD
ENDBRANCH   1   2
BRANCH   1  16
ATOM     16  N   UNL     1      -2.155   0.035   1.154  0.00  0.00    -0.300 N 
ATOM     17  C   UNL     1      -2.067  -0.550   2.366  0.00  0.00    +0.246 C 
ATOM     18  O   UNL     1      -1.389  -1.549   2.511  0.00  0.00    -0.270 OA
ATOM     19  H   UNL     1      -2.696   0.831   1.038  0.00  0.00    +0.150 HD
BRANCH  17  20
ATOM     20  C   UNL     1      -2.795   0.023   3.517  0.00  0.00    +0.055 A 
ATOM     21  C   UNL     1      -3.579   1.167   3.352  0.00  0.00    +0.017 A 
ATOM     22  C   UNL     1      -4.256   1.696   4.431  0.00  0.00    +0.033 A 
ATOM     23  C   UNL     1      -4.160   1.097   5.675  0.00  0.00    +0.128 A 
ATOM     24  C   UNL     1      -3.385  -0.035   5.847  0.00  0.00    +0.053 A 
ATOM     25  C   UNL     1      -2.706  -0.580   4.774  0.00  0.00    +0.055 A 
ATOM     26 CL   UNL     1      -1.740  -2.006   4.989  0.00  0.00    -0.083 Cl
BRANCH  23  27
ATOM     27  N   UNL     1      -4.889   1.672   6.827  0.00  0.00    +0.056 N 
ATOM     28  O   UNL     1      -5.567   2.663   6.681  0.00  0.00    -0.126 OA
ATOM     29  O   UNL     1      -4.807   1.151   7.915  0.00  0.00    -0.126 OA
ENDBRANCH  23  27
ENDBRANCH  17  20
ENDBRANCH   1  16
BRANCH   1  31
ATOM     30  C   UNL     1      -0.019   1.526   0.010  0.00  0.00    +0.009 C 
ATOM     31  C   UNL     1       0.002  -0.004   0.002  0.00  0.00    +0.012 C 
ATOM     32  C   UNL     1       0.742  -0.511   1.242  0.00  0.00    +0.009 C 
ENDBRANCH   1  31
TORSDOF 5
