REMARK  Name = ZINC06533398
REMARK  5 active torsions:
REMARK  status: ('A' for Active; 'I' for Inactive)
REMARK    1  A    between atoms: C_5  and  C_6
REMARK    2  A    between atoms: C_6  and  C_8
REMARK    3  A    between atoms: C_8  and  S_9
REMARK    4  A    between atoms: S_9  and  C_10
REMARK    5  A    between atoms: C_14  and  N_16
REMARK                            x       y       z     vdW  Elec       q    Type
REMARK                         _______ _______ _______ _____ _____    ______ ____
ROOT
ATOM      1  C   UNL     1       4.679   5.976  -0.011  0.00  0.00    +0.192 A 
ATOM      2  N   UNL     1       5.502   4.938  -0.019  0.00  0.00    -0.207 NA
ATOM      3  C   UNL     1       6.821   5.114  -0.036  0.00  0.00    +0.122 A 
ATOM      4  C   UNL     1       7.332   6.409  -0.034  0.00  0.00    +0.086 A 
ATOM      5  C   UNL     1       6.436   7.474  -0.020  0.00  0.00    +0.122 A 
ATOM      6  N   UNL     1       5.129   7.222  -0.009  0.00  0.00    -0.207 NA
ATOM      7  N   UNL     1       7.676   4.023  -0.050  0.00  0.00    -0.343 N 
ATOM      8  H   UNL     1       8.636   4.159  -0.058  0.00  0.00    +0.144 HD
ATOM      9  H   UNL     1       7.313   3.123  -0.051  0.00  0.00    +0.144 HD
ENDROOT
BRANCH   5  10
ATOM     10  N   UNL     1       6.899   8.781  -0.018  0.00  0.00    -0.343 N 
ATOM     11  H   UNL     1       6.269   9.519  -0.009  0.00  0.00    +0.144 HD
ATOM     12  H   UNL     1       7.853   8.958  -0.026  0.00  0.00    +0.144 HD
ENDBRANCH   5  10
BRANCH   1  13
ATOM     13  S   UNL     1       2.940   5.692   0.004  0.00  0.00    -0.078 S 
BRANCH  13  14
ATOM     14  C   UNL     1       2.917   3.882  -0.005  0.00  0.00    +0.157 C 
BRANCH  14  15
ATOM     15  C   UNL     1       1.490   3.398   0.006  0.00  0.00    +0.180 C 
ATOM     16  O   UNL     1       0.577   4.199   0.018  0.00  0.00    -0.291 OA
BRANCH  15  21
ATOM     17  C   UNL     1      -0.017   1.365   0.009  0.00  0.00    +0.020 A 
ATOM     18  C   UNL     1       0.002  -0.004   0.002  0.00  0.00    +0.028 A 
ATOM     19  C   UNL     1       1.200  -0.653  -0.013  0.00  0.00    +0.079 A 
ATOM     20  S   UNL     1       2.353   0.641  -0.017  0.00  0.00    -0.074 S 
ATOM     21  C   UNL     1       1.215   2.014   0.001  0.00  0.00    +0.057 A 
ATOM     22 CL   UNL     1       1.500  -2.363  -0.025  0.00  0.00    -0.076 Cl
ENDBRANCH  15  21
ENDBRANCH  14  15
ENDBRANCH  13  14
ENDBRANCH   1  13
TORSDOF 5
