REMARK  Name = ZINC39733350
REMARK  6 active torsions:
REMARK  status: ('A' for Active; 'I' for Inactive)
REMARK    1  A    between atoms: C_1  and  C_2
REMARK    2  A    between atoms: C_2  and  C_3
REMARK    3  A    between atoms: C_2  and  C_4
REMARK    4  A    between atoms: C_4  and  C_5
REMARK    5  A    between atoms: N_9  and  C_13
REMARK    6  A    between atoms: C_15  and  C_26
REMARK                            x       y       z     vdW  Elec       q    Type
REMARK                         _______ _______ _______ _____ _____    ______ ____
ROOT
ATOM      1  C   UNL     1      -4.097  -3.872  -1.661  0.00  0.00    +0.203 C 
ATOM      2  C   UNL     1      -3.970  -5.379  -1.782  0.00  0.00    -0.002 C 
ATOM      3  C   UNL     1      -4.449  -5.964  -2.957  0.00  0.00    +0.004 A 
ATOM      4  C   UNL     1      -4.371  -7.359  -3.151  0.00  0.00    +0.030 A 
ATOM      5  C   UNL     1      -4.846  -7.904  -4.304  0.00  0.00    +0.042 A 
ATOM      6  C   UNL     1      -5.410  -7.109  -5.301  0.00  0.00    +0.022 A 
ATOM      7  C   UNL     1      -5.514  -5.758  -5.170  0.00  0.00    +0.025 A 
ATOM      8  C   UNL     1      -5.043  -5.127  -4.005  0.00  0.00    +0.041 A 
ATOM      9  N   UNL     1      -5.146  -3.800  -3.878  0.00  0.00    -0.283 N 
ATOM     10  C   UNL     1      -4.730  -3.135  -2.819  0.00  0.00    +0.243 C 
ATOM     11  O   UNL     1      -4.856  -1.925  -2.773  0.00  0.00    -0.273 OA
ATOM     12 CL   UNL     1      -4.747  -9.621  -4.539  0.00  0.00    -0.084 Cl
ATOM     13  H   UNL     1      -5.549  -3.299  -4.605  0.00  0.00    +0.155 HD
ENDROOT
BRANCH   1  17
ATOM     14  C   UNL     1      -0.915  -2.291  -0.579  0.00  0.00    +0.161 C 
ATOM     15  C   UNL     1      -2.363  -2.673  -0.344  0.00  0.00    +0.244 C 
ATOM     16  O   UNL     1      -3.030  -2.441   0.642  0.00  0.00    -0.273 OA
ATOM     17  N   UNL     1      -2.754  -3.322  -1.458  0.00  0.00    -0.208 N 
ATOM     18  C   UNL     1      -1.765  -3.403  -2.355  0.00  0.00    +0.310 C 
ATOM     19  O   UNL     1      -1.878  -3.944  -3.438  0.00  0.00    -0.252 OA
ATOM     20  N   UNL     1      -0.628  -2.820  -1.924  0.00  0.00    -0.288 N 
ATOM     21  H   UNL     1       0.213  -2.759  -2.403  0.00  0.00    +0.151 HD
BRANCH  14  22
ATOM     22  C   UNL     1      -0.748  -0.771  -0.552  0.00  0.00    +0.034 C 
BRANCH  22  24
ATOM     23  C   UNL     1       0.885   1.102  -0.818  0.00  0.00    +0.007 C 
ATOM     24  C   UNL     1       0.732  -0.417  -0.720  0.00  0.00    -0.015 C 
ATOM     25  C   UNL     1       1.520  -0.933   0.486  0.00  0.00    +0.007 C 
ENDBRANCH  22  24
ENDBRANCH  14  22
ENDBRANCH   1  17
BRANCH   2  26
ATOM     26  C   UNL     1      -3.389  -6.158  -0.749  0.00  0.00    -0.019 A 
ATOM     27  C   UNL     1      -2.194  -6.859  -0.979  0.00  0.00    +0.008 A 
ATOM     28  C   UNL     1      -1.639  -7.614   0.030  0.00  0.00    +0.001 A 
ATOM     29  C   UNL     1      -2.255  -7.682   1.269  0.00  0.00    +0.000 A 
ATOM     30  C   UNL     1      -3.434  -6.994   1.507  0.00  0.00    +0.001 A 
ATOM     31  C   UNL     1      -4.002  -6.229   0.512  0.00  0.00    +0.008 A 
ENDBRANCH   2  26
TORSDOF 4
