REMARK  Name = ZINC04795836
REMARK  6 active torsions:
REMARK  status: ('A' for Active; 'I' for Inactive)
REMARK    1  A    between atoms: C_1  and  C_2
REMARK    2  A    between atoms: C_2  and  C_3
REMARK    3  A    between atoms: C_3  and  C_4
REMARK    4  A    between atoms: C_4  and  N_5
REMARK    5  A    between atoms: C_18  and  C_20
REMARK    6  A    between atoms: C_24  and  N_26
REMARK                            x       y       z     vdW  Elec       q    Type
REMARK                         _______ _______ _______ _____ _____    ______ ____
ROOT
ATOM      1  N   UNL     1      -0.001   2.307   3.285  0.00  0.00    -0.299 N 
ATOM      2  C   UNL     1       0.294   2.163   1.978  0.00  0.00    +0.302 C 
ATOM      3  O   UNL     1       1.331   2.618   1.535  0.00  0.00    -0.253 OA
ATOM      4  N   UNL     1      -0.560   1.514   1.162  0.00  0.00    -0.285 N 
ATOM      5  C   UNL     1      -0.201   1.249  -0.238  0.00  0.00    +0.112 C 
ATOM      6  C   UNL     1      -1.302   1.809  -1.146  0.00  0.00    +0.056 C 
ATOM      7  C   UNL     1      -2.650   1.255  -0.711  0.00  0.00    +0.087 C 
ATOM      8  C   UNL     1      -2.964   1.622   0.733  0.00  0.00    +0.056 C 
ATOM      9  C   UNL     1      -1.872   1.060   1.652  0.00  0.00    +0.112 C 
ATOM     10  N   UNL     1      -2.718  -0.197  -0.915  0.00  0.00    -0.282 N 
ATOM     11  C   UNL     1      -3.638  -0.653  -1.957  0.00  0.00    +0.120 C 
ATOM     12  C   UNL     1      -4.858   0.308  -2.078  0.00  0.00    +0.090 C 
ATOM     13  S   UNL     1      -3.969   1.909  -1.812  0.00  0.00    -0.133 S 
ATOM     14  C   UNL     1      -1.978  -1.057  -0.188  0.00  0.00    +0.248 C 
ATOM     15  O   UNL     1      -1.072  -0.642   0.507  0.00  0.00    -0.270 OA
ATOM     16  H   UNL     1      -0.859   2.008   3.624  0.00  0.00    +0.150 HD
ENDROOT
BRANCH  14  17
ATOM     17  C   UNL     1      -2.269  -2.506  -0.235  0.00  0.00    +0.039 A 
ATOM     18  C   UNL     1      -2.886  -3.061  -1.358  0.00  0.00    +0.013 A 
ATOM     19  C   UNL     1      -3.150  -4.414  -1.398  0.00  0.00    +0.003 A 
ATOM     20  C   UNL     1      -2.815  -5.219  -0.324  0.00  0.00    +0.033 A 
ATOM     21  C   UNL     1      -2.209  -4.675   0.794  0.00  0.00    +0.127 A 
ATOM     22  C   UNL     1      -1.934  -3.324   0.845  0.00  0.00    +0.045 A 
BRANCH  21  23
ATOM     23  N   UNL     1      -1.854  -5.544   1.939  0.00  0.00    +0.056 N 
ATOM     24  O   UNL     1      -1.321  -5.066   2.924  0.00  0.00    -0.126 OA
ATOM     25  O   UNL     1      -2.096  -6.737   1.896  0.00  0.00    -0.126 OA
ENDBRANCH  21  23
ENDBRANCH  14  17
BRANCH   1  26
ATOM     26  C   UNL     1       0.975   2.914   4.194  0.00  0.00    +0.106 C 
BRANCH  26  27
ATOM     27  C   UNL     1       0.396   2.958   5.609  0.00  0.00    +0.018 C 
BRANCH  27  29
ATOM     28  C   UNL     1       0.835   3.636   7.973  0.00  0.00    +0.004 C 
ATOM     29  C   UNL     1       1.415   3.592   6.558  0.00  0.00    -0.002 C 
ENDBRANCH  27  29
ENDBRANCH  26  27
ENDBRANCH   1  26
TORSDOF 5
