REMARK  Name = ZINC67340963
REMARK  7 active torsions:
REMARK  status: ('A' for Active; 'I' for Inactive)
REMARK    1  A    between atoms: C_1  and  N_2
REMARK    2  A    between atoms: N_2  and  C_3
REMARK    3  A    between atoms: N_2  and  C_4
REMARK    4  A    between atoms: C_15  and  C_17
REMARK    5  A    between atoms: C_17  and  C_18
REMARK    6  A    between atoms: C_18  and  C_20
REMARK    7  A    between atoms: C_18  and  N_25
REMARK                            x       y       z     vdW  Elec       q    Type
REMARK                         _______ _______ _______ _____ _____    ______ ____
ROOT
ATOM      1  C   UNL     1       0.696  -0.493   1.213  0.00  0.00    -0.047 C 
ATOM      2  C   UNL     1      -0.036  -0.028   2.472  0.00  0.00    +0.023 C 
ATOM      3  C   UNL     1       0.539  -0.695   3.693  0.00  0.00    -0.027 A 
ATOM      4  C   UNL     1       0.333  -0.114   4.934  0.00  0.00    +0.005 A 
ATOM      5  C   UNL     1       0.846  -0.704   6.073  0.00  0.00    +0.000 A 
ATOM      6  C   UNL     1       1.568  -1.880   5.982  0.00  0.00    +0.002 A 
ATOM      7  C   UNL     1       1.779  -2.464   4.750  0.00  0.00    +0.024 A 
ATOM      8  C   UNL     1       1.266  -1.871   3.601  0.00  0.00    +0.039 A 
ATOM      9  N   UNL     1       1.498  -2.477   2.358  0.00  0.00    -0.273 N 
ATOM     10  C   UNL     1       0.726  -2.027   1.192  0.00  0.00    +0.099 C 
ATOM     11  C   UNL     1       2.417  -3.454   2.234  0.00  0.00    +0.222 C 
ATOM     12  O   UNL     1       3.128  -3.742   3.173  0.00  0.00    -0.275 OA
ENDROOT
BRANCH   1  14
ATOM     13  C   UNL     1      -0.041   1.470   0.049  0.00  0.00    -0.096 C 
ATOM     14  N   UNL     1      -0.009   0.002   0.023  0.00  0.00    +0.379 N 
ATOM     15  C   UNL     1       0.693  -0.451  -1.185  0.00  0.00    -0.096 C 
ATOM     16  H   UNL     1      -0.952  -0.355   0.018  0.00  0.00    -0.082 HD
ENDBRANCH   1  14
BRANCH  11  17
ATOM     17  C   UNL     1       2.561  -4.191   0.927  0.00  0.00    +0.124 C 
BRANCH  17  18
ATOM     18  C   UNL     1       3.564  -5.334   1.093  0.00  0.00    +0.120 C 
BRANCH  18  19
ATOM     19  N   UNL     1       3.031  -6.319   2.037  0.00  0.00    -0.292 N 
ATOM     20  C   UNL     1       3.871  -7.117   2.725  0.00  0.00    +0.298 C 
ATOM     21  O   UNL     1       5.072  -7.019   2.563  0.00  0.00    -0.253 OA
ATOM     22  N   UNL     1       3.380  -8.024   3.593  0.00  0.00    -0.313 N 
ATOM     23  H   UNL     1       2.072  -6.397   2.166  0.00  0.00    +0.151 HD
ATOM     24  H   UNL     1       2.421  -8.102   3.722  0.00  0.00    +0.146 HD
ATOM     25  H   UNL     1       3.984  -8.598   4.088  0.00  0.00    +0.146 HD
ENDBRANCH  18  19
BRANCH  18  26
ATOM     26  C   UNL     1       3.801  -5.993  -0.241  0.00  0.00    +0.010 A 
ATOM     27  C   UNL     1       4.835  -5.829  -1.103  0.00  0.00    +0.013 A 
ATOM     28  C   UNL     1       4.843  -6.548  -2.284  0.00  0.00    +0.008 A 
ATOM     29  C   UNL     1       3.818  -7.395  -2.545  0.00  0.00    +0.045 A 
ATOM     30  S   UNL     1       2.797  -7.198  -1.094  0.00  0.00    -0.100 S 
ENDBRANCH  18  26
ENDBRANCH  17  18
ENDBRANCH  11  17
TORSDOF 5
