REMARK  Name = ZINC44531872
REMARK  4 active torsions:
REMARK  status: ('A' for Active; 'I' for Inactive)
REMARK    1  A    between atoms: C_5  and  N_16
REMARK    2  A    between atoms: C_6  and  N_7
REMARK    3  A    between atoms: C_11  and  C_14
REMARK    4  A    between atoms: C_14  and  N_15
REMARK                            x       y       z     vdW  Elec       q    Type
REMARK                         _______ _______ _______ _____ _____    ______ ____
ROOT
ATOM      1  C   UNL     1      -0.017   1.389   0.010  0.00  0.00    +0.026 A 
ATOM      2  C   UNL     1       1.177   2.086   0.002  0.00  0.00    +0.019 A 
ATOM      3  C   UNL     1       2.364   1.395  -0.013  0.00  0.00    +0.041 A 
ATOM      4  C   UNL     1       2.421  -0.017  -0.021  0.00  0.00    +0.110 A 
ATOM      5  C   UNL     1       1.189  -0.703  -0.013  0.00  0.00    +0.173 A 
ATOM      6  C   UNL     1       0.002  -0.004   0.002  0.00  0.00    +0.062 A 
ATOM      7  N   UNL     1       3.680  -0.502  -0.036  0.00  0.00    -0.245 NA
ATOM      8  C   UNL     1       4.723   0.276  -0.042  0.00  0.00    +0.157 A 
ATOM      9  S   UNL     1       4.083   1.833  -0.027  0.00  0.00    -0.075 S 
ENDROOT
BRANCH   6  10
ATOM     10  N   UNL     1      -1.208  -0.707   0.010  0.00  0.00    -0.328 N 
ATOM     11  C   UNL     1      -1.846  -1.084   1.278  0.00  0.00    +0.105 C 
ATOM     12  C   UNL     1      -3.290  -0.573   1.275  0.00  0.00    +0.019 C 
ATOM     13  C   UNL     1      -4.010  -1.095   0.029  0.00  0.00    +0.005 C 
ATOM     14  C   UNL     1      -3.308  -0.570  -1.225  0.00  0.00    -0.011 C 
ATOM     15  C   UNL     1      -1.867  -1.076  -1.250  0.00  0.00    +0.106 C 
BRANCH  14  16
ATOM     16  C   UNL     1      -4.048  -1.065  -2.470  0.00  0.00    -0.081 C 
BRANCH  16  17
ATOM     17  N   UNL     1      -5.395  -0.480  -2.504  0.00  0.00    +0.378 N 
ATOM     18  H   UNL     1      -5.903  -0.757  -1.678  0.00  0.00    -0.090 HD
ATOM     19  H   UNL     1      -5.324   0.526  -2.533  0.00  0.00    -0.090 HD
ATOM     20  H   UNL     1      -5.883  -0.807  -3.324  0.00  0.00    -0.090 HD
ENDBRANCH  16  17
ENDBRANCH  14  16
ENDBRANCH   6  10
BRANCH   5  21
ATOM     21  N   UNL     1       1.171  -2.183  -0.021  0.00  0.00    +0.060 N 
ATOM     22  O   UNL     1       1.174  -2.793   1.023  0.00  0.00    -0.126 OA
ATOM     23  O   UNL     1       1.154  -2.782  -1.071  0.00  0.00    -0.126 OA
ENDBRANCH   5  21
TORSDOF 4
