REMARK  Name = ZINC09353798
REMARK  12 active torsions:
REMARK  status: ('A' for Active; 'I' for Inactive)
REMARK    1  A    between atoms: C_1  and  C_2
REMARK    2  A    between atoms: C_2  and  N_62
REMARK    3  A    between atoms: C_3  and  C_4
REMARK    4  A    between atoms: C_3  and  N_62
REMARK    5  A    between atoms: C_5  and  C_6
REMARK    6  A    between atoms: C_5  and  N_62
REMARK    7  A    between atoms: C_6  and  N_7
REMARK    8  A    between atoms: C_8  and  C_28
REMARK    9  A    between atoms: C_11  and  C_12
REMARK   10  A    between atoms: C_11  and  O_23
REMARK   11  A    between atoms: C_19  and  C_22
REMARK   12  A    between atoms: C_31  and  C_33
REMARK                            x       y       z     vdW  Elec       q    Type
REMARK                         _______ _______ _______ _____ _____    ______ ____
ROOT
ATOM      1  N   UNL     1       3.278  -1.403  -0.580  0.00  0.00    -0.282 N 
ATOM      2  C   UNL     1       1.929  -0.980  -0.194  0.00  0.00    +0.180 C 
ATOM      3  C   UNL     1       1.924   0.531  -0.222  0.00  0.00    +0.074 C 
ATOM      4  C   UNL     1       0.860   1.363   0.069  0.00  0.00    +0.133 C 
ATOM      5  C   UNL     1       3.218   0.918  -0.598  0.00  0.00    +0.249 C 
ATOM      6  O   UNL     1       3.612   2.064  -0.727  0.00  0.00    -0.282 OA
ATOM      7  C   UNL     1       4.028  -0.312  -0.811  0.00  0.00    +0.288 C 
ATOM      8  O   UNL     1       5.195  -0.328  -1.144  0.00  0.00    -0.266 OA
ENDROOT
BRANCH   4   9
ATOM      9  C   UNL     1       1.059   2.819   0.124  0.00  0.00    +0.017 A 
ATOM     10  C   UNL     1       0.239   3.672  -0.626  0.00  0.00    +0.015 A 
ATOM     11  C   UNL     1       0.429   5.032  -0.576  0.00  0.00    +0.046 A 
ATOM     12  C   UNL     1       1.439   5.577   0.220  0.00  0.00    +0.124 A 
ATOM     13  C   UNL     1       2.247   4.725   0.969  0.00  0.00    -0.002 A 
ATOM     14  C   UNL     1       2.066   3.365   0.930  0.00  0.00    +0.019 A 
ATOM     15  C   UNL     1       3.220   5.599   1.738  0.00  0.00    +0.083 C 
ATOM     16  C   UNL     1       2.568   6.995   1.605  0.00  0.00    +0.175 C 
ATOM     17  O   UNL     1       1.801   6.876   0.395  0.00  0.00    -0.488 OA
ATOM     18  C   UNL     1       3.638   8.081   1.468  0.00  0.00    +0.052 C 
ENDBRANCH   4   9
BRANCH   2  19
ATOM     19  C   UNL     1       0.922  -1.518  -1.177  0.00  0.00    +0.130 A 
ATOM     20  C   UNL     1      -0.301  -1.990  -0.873  0.00  0.00    +0.047 A 
ATOM     21  C   UNL     1      -0.901  -2.387  -2.090  0.00  0.00    +0.045 A 
ATOM     22  C   UNL     1      -0.009  -2.134  -3.065  0.00  0.00    +0.102 A 
ATOM     23  O   UNL     1       1.091  -1.603  -2.507  0.00  0.00    -0.463 OA
ATOM     24  C   UNL     1      -0.213  -2.396  -4.535  0.00  0.00    +0.086 C 
ENDBRANCH   2  19
BRANCH   4  25
ATOM     25  O   UNL     1      -0.362   0.839   0.305  0.00  0.00    -0.506 OA
ATOM     26  H   UNL     1      -1.009   1.577   0.497  0.00  0.00    +0.292 HD
ENDBRANCH   4  25
BRANCH   1  27
ATOM     27  C   UNL     1       3.737  -2.790  -0.690  0.00  0.00    +0.091 C 
BRANCH  27  28
ATOM     28  C   UNL     1       4.293  -3.252   0.658  0.00  0.00    -0.060 C 
BRANCH  28  29
ATOM     29  N   UNL     1       4.772  -4.644   0.520  0.00  0.00    +0.380 N 
ATOM     30  H   UNL     1       4.098  -5.174  -0.044  0.00  0.00    -0.082 HD
BRANCH  29  32
ATOM     31  C   UNL     1       6.451  -6.110  -0.487  0.00  0.00    -0.017 C 
ATOM     32  C   UNL     1       6.085  -4.661  -0.158  0.00  0.00    -0.082 C 
ENDBRANCH  29  32
BRANCH  29  33
ATOM     33  C   UNL     1       4.883  -5.273   1.853  0.00  0.00    -0.082 C 
ATOM     34  C   UNL     1       3.486  -5.695   2.314  0.00  0.00    -0.017 C 
ENDBRANCH  29  33
ENDBRANCH  28  29
ENDBRANCH  27  28
ENDBRANCH   1  27
TORSDOF 8
