REMARK  Name = ZINC42361587
REMARK  7 active torsions:
REMARK  status: ('A' for Active; 'I' for Inactive)
REMARK    1  A    between atoms: C_1  and  N_2
REMARK    2  A    between atoms: N_2  and  C_3
REMARK    3  A    between atoms: N_2  and  C_10
REMARK    4  A    between atoms: C_3  and  C_4
REMARK    5  A    between atoms: C_10  and  C_12
REMARK    6  A    between atoms: C_10  and  C_14
REMARK    7  A    between atoms: C_12  and  N_13
REMARK                            x       y       z     vdW  Elec       q    Type
REMARK                         _______ _______ _______ _____ _____    ______ ____
ROOT
ATOM      1  C   UNL     1      -1.212  -0.608  -0.635  0.00  0.00    +0.072 C 
ENDROOT
BRANCH   1   2
ATOM      2  C   UNL     1      -1.913   0.025  -1.810  0.00  0.00    +0.003 A 
ATOM      3  C   UNL     1      -1.321   1.077  -2.482  0.00  0.00    +0.011 A 
ATOM      4  C   UNL     1      -1.962   1.658  -3.560  0.00  0.00    +0.039 A 
ATOM      5  C   UNL     1      -3.198   1.186  -3.967  0.00  0.00    +0.126 A 
ATOM      6  C   UNL     1      -3.792   0.132  -3.295  0.00  0.00    +0.077 A 
ATOM      7  C   UNL     1      -3.146  -0.453  -2.219  0.00  0.00    +0.131 A 
ATOM      8  F   UNL     1      -3.722  -1.486  -1.565  0.00  0.00    -0.205 F 
ATOM      9  F   UNL     1      -3.825   1.754  -5.020  0.00  0.00    -0.205 F 
ENDBRANCH   1   2
BRANCH   1  11
ATOM     10  C   UNL     1       0.411   1.088  -0.044  0.00  0.00    +0.105 C 
ATOM     11  N   UNL     1       0.208  -0.233  -0.652  0.00  0.00    -0.296 NA
BRANCH  11  12
ATOM     12  C   UNL     1       1.029  -1.252   0.016  0.00  0.00    +0.120 C 
BRANCH  12  13
ATOM     13  C   UNL     1       2.474  -1.063  -0.368  0.00  0.00    -0.025 A 
ATOM     14  C   UNL     1       2.994  -1.703  -1.478  0.00  0.00    +0.028 A 
ATOM     15  C   UNL     1       4.299  -1.511  -1.796  0.00  0.00    +0.055 A 
ATOM     16  S   UNL     1       4.834  -0.400  -0.506  0.00  0.00    -0.090 S 
ATOM     17  C   UNL     1       3.282  -0.261   0.366  0.00  0.00    +0.051 A 
ATOM     18 BR   UNL     1       5.293  -2.235  -3.233  0.00  0.00    -0.043 Br
ENDBRANCH  12  13
ENDBRANCH  11  12
ENDBRANCH   1  11
BRANCH   1  19
ATOM     19  C   UNL     1      -1.853  -0.118   0.665  0.00  0.00    -0.062 C 
BRANCH  19  20
ATOM     20  N   UNL     1      -1.235  -0.808   1.806  0.00  0.00    +0.379 N 
ATOM     21  H   UNL     1      -0.296  -0.465   1.937  0.00  0.00    -0.090 HD
ATOM     22  H   UNL     1      -1.777  -0.632   2.639  0.00  0.00    -0.090 HD
ATOM     23  H   UNL     1      -1.209  -1.800   1.625  0.00  0.00    -0.090 HD
ENDBRANCH  19  20
ENDBRANCH   1  19
TORSDOF 6
