REMARK  Name = ZINC08971600
REMARK  10 active torsions:
REMARK  status: ('A' for Active; 'I' for Inactive)
REMARK    1  A    between atoms: C_1  and  C_2
REMARK    2  A    between atoms: C_2  and  C_3
REMARK    3  A    between atoms: C_2  and  C_4
REMARK    4  A    between atoms: C_4  and  C_5
REMARK    5  A    between atoms: C_5  and  C_7
REMARK    6  A    between atoms: C_5  and  N_16
REMARK    7  A    between atoms: C_10  and  S_12
REMARK    8  A    between atoms: S_12  and  C_15
REMARK    9  A    between atoms: N_16  and  S_17
REMARK   10  A    between atoms: S_17  and  C_20
REMARK                            x       y       z     vdW  Elec       q    Type
REMARK                         _______ _______ _______ _____ _____    ______ ____
ROOT
ATOM      1  C   UNL     1       2.204   2.286  -1.133  0.00  0.00    +0.164 C 
ENDROOT
BRANCH   1   2
ATOM      2  C   UNL     1       3.526   1.861  -0.548  0.00  0.00    +0.237 A 
ATOM      3  N   UNL     1       4.091   2.351   0.519  0.00  0.00    -0.109 NA
ATOM      4  N   UNL     1       5.209   1.749   0.725  0.00  0.00    -0.090 NA
ATOM      5  C   UNL     1       5.400   0.861  -0.208  0.00  0.00    +0.360 A 
ATOM      6  O   UNL     1       4.342   0.910  -1.034  0.00  0.00    -0.406 OA
BRANCH   5   7
ATOM      7  S   UNL     1       6.792  -0.210  -0.359  0.00  0.00    +0.047 S 
ATOM      8  O   UNL     1       6.869  -0.510  -1.746  0.00  0.00    -0.165 OA
ATOM      9  O   UNL     1       7.850   0.477   0.293  0.00  0.00    -0.165 OA
ATOM     10  C   UNL     1       6.340  -1.696   0.578  0.00  0.00    +0.206 C 
ENDBRANCH   5   7
ENDBRANCH   1   2
BRANCH   1  11
ATOM     11  N   UNL     1       1.213   2.409  -0.061  0.00  0.00    -0.182 NA
ATOM     12  H   UNL     1       1.374   3.011   0.682  0.00  0.00    +0.148 HD
BRANCH  11  13
ATOM     13  S   UNL     1      -0.183   1.520  -0.118  0.00  0.00    +0.034 S 
ATOM     14  O   UNL     1      -0.689   1.723  -1.431  0.00  0.00    -0.158 OA
ATOM     15  O   UNL     1      -0.927   1.938   1.018  0.00  0.00    -0.158 OA
BRANCH  13  16
ATOM     16  C   UNL     1       0.352  -0.202   0.085  0.00  0.00    +0.170 C 
ATOM     17  C   UNL     1       1.213  -0.624  -1.117  0.00  0.00    +0.052 C 
ATOM     18  C   UNL     1       1.405  -2.159  -1.116  0.00  0.00    +0.168 C 
ATOM     19  S   UNL     1      -0.115  -2.755  -0.268  0.00  0.00    -0.029 S 
ATOM     20  O   UNL     1       0.256  -3.409   0.939  0.00  0.00    -0.174 OA
ATOM     21  O   UNL     1      -0.934  -3.435  -1.208  0.00  0.00    -0.174 OA
ATOM     22  C   UNL     1      -0.890  -1.135   0.143  0.00  0.00    +0.193 C 
ENDBRANCH  13  16
ENDBRANCH  11  13
ENDBRANCH   1  11
BRANCH   1  23
ATOM     23  C   UNL     1       2.367   3.637  -1.833  0.00  0.00    +0.033 C 
BRANCH  23  25
ATOM     24  C   UNL     1       2.634   2.562  -4.073  0.00  0.00    +0.007 C 
ATOM     25  C   UNL     1       3.294   3.477  -3.040  0.00  0.00    -0.015 C 
ATOM     26  C   UNL     1       3.558   4.847  -3.666  0.00  0.00    +0.007 C 
ENDBRANCH  23  25
ENDBRANCH   1  23
TORSDOF 7
