REMARK  Name = ZINC66120062
REMARK  7 active torsions:
REMARK  status: ('A' for Active; 'I' for Inactive)
REMARK    1  A    between atoms: C_1  and  N_2
REMARK    2  A    between atoms: N_2  and  C_3
REMARK    3  A    between atoms: C_7  and  C_10
REMARK    4  A    between atoms: C_10  and  N_11
REMARK    5  A    between atoms: C_18  and  C_21
REMARK    6  A    between atoms: C_21  and  C_22
REMARK    7  A    between atoms: C_22  and  C_23
REMARK                            x       y       z     vdW  Elec       q    Type
REMARK                         _______ _______ _______ _____ _____    ______ ____
ROOT
ATOM      1  N   UNL     1      -1.388  -2.943  -5.349  0.00  0.00    -0.295 N 
ATOM      2  C   UNL     1      -1.637  -3.548  -6.528  0.00  0.00    +0.302 C 
ATOM      3  O   UNL     1      -0.720  -3.815  -7.280  0.00  0.00    -0.253 OA
ATOM      4  N   UNL     1      -2.903  -3.857  -6.872  0.00  0.00    -0.285 N 
ATOM      5  C   UNL     1      -4.032  -3.434  -6.032  0.00  0.00    +0.109 C 
ATOM      6  C   UNL     1      -5.037  -2.673  -6.903  0.00  0.00    +0.019 C 
ATOM      7  C   UNL     1      -5.433  -3.544  -8.097  0.00  0.00    +0.006 C 
ATOM      8  C   UNL     1      -4.194  -3.848  -8.943  0.00  0.00    +0.007 C 
ATOM      9  C   UNL     1      -3.181  -4.617  -8.098  0.00  0.00    +0.112 C 
ATOM     10  H   UNL     1      -2.124  -2.665  -4.782  0.00  0.00    +0.151 HD
ENDROOT
BRANCH   1  11
ATOM     11  C   UNL     1      -0.006  -2.706  -4.925  0.00  0.00    +0.142 C 
BRANCH  11  18
ATOM     12  C   UNL     1      -0.017   1.437   0.028  0.00  0.00    +0.130 C 
ATOM     13  N   UNL     1       0.004  -0.028   0.014  0.00  0.00    -0.323 N 
ATOM     14  C   UNL     1       0.029  -0.772   1.276  0.00  0.00    +0.130 C 
ATOM     15  C   UNL     1       0.002  -0.711  -1.196  0.00  0.00    +0.098 A 
ATOM     16  C   UNL     1       0.017  -2.103  -1.202  0.00  0.00    +0.042 A 
ATOM     17  C   UNL     1       0.015  -2.770  -2.413  0.00  0.00    +0.010 A 
ATOM     18  C   UNL     1      -0.003  -2.021  -3.583  0.00  0.00    -0.014 A 
ATOM     19  C   UNL     1      -0.018  -0.643  -3.503  0.00  0.00    +0.089 A 
ATOM     20  N   UNL     1      -0.020  -0.033  -2.333  0.00  0.00    -0.349 N 
ATOM     21  H   UNL     1      -0.034   0.937  -2.305  0.00  0.00    +0.167 HD
ENDBRANCH  11  18
ENDBRANCH   1  11
BRANCH   8  22
ATOM     22  C   UNL     1      -4.597  -4.691 -10.155  0.00  0.00    +0.014 C 
BRANCH  22  23
ATOM     23  C   UNL     1      -3.383  -4.889 -11.064  0.00  0.00    +0.096 C 
BRANCH  23  24
ATOM     24  C   UNL     1      -3.780  -5.719 -12.258  0.00  0.00    +0.210 C 
ATOM     25  O   UNL     1      -4.922  -6.113 -12.370  0.00  0.00    -0.276 OA
ATOM     26  N   UNL     1      -2.866  -6.024 -13.201  0.00  0.00    -0.329 N 
ATOM     27  H   UNL     1      -1.953  -5.709 -13.111  0.00  0.00    +0.145 HD
ATOM     28  H   UNL     1      -3.122  -6.558 -13.969  0.00  0.00    +0.145 HD
ENDBRANCH  23  24
ENDBRANCH  22  23
ENDBRANCH   8  22
TORSDOF 5
