REMARK  Name = ZINC09331319
REMARK  1 active torsions:
REMARK  status: ('A' for Active; 'I' for Inactive)
REMARK    1  A    between atoms: C_10  and  N_11
REMARK                            x       y       z     vdW  Elec       q    Type
REMARK                         _______ _______ _______ _____ _____    ______ ____
ROOT
ATOM      1  N   UNL     1       0.002  -0.004   0.002  0.00  0.00    -0.209 N 
ATOM      2  C   UNL     1       0.023  -0.771   1.141  0.00  0.00    +0.228 C 
ATOM      3  O   UNL     1      -0.191  -0.412   2.279  0.00  0.00    -0.275 OA
ATOM      4  C   UNL     1       0.354  -2.097   0.685  0.00  0.00    +0.074 C 
ATOM      5  C   UNL     1       0.224  -3.508   1.127  0.00  0.00    -0.054 C 
ATOM      6  C   UNL     1       1.321  -3.851   2.181  0.00  0.00    -0.016 C 
ATOM      7  C   UNL     1       2.266  -4.857   1.492  0.00  0.00    -0.020 C 
ATOM      8  C   UNL     1       2.068  -4.544  -0.010  0.00  0.00    -0.076 C 
ATOM      9  C   UNL     1       0.355  -3.351  -1.279  0.00  0.00    +0.053 C 
ATOM     10  C   UNL     1      -0.384  -2.146  -0.713  0.00  0.00    +0.089 C 
ATOM     11  C   UNL     1      -0.004  -0.755  -1.139  0.00  0.00    +0.229 C 
ATOM     12  O   UNL     1       0.247  -0.379  -2.264  0.00  0.00    -0.275 OA
ATOM     13  C   UNL     1       1.598  -2.958  -2.023  0.00  0.00    -0.024 A 
ATOM     14  C   UNL     1       2.734  -2.253  -1.687  0.00  0.00    +0.043 A 
ATOM     15  C   UNL     1       3.737  -2.051  -2.619  0.00  0.00    +0.124 A 
ATOM     16  C   UNL     1       3.596  -2.555  -3.901  0.00  0.00    +0.040 A 
ATOM     17  C   UNL     1       2.457  -3.251  -4.249  0.00  0.00    +0.026 A 
ATOM     18  C   UNL     1       1.443  -3.454  -3.316  0.00  0.00    +0.036 A 
ATOM     19  N   UNL     1       0.214  -4.107  -3.439  0.00  0.00    -0.286 N 
ATOM     20  C   UNL     1      -0.491  -4.081  -2.294  0.00  0.00    +0.212 C 
ATOM     21  O   UNL     1      -1.593  -4.554  -2.112  0.00  0.00    -0.277 OA
ATOM     22  F   UNL     1       4.849  -1.365  -2.280  0.00  0.00    -0.205 F 
ATOM     23  H   UNL     1      -0.095  -4.530  -4.255  0.00  0.00    +0.155 HD
ATOM     24  N   UNL     1       0.628  -4.227  -0.096  0.00  0.00    +0.395 N 
ATOM     25  H   UNL     1       0.090  -5.097  -0.182  0.00  0.00    -0.079 HD
ENDROOT
BRANCH   1  35
ATOM     26  C   UNL     1      -3.632   3.501   0.056  0.00  0.00    +0.001 A 
ATOM     27  C   UNL     1      -3.635   2.108   0.049  0.00  0.00    +0.001 A 
ATOM     28  C   UNL     1      -2.470   1.405   0.033  0.00  0.00    +0.010 A 
ATOM     29  C   UNL     1      -1.244   2.090   0.019  0.00  0.00    +0.004 A 
ATOM     30  C   UNL     1      -1.240   3.507   0.032  0.00  0.00    -0.016 A 
ATOM     31  C   UNL     1      -2.463   4.199   0.048  0.00  0.00    +0.008 A 
ATOM     32  C   UNL     1      -0.014   4.194   0.024  0.00  0.00    +0.008 A 
ATOM     33  C   UNL     1       1.156   3.498   0.009  0.00  0.00    +0.002 A 
ATOM     34  C   UNL     1       1.163   2.106   0.002  0.00  0.00    +0.024 A 
ATOM     35  C   UNL     1      -0.017   1.395   0.010  0.00  0.00    +0.052 A 
ENDBRANCH   1  35
TORSDOF 1
