REMARK  Name = ZINC00727612
REMARK  5 active torsions:
REMARK  status: ('A' for Active; 'I' for Inactive)
REMARK    1  A    between atoms: C_3  and  C_8
REMARK    2  A    between atoms: N_10  and  N_11
REMARK    3  A    between atoms: C_12  and  C_13
REMARK    4  A    between atoms: C_17  and  O_20
REMARK    5  A    between atoms: C_18  and  O_19
REMARK                            x       y       z     vdW  Elec       q    Type
REMARK                         _______ _______ _______ _____ _____    ______ ____
ROOT
ATOM      1  N   UNL     1      -2.543   5.161   0.051  0.00  0.00    -0.187 NA
ATOM      2  C   UNL     1      -2.526   3.863   0.045  0.00  0.00    +0.142 C 
ENDROOT
BRANCH   2   3
ATOM      3  C   UNL     1      -1.240   3.143   0.030  0.00  0.00    +0.040 A 
ATOM      4  C   UNL     1      -1.218   1.745   0.017  0.00  0.00    +0.013 A 
ATOM      5  C   UNL     1      -0.013   1.076   0.008  0.00  0.00    +0.004 A 
ATOM      6  C   UNL     1       1.179   1.781   0.000  0.00  0.00    +0.049 A 
ATOM      7  C   UNL     1       1.172   3.167   0.007  0.00  0.00    +0.159 A 
ATOM      8  C   UNL     1      -0.035   3.856   0.022  0.00  0.00    +0.167 A 
BRANCH   8   9
ATOM      9  O   UNL     1      -0.046   5.215   0.030  0.00  0.00    -0.503 OA
ATOM     10  H   UNL     1      -0.057   5.613  -0.852  0.00  0.00    +0.292 HD
ENDBRANCH   8   9
BRANCH   7  11
ATOM     11  O   UNL     1       2.346   3.853  -0.001  0.00  0.00    -0.503 OA
ATOM     12  H   UNL     1       2.677   4.056  -0.886  0.00  0.00    +0.292 HD
ENDBRANCH   7  11
ENDBRANCH   2   3
BRANCH   1  15
ATOM     13  C   UNL     1      -3.784   7.193   0.072  0.00  0.00    +0.263 C 
ATOM     14  O   UNL     1      -2.739   7.815   0.065  0.00  0.00    -0.268 OA
ATOM     15  N   UNL     1      -3.766   5.845   0.066  0.00  0.00    -0.203 N 
ATOM     16  H   UNL     1      -4.599   5.349   0.071  0.00  0.00    +0.178 HD
BRANCH  13  19
ATOM     17  C   UNL     1      -7.475   7.883   0.109  0.00  0.00    +0.002 A 
ATOM     18  C   UNL     1      -6.275   7.204   0.089  0.00  0.00    +0.013 A 
ATOM     19  C   UNL     1      -5.073   7.915   0.087  0.00  0.00    +0.039 A 
ATOM     20  C   UNL     1      -5.095   9.310   0.094  0.00  0.00    +0.027 A 
ATOM     21  C   UNL     1      -6.303   9.978   0.108  0.00  0.00    +0.014 A 
ATOM     22  C   UNL     1      -7.490   9.267   0.116  0.00  0.00    +0.014 A 
ATOM     23  I   UNL     1      -6.339  12.073   0.118  0.00  0.00    -0.044 I 
ENDBRANCH  13  19
ENDBRANCH   1  15
TORSDOF 5
