REMARK  Name = ZINC21847161
REMARK  8 active torsions:
REMARK  status: ('A' for Active; 'I' for Inactive)
REMARK    1  A    between atoms: C_1  and  C_2
REMARK    2  A    between atoms: C_2  and  O_3
REMARK    3  A    between atoms: O_3  and  C_4
REMARK    4  A    between atoms: C_4  and  C_6
REMARK    5  A    between atoms: C_10  and  N_11
REMARK    6  A    between atoms: C_12  and  C_14
REMARK    7  A    between atoms: C_14  and  N_15
REMARK    8  A    between atoms: C_18  and  C_21
REMARK                            x       y       z     vdW  Elec       q    Type
REMARK                         _______ _______ _______ _____ _____    ______ ____
ROOT
ATOM      1  N   UNL     1       0.007   1.391  -0.296  0.00  0.00    -0.281 N 
ATOM      2  C   UNL     1       1.153   2.100  -0.278  0.00  0.00    +0.201 C 
ATOM      3  O   UNL     1       2.211   1.547  -0.494  0.00  0.00    -0.278 OA
ATOM      4  H   UNL     1      -0.953   1.892  -0.100  0.00  0.00    +0.155 HD
ENDROOT
BRANCH   1   9
ATOM      5  C   UNL     1      -1.026  -0.861  -0.618  0.00  0.00    +0.091 A 
ATOM      6  C   UNL     1      -0.722  -2.249  -0.923  0.00  0.00    -0.021 A 
ATOM      7  C   UNL     1       0.587  -2.523  -1.111  0.00  0.00    -0.004 A 
ATOM      8  S   UNL     1       1.410  -0.971  -0.896  0.00  0.00    -0.077 S 
ATOM      9  C   UNL     1       0.037   0.031  -0.561  0.00  0.00    +0.086 A 
ATOM     10  C   UNL     1       1.194  -3.854  -1.429  0.00  0.00    +0.043 C 
ATOM     11  C   UNL     1       0.150  -4.943  -1.144  0.00  0.00    +0.005 C 
ATOM     12  C   UNL     1      -1.179  -4.532  -1.784  0.00  0.00    +0.005 C 
ATOM     13  C   UNL     1      -1.776  -3.345  -1.026  0.00  0.00    +0.037 C 
BRANCH   5  14
ATOM     14  C   UNL     1      -2.402  -0.419  -0.382  0.00  0.00    +0.342 C 
ATOM     15  O   UNL     1      -3.086  -0.037  -1.313  0.00  0.00    -0.245 OA
BRANCH  14  16
ATOM     16  O   UNL     1      -2.911  -0.434   0.867  0.00  0.00    -0.461 OA
BRANCH  16  18
ATOM     17  C   UNL     1      -4.681  -0.071   2.500  0.00  0.00    +0.048 C 
ATOM     18  C   UNL     1      -4.282   0.018   1.026  0.00  0.00    +0.229 C 
ENDBRANCH  16  18
ENDBRANCH  14  16
ENDBRANCH   5  14
ENDBRANCH   1   9
BRANCH   2  19
ATOM     19  C   UNL     1       1.121   3.578   0.011  0.00  0.00    +0.019 C 
BRANCH  19  20
ATOM     20  N   UNL     1       2.495   4.086   0.121  0.00  0.00    +0.385 N 
ATOM     21  C   UNL     1       2.513   5.554   0.151  0.00  0.00    -0.077 C 
ATOM     22  C   UNL     1       3.960   6.049   0.119  0.00  0.00    -0.006 C 
ATOM     23  C   UNL     1       4.713   5.486   1.328  0.00  0.00    +0.071 C 
ATOM     24  C   UNL     1       4.639   3.957   1.299  0.00  0.00    -0.006 C 
ATOM     25  C   UNL     1       3.171   3.523   1.296  0.00  0.00    -0.077 C 
ATOM     26  H   UNL     1       3.049   3.762  -0.772  0.00  0.00    -0.081 HD
BRANCH  23  27
ATOM     27  C   UNL     1       6.155   5.921   1.270  0.00  0.00    +0.213 C 
ATOM     28  O   UNL     1       7.037   5.090   1.211  0.00  0.00    -0.276 OA
ATOM     29  N   UNL     1       6.465   7.233   1.283  0.00  0.00    -0.329 N 
ATOM     30  H   UNL     1       7.517   7.550   1.241  0.00  0.00    +0.145 HD
ATOM     31  H   UNL     1       5.665   7.986   1.336  0.00  0.00    +0.145 HD
ENDBRANCH  23  27
ENDBRANCH  19  20
ENDBRANCH   2  19
TORSDOF 7
