REMARK  Name = ZINC09533198
REMARK  8 active torsions:
REMARK  status: ('A' for Active; 'I' for Inactive)
REMARK    1  A    between atoms: C_1  and  C_2
REMARK    2  A    between atoms: N_4  and  C_5
REMARK    3  A    between atoms: C_5  and  C_7
REMARK    4  A    between atoms: C_5  and  C_18
REMARK    5  A    between atoms: C_7  and  C_8
REMARK    6  A    between atoms: N_20  and  N_21
REMARK    7  A    between atoms: C_22  and  C_24
REMARK    8  A    between atoms: C_27  and  C_29
REMARK                            x       y       z     vdW  Elec       q    Type
REMARK                         _______ _______ _______ _____ _____    ______ ____
ROOT
ATOM      1  C   UNL     1      -2.074   1.677   1.252  0.00  0.00    +0.250 C 
ATOM      2  O   UNL     1      -1.807   0.654   1.845  0.00  0.00    -0.272 OA
ATOM      3  N   UNL     1      -3.068   2.473   1.694  0.00  0.00    -0.233 N 
ATOM      4  H   UNL     1      -3.281   3.292   1.219  0.00  0.00    +0.173 HD
ENDROOT
BRANCH   3   5
ATOM      5  N   UNL     1      -3.792   2.119   2.839  0.00  0.00    -0.230 N 
ATOM      6  C   UNL     1      -4.786   2.915   3.281  0.00  0.00    +0.267 C 
ATOM      7  O   UNL     1      -5.053   3.942   2.686  0.00  0.00    -0.268 OA
ATOM      8  H   UNL     1      -3.579   1.300   3.314  0.00  0.00    +0.173 HD
BRANCH   6   9
ATOM      9  C   UNL     1      -5.543   2.544   4.479  0.00  0.00    +0.076 A 
ATOM     10  C   UNL     1      -6.587   3.220   5.094  0.00  0.00    +0.021 A 
ATOM     11  C   UNL     1      -7.152   2.676   6.213  0.00  0.00    +0.017 A 
ATOM     12  C   UNL     1      -6.653   1.476   6.696  0.00  0.00    +0.020 A 
ATOM     13  S   UNL     1      -5.356   1.110   5.526  0.00  0.00    -0.084 S 
BRANCH  12  14
ATOM     14  C   UNL     1      -7.085   0.700   7.876  0.00  0.00    -0.011 A 
ATOM     15  C   UNL     1      -8.130   1.165   8.677  0.00  0.00    +0.012 A 
ATOM     16  C   UNL     1      -8.532   0.433   9.774  0.00  0.00    +0.039 A 
ATOM     17  C   UNL     1      -7.894  -0.756  10.089  0.00  0.00    +0.123 A 
ATOM     18  C   UNL     1      -6.853  -1.220   9.301  0.00  0.00    +0.039 A 
ATOM     19  C   UNL     1      -6.446  -0.499   8.198  0.00  0.00    +0.012 A 
ATOM     20  F   UNL     1      -8.288  -1.466  11.169  0.00  0.00    -0.205 F 
ENDBRANCH  12  14
ENDBRANCH   6   9
ENDBRANCH   3   5
BRANCH   1  21
ATOM     21  C   UNL     1      -1.295   2.059   0.019  0.00  0.00    +0.165 C 
BRANCH  21  25
ATOM     22  C   UNL     1       1.317  -0.740  -0.015  0.00  0.00    +0.109 C 
ATOM     23  C   UNL     1       0.002  -0.004   0.002  0.00  0.00    +0.211 C 
ATOM     24  O   UNL     1      -1.040  -0.625   0.009  0.00  0.00    -0.276 OA
ATOM     25  N   UNL     1      -0.016   1.344   0.009  0.00  0.00    -0.304 N 
ATOM     26  H   UNL     1       0.817   1.840   0.004  0.00  0.00    +0.149 HD
ENDBRANCH  21  25
BRANCH  21  27
ATOM     27  C   UNL     1      -2.098   1.685  -1.228  0.00  0.00    +0.069 C 
BRANCH  27  28
ATOM     28  C   UNL     1      -1.376   2.176  -2.456  0.00  0.00    -0.020 A 
ATOM     29  C   UNL     1      -1.591   3.335  -3.099  0.00  0.00    +0.087 A 
ATOM     30  N   UNL     1      -0.746   3.438  -4.171  0.00  0.00    -0.360 N 
ATOM     31  H   UNL     1      -0.716   4.187  -4.786  0.00  0.00    +0.165 HD
ATOM     32  C   UNL     1       0.054   2.320  -4.245  0.00  0.00    +0.047 A 
ATOM     33  C   UNL     1      -0.301   1.483  -3.171  0.00  0.00    +0.003 A 
ATOM     34  C   UNL     1       0.357   0.265  -2.990  0.00  0.00    +0.010 A 
ATOM     35  C   UNL     1       1.346  -0.107  -3.856  0.00  0.00    +0.001 A 
ATOM     36  C   UNL     1       1.702   0.717  -4.915  0.00  0.00    +0.002 A 
ATOM     37  C   UNL     1       1.061   1.919  -5.117  0.00  0.00    +0.026 A 
ENDBRANCH  27  28
ENDBRANCH  21  27
ENDBRANCH   1  21
TORSDOF 7
