REMARK  Name = ZINC65488901
REMARK  8 active torsions:
REMARK  status: ('A' for Active; 'I' for Inactive)
REMARK    1  A    between atoms: C_1  and  C_2
REMARK    2  A    between atoms: C_2  and  C_4
REMARK    3  A    between atoms: C_2  and  N_11
REMARK    4  A    between atoms: N_6  and  C_7
REMARK    5  A    between atoms: C_7  and  C_8
REMARK    6  A    between atoms: C_7  and  C_9
REMARK    7  A    between atoms: C_7  and  C_10
REMARK    8  A    between atoms: C_12  and  C_14
REMARK                            x       y       z     vdW  Elec       q    Type
REMARK                         _______ _______ _______ _____ _____    ______ ____
ROOT
ATOM      1  N   UNL     1      -1.372  -0.511   0.012  0.00  0.00    -0.300 N 
ATOM      2  C   UNL     1      -2.051  -0.643  -1.145  0.00  0.00    +0.246 C 
ATOM      3  O   UNL     1      -1.522  -0.341  -2.197  0.00  0.00    -0.270 OA
ATOM      4  H   UNL     1      -1.794  -0.752   0.852  0.00  0.00    +0.150 HD
ENDROOT
BRANCH   2   5
ATOM      5  C   UNL     1      -3.438  -1.155  -1.134  0.00  0.00    +0.051 A 
ATOM      6  C   UNL     1      -4.542  -0.272  -1.019  0.00  0.00    +0.013 A 
ATOM      7  C   UNL     1      -4.362   1.113  -0.907  0.00  0.00    +0.011 A 
ATOM      8  C   UNL     1      -5.450   1.926  -0.798  0.00  0.00    +0.001 A 
ATOM      9  C   UNL     1      -6.739   1.397  -0.796  0.00  0.00    +0.002 A 
ATOM     10  C   UNL     1      -6.949   0.057  -0.903  0.00  0.00    +0.028 A 
ATOM     11  C   UNL     1      -5.850  -0.815  -1.017  0.00  0.00    +0.072 A 
ATOM     12  N   UNL     1      -6.026  -2.132  -1.121  0.00  0.00    -0.251 NA
ATOM     13  C   UNL     1      -5.018  -2.970  -1.228  0.00  0.00    +0.046 A 
ATOM     14  C   UNL     1      -3.700  -2.515  -1.243  0.00  0.00    -0.013 A 
ATOM     15  C   UNL     1      -2.754  -3.687  -1.380  0.00  0.00    +0.038 C 
ATOM     16  C   UNL     1      -3.594  -4.928  -1.012  0.00  0.00    +0.011 C 
ATOM     17  C   UNL     1      -5.027  -4.481  -1.354  0.00  0.00    +0.056 C 
ENDBRANCH   2   5
BRANCH   1  19
ATOM     18  C   UNL     1      -0.019   1.526   0.010  0.00  0.00    +0.038 C 
ATOM     19  C   UNL     1       0.002  -0.004   0.002  0.00  0.00    +0.156 C 
BRANCH  19  20
ATOM     20  C   UNL     1       0.731  -0.503   1.223  0.00  0.00    +0.233 C 
ATOM     21  O   UNL     1       0.159  -1.213   2.023  0.00  0.00    -0.274 OA
ATOM     22  N   UNL     1       2.019  -0.161   1.426  0.00  0.00    -0.309 N 
ATOM     23  H   UNL     1       2.476   0.406   0.786  0.00  0.00    +0.149 HD
BRANCH  22  24
ATOM     24  C   UNL     1       2.727  -0.647   2.613  0.00  0.00    +0.026 C 
ATOM     25  C   UNL     1       2.748  -2.176   2.604  0.00  0.00    +0.031 C 
ATOM     26  C   UNL     1       4.163  -0.117   2.602  0.00  0.00    +0.031 C 
ATOM     27  C   UNL     1       2.011  -0.153   3.871  0.00  0.00    +0.031 C 
ENDBRANCH  22  24
ENDBRANCH  19  20
ENDBRANCH   1  19
TORSDOF 4
