REMARK  Name = ZINC35337728
REMARK  10 active torsions:
REMARK  status: ('A' for Active; 'I' for Inactive)
REMARK    1  A    between atoms: C_1  and  C_2
REMARK    2  A    between atoms: C_3  and  C_27
REMARK    3  A    between atoms: C_4  and  C_13
REMARK    4  A    between atoms: C_16  and  N_19
REMARK    5  A    between atoms: C_20  and  C_22
REMARK    6  A    between atoms: C_22  and  C_23
REMARK    7  A    between atoms: C_23  and  C_24
REMARK    8  A    between atoms: C_23  and  C_25
REMARK    9  A    between atoms: C_23  and  C_26
REMARK   10  A    between atoms: N_29  and  C_30
REMARK                            x       y       z     vdW  Elec       q    Type
REMARK                         _______ _______ _______ _____ _____    ______ ____
ROOT
ATOM      1  C   UNL     1       0.502   1.290  -0.023  0.00  0.00    +0.064 C 
ATOM      2  C   UNL     1       0.310  -0.205  -0.040  0.00  0.00    +0.025 C 
ATOM      3  C   UNL     1      -0.949  -0.721   0.008  0.00  0.00    +0.058 C 
ATOM      4  C   UNL     1      -1.136  -2.217   0.056  0.00  0.00    +0.142 C 
ATOM      5  N   UNL     1       0.034  -2.858  -0.572  0.00  0.00    -0.300 N 
ATOM      6  C   UNL     1      -0.187  -4.014  -1.422  0.00  0.00    +0.109 C 
ATOM      7  C   UNL     1       0.902  -5.059  -1.429  0.00  0.00    +0.030 C 
ATOM      8  C   UNL     1       2.262  -4.465  -1.803  0.00  0.00    +0.078 C 
ATOM      9  S   UNL     1       2.717  -3.286  -0.490  0.00  0.00    -0.092 S 
ATOM     10  C   UNL     1       1.262  -2.293  -0.367  0.00  0.00    +0.135 C 
ATOM     11  N   UNL     1       1.373  -1.003  -0.107  0.00  0.00    -0.341 N 
ATOM     12  H   UNL     1       2.255  -0.627   0.043  0.00  0.00    +0.167 HD
ENDROOT
BRANCH   4  13
ATOM     13  C   UNL     1      -1.256  -2.667   1.489  0.00  0.00    -0.022 A 
ATOM     14  C   UNL     1      -0.119  -2.815   2.263  0.00  0.00    +0.007 A 
ATOM     15  C   UNL     1      -0.226  -3.228   3.576  0.00  0.00    +0.023 A 
ATOM     16  C   UNL     1      -1.475  -3.493   4.120  0.00  0.00    +0.033 A 
ATOM     17  C   UNL     1      -2.615  -3.343   3.341  0.00  0.00    +0.023 A 
ATOM     18  C   UNL     1      -2.502  -2.926   2.029  0.00  0.00    +0.007 A 
BRANCH  16  19
ATOM     19  N   UNL     1      -1.586  -3.911   5.451  0.00  0.00    -0.285 N 
ATOM     20  C   UNL     1      -0.718  -3.455   6.375  0.00  0.00    +0.218 C 
ATOM     21  O   UNL     1       0.100  -2.611   6.075  0.00  0.00    -0.275 OA
ATOM     22  H   UNL     1      -2.288  -4.529   5.708  0.00  0.00    +0.155 HD
BRANCH  20  23
ATOM     23  C   UNL     1      -0.761  -3.995   7.782  0.00  0.00    +0.102 C 
BRANCH  23  24
ATOM     24  C   UNL     1       0.321  -3.316   8.623  0.00  0.00    -0.029 C 
ATOM     25  C   UNL     1       0.075  -1.806   8.648  0.00  0.00    +0.011 C 
ATOM     26  C   UNL     1       0.277  -3.864  10.050  0.00  0.00    +0.011 C 
ATOM     27  C   UNL     1       1.695  -3.599   8.011  0.00  0.00    +0.011 C 
ENDBRANCH  23  24
ENDBRANCH  20  23
ENDBRANCH  16  19
ENDBRANCH   4  13
BRANCH   3  28
ATOM     28  C   UNL     1      -2.067   0.134   0.013  0.00  0.00    +0.244 C 
ATOM     29  O   UNL     1      -1.910   1.342  -0.025  0.00  0.00    -0.270 OA
ATOM     30  N   UNL     1      -3.311  -0.383   0.061  0.00  0.00    -0.315 N 
ATOM     31  C   UNL     1      -4.474   0.508   0.066  0.00  0.00    +0.128 C 
ATOM     32  H   UNL     1      -3.436  -1.344   0.092  0.00  0.00    +0.149 HD
ENDBRANCH   3  28
TORSDOF 5
