REMARK  Name = ZINC33028853
REMARK  7 active torsions:
REMARK  status: ('A' for Active; 'I' for Inactive)
REMARK    1  A    between atoms: C_9  and  C_12
REMARK    2  A    between atoms: N_14  and  C_15
REMARK    3  A    between atoms: C_15  and  C_16
REMARK    4  A    between atoms: C_16  and  N_17
REMARK    5  A    between atoms: N_17  and  C_18
REMARK    6  A    between atoms: N_17  and  C_24
REMARK    7  A    between atoms: C_18  and  C_19
REMARK                            x       y       z     vdW  Elec       q    Type
REMARK                         _______ _______ _______ _____ _____    ______ ____
ROOT
ATOM      1  C   UNL     1       3.569   7.801   0.694  0.00  0.00    +0.266 C 
ATOM      2  O   UNL     1       2.898   8.800   0.859  0.00  0.00    -0.268 OA
ATOM      3  N   UNL     1       4.909   7.899   0.585  0.00  0.00    -0.312 N 
ATOM      4  H   UNL     1       5.516   6.994   0.436  0.00  0.00    +0.149 HD
ENDROOT
BRANCH   1  13
ATOM      5  C   UNL     1      -1.317   2.306   0.839  0.00  0.00    +0.001 A 
ATOM      6  C   UNL     1      -2.413   3.149   0.763  0.00  0.00    +0.004 A 
ATOM      7  C   UNL     1      -2.248   4.512   0.614  0.00  0.00    +0.046 A 
ATOM      8  C   UNL     1      -0.976   5.054   0.527  0.00  0.00    +0.132 A 
ATOM      9  C   UNL     1       0.136   4.193   0.615  0.00  0.00    +0.062 A 
ATOM     10  C   UNL     1      -0.039   2.825   0.762  0.00  0.00    +0.015 A 
ATOM     11  C   UNL     1       1.462   4.830   0.569  0.00  0.00    +0.178 A 
ATOM     12  C   UNL     1       1.547   6.202   0.708  0.00  0.00    +0.069 A 
ATOM     13  C   UNL     1       2.914   6.472   0.614  0.00  0.00    +0.175 A 
ATOM     14  N   UNL     1       3.504   5.305   0.440  0.00  0.00    -0.073 NA
ATOM     15  O   UNL     1       2.701   4.390   0.416  0.00  0.00    -0.353 OA
ATOM     16  C   UNL     1       0.331   7.053   0.909  0.00  0.00    +0.270 C 
ATOM     17  O   UNL     1      -0.806   6.386   0.350  0.00  0.00    -0.486 OA
ENDBRANCH   1  13
BRANCH   3  18
ATOM     18  C   UNL     1       5.556   9.211   0.664  0.00  0.00    +0.086 C 
BRANCH  18  19
ATOM     19  C   UNL     1       7.069   9.043   0.511  0.00  0.00    -0.059 C 
BRANCH  19  20
ATOM     20  N   UNL     1       7.722  10.354   0.635  0.00  0.00    +0.387 N 
ATOM     21  H   UNL     1       7.173  11.066   0.002  0.00  0.00    -0.081 HD
BRANCH  20  22
ATOM     22  C   UNL     1       7.664  10.842   2.019  0.00  0.00    -0.068 C 
ATOM     23  C   UNL     1       7.949   9.686   3.000  0.00  0.00    -0.015 C 
ATOM     24  C   UNL     1       7.003   9.960   4.196  0.00  0.00    -0.002 C 
ATOM     25  C   UNL     1       5.721  10.486   3.504  0.00  0.00    -0.002 C 
ATOM     26  C   UNL     1       6.247  11.351   2.340  0.00  0.00    -0.015 C 
ENDBRANCH  20  22
BRANCH  20  27
ATOM     27  C   UNL     1       9.109  10.298   0.154  0.00  0.00    -0.003 C 
BRANCH  27  28
ATOM     28  C   UNL     1       9.638  11.699  -0.016  0.00  0.00    +0.089 A 
ATOM     29  C   UNL     1      10.336  12.393   0.900  0.00  0.00    +0.042 A 
ATOM     30  C   UNL     1      10.630  13.651   0.326  0.00  0.00    +0.041 A 
ATOM     31  C   UNL     1      10.086  13.653  -0.905  0.00  0.00    +0.195 A 
ATOM     32  O   UNL     1       9.487  12.469  -1.106  0.00  0.00    -0.470 OA
ENDBRANCH  27  28
ENDBRANCH  20  27
ENDBRANCH  19  20
ENDBRANCH  18  19
ENDBRANCH   3  18
TORSDOF 7
