REMARK  Name = ZINC39675180
REMARK  13 active torsions:
REMARK  status: ('A' for Active; 'I' for Inactive)
REMARK    1  A    between atoms: C_1  and  C_2
REMARK    2  A    between atoms: C_2  and  C_4
REMARK    3  A    between atoms: C_2  and  N_14
REMARK    4  A    between atoms: C_4  and  C_5
REMARK    5  A    between atoms: C_5  and  C_6
REMARK    6  A    between atoms: C_9  and  O_12
REMARK    7  A    between atoms: O_12  and  C_13
REMARK    8  A    between atoms: C_15  and  C_17
REMARK    9  A    between atoms: C_28  and  C_30
REMARK   10  A    between atoms: C_32  and  O_38
REMARK   11  A    between atoms: C_34  and  O_36
REMARK   12  A    between atoms: O_36  and  C_37
REMARK   13  A    between atoms: O_38  and  C_39
REMARK                            x       y       z     vdW  Elec       q    Type
REMARK                         _______ _______ _______ _____ _____    ______ ____
ROOT
ATOM      1  C   UNL     1       1.304  -1.378   3.952  0.00  0.00    +0.100 C 
ATOM      2  C   UNL     1       2.316  -0.217   4.078  0.00  0.00    +0.121 C 
ATOM      3  N   UNL     1       1.700   0.712   5.054  0.00  0.00    -0.296 N 
ATOM      4  C   UNL     1       1.091  -0.175   6.074  0.00  0.00    +0.115 C 
ATOM      5  C   UNL     1       0.504  -1.350   5.265  0.00  0.00    -0.004 C 
ATOM      6  C   UNL     1      -0.974  -1.105   4.979  0.00  0.00    -0.010 C 
ATOM      7  C   UNL     1      -1.756  -1.138   6.295  0.00  0.00    -0.082 C 
ATOM      8  N   UNL     1      -1.572  -2.441   6.943  0.00  0.00    +0.379 N 
ATOM      9  C   UNL     1      -0.161  -2.629   7.299  0.00  0.00    -0.082 C 
ATOM     10  C   UNL     1       0.689  -2.659   6.026  0.00  0.00    -0.010 C 
ATOM     11  C   UNL     1       1.694   2.059   5.023  0.00  0.00    +0.247 C 
ATOM     12  O   UNL     1       2.129   2.646   4.051  0.00  0.00    -0.270 OA
ATOM     13  H   UNL     1      -2.137  -2.483   7.779  0.00  0.00    -0.086 HD
ATOM     14  H   UNL     1      -1.858  -3.174   6.311  0.00  0.00    -0.086 HD
ENDROOT
BRANCH  11  15
ATOM     15  C   UNL     1       1.158   2.824   6.169  0.00  0.00    +0.044 A 
ATOM     16  C   UNL     1       1.066   2.226   7.427  0.00  0.00    +0.059 A 
ATOM     17  C   UNL     1       0.564   2.946   8.498  0.00  0.00    +0.124 A 
ATOM     18  C   UNL     1       0.153   4.259   8.323  0.00  0.00    +0.091 A 
ATOM     19  C   UNL     1       0.243   4.857   7.074  0.00  0.00    +0.124 A 
ATOM     20  C   UNL     1       0.749   4.146   5.998  0.00  0.00    +0.059 A 
BRANCH  19  21
ATOM     21  O   UNL     1      -0.161   6.144   6.908  0.00  0.00    -0.495 OA
ATOM     22  C   UNL     1      -0.668   6.819   8.061  0.00  0.00    +0.277 C 
ENDBRANCH  19  21
BRANCH  17  23
ATOM     23  O   UNL     1       0.474   2.365   9.724  0.00  0.00    -0.495 OA
ATOM     24  C   UNL     1      -0.053   3.165  10.784  0.00  0.00    +0.277 C 
ENDBRANCH  17  23
ENDBRANCH  11  15
BRANCH   1  26
ATOM     25  N   UNL     1      -0.210  -2.200   2.177  0.00  0.00    -0.312 N 
ATOM     26  C   UNL     1       0.389  -1.152   2.776  0.00  0.00    +0.218 C 
ATOM     27  O   UNL     1       0.193  -0.027   2.368  0.00  0.00    -0.275 OA
ATOM     28  H   UNL     1      -0.053  -3.100   2.503  0.00  0.00    +0.149 HD
BRANCH  25  30
ATOM     29  C   UNL     1      -0.270  -1.909  -0.251  0.00  0.00    +0.028 C 
ATOM     30  C   UNL     1      -1.099  -1.980   1.033  0.00  0.00    +0.070 C 
BRANCH  30  31
ATOM     31  C   UNL     1      -2.096  -3.136   0.933  0.00  0.00    +0.026 C 
BRANCH  31  32
ATOM     32  C   UNL     1      -3.008  -3.132   2.161  0.00  0.00    +0.037 C 
BRANCH  32  33
ATOM     33  C   UNL     1      -3.990  -4.271   2.062  0.00  0.00    -0.047 A 
ATOM     34  C   UNL     1      -5.208  -4.079   1.437  0.00  0.00    +0.007 A 
ATOM     35  C   UNL     1      -6.110  -5.121   1.345  0.00  0.00    +0.046 A 
ATOM     36  C   UNL     1      -5.793  -6.361   1.881  0.00  0.00    +0.120 A 
ATOM     37  C   UNL     1      -4.570  -6.551   2.507  0.00  0.00    +0.046 A 
ATOM     38  C   UNL     1      -3.669  -5.507   2.592  0.00  0.00    +0.007 A 
BRANCH  36  39
ATOM     39  O   UNL     1      -6.679  -7.388   1.792  0.00  0.00    -0.495 OA
ATOM     40  C   UNL     1      -6.285  -8.636   2.366  0.00  0.00    +0.277 C 
ENDBRANCH  36  39
ENDBRANCH  32  33
ENDBRANCH  31  32
ENDBRANCH  30  31
ENDBRANCH  25  30
ENDBRANCH   1  26
TORSDOF 9
