REMARK  Name = ZINC10058587
REMARK  12 active torsions:
REMARK  status: ('A' for Active; 'I' for Inactive)
REMARK    1  A    between atoms: C_1  and  C_2
REMARK    2  A    between atoms: C_7  and  N_12
REMARK    3  A    between atoms: C_9  and  C_11
REMARK    4  A    between atoms: C_13  and  C_15
REMARK    5  A    between atoms: C_15  and  C_17
REMARK    6  A    between atoms: C_15  and  S_18
REMARK    7  A    between atoms: S_18  and  C_19
REMARK    8  A    between atoms: N_32  and  C_33
REMARK    9  A    between atoms: C_33  and  C_34
REMARK   10  A    between atoms: C_34  and  C_35
REMARK   11  A    between atoms: C_35  and  C_36
REMARK   12  A    between atoms: C_35  and  C_37
REMARK                            x       y       z     vdW  Elec       q    Type
REMARK                         _______ _______ _______ _____ _____    ______ ____
ROOT
ATOM      1  C   UNL     1       7.243  -0.787   1.969  0.00  0.00    +0.198 A 
ATOM      2  N   UNL     1       7.483   0.470   1.686  0.00  0.00    -0.120 NA
ATOM      3  N   UNL     1       8.871   0.645   1.630  0.00  0.00    -0.109 NA
ATOM      4  C   UNL     1       9.439  -0.514   1.872  0.00  0.00    +0.240 A 
ATOM      5  N   UNL     1       8.446  -1.430   2.088  0.00  0.00    -0.256 N 
ATOM      6  C   UNL     1       8.756  -2.759   2.371  0.00  0.00    +0.064 A 
ATOM      7  C   UNL     1       7.757  -3.694   2.592  0.00  0.00    +0.027 A 
ATOM      8  C   UNL     1       8.092  -5.004   2.871  0.00  0.00    +0.002 A 
ATOM      9  C   UNL     1       9.421  -5.395   2.933  0.00  0.00    +0.001 A 
ATOM     10  C   UNL     1      10.427  -4.478   2.716  0.00  0.00    +0.015 A 
ATOM     11  C   UNL     1      10.102  -3.152   2.433  0.00  0.00    +0.064 A 
ATOM     12  C   UNL     1      11.148  -2.141   2.196  0.00  0.00    +0.263 A 
ATOM     13  O   UNL     1      12.325  -2.446   2.241  0.00  0.00    -0.267 OA
ATOM     14  N   UNL     1      10.778  -0.872   1.927  0.00  0.00    -0.277 N 
ENDROOT
BRANCH   1  15
ATOM     15  S   UNL     1       5.653  -1.522   2.156  0.00  0.00    -0.073 S 
BRANCH  15  16
ATOM     16  C   UNL     1       4.500  -0.149   1.877  0.00  0.00    +0.137 C 
ATOM     17  C   UNL     1       4.668   0.891   2.986  0.00  0.00    +0.029 C 
BRANCH  16  19
ATOM     18  N   UNL     1       2.116  -0.004   1.231  0.00  0.00    -0.311 N 
ATOM     19  C   UNL     1       3.086  -0.671   1.888  0.00  0.00    +0.226 C 
ATOM     20  O   UNL     1       2.821  -1.692   2.487  0.00  0.00    -0.275 OA
ATOM     21  H   UNL     1       2.329   0.812   0.752  0.00  0.00    +0.149 HD
BRANCH  18  27
ATOM     22  C   UNL     1      -2.173  -0.027  -1.227  0.00  0.00    +0.008 C 
ATOM     23  C   UNL     1      -1.433  -0.534   0.013  0.00  0.00    -0.009 C 
ATOM     24  C   UNL     1      -2.149  -0.040   1.272  0.00  0.00    +0.003 C 
ATOM     25  C   UNL     1      -1.409  -0.547   2.511  0.00  0.00    +0.002 C 
ATOM     26  C   UNL     1       0.026  -0.018   2.500  0.00  0.00    +0.022 C 
ATOM     27  C   UNL     1       0.742  -0.511   1.242  0.00  0.00    +0.076 C 
ATOM     28  C   UNL     1       0.002  -0.004   0.002  0.00  0.00    +0.009 C 
ATOM     29  C   UNL     1      -0.019   1.526   0.010  0.00  0.00    +0.009 C 
ENDBRANCH  18  27
ENDBRANCH  16  19
ENDBRANCH  15  16
ENDBRANCH   1  15
BRANCH  14  30
ATOM     30  C   UNL     1      11.806   0.144   1.689  0.00  0.00    +0.128 C 
BRANCH  30  31
ATOM     31  C   UNL     1      12.139   0.192   0.196  0.00  0.00    +0.025 C 
BRANCH  31  32
ATOM     32  C   UNL     1      13.213   1.253  -0.053  0.00  0.00    -0.016 C 
ATOM     33  C   UNL     1      14.513   0.836   0.639  0.00  0.00    +0.007 C 
ATOM     34  C   UNL     1      13.457   1.388  -1.557  0.00  0.00    +0.007 C 
ENDBRANCH  31  32
ENDBRANCH  30  31
ENDBRANCH  14  30
TORSDOF 7
