REMARK  Name = ZINC08739534
REMARK  8 active torsions:
REMARK  status: ('A' for Active; 'I' for Inactive)
REMARK    1  A    between atoms: C_1  and  O_2
REMARK    2  A    between atoms: O_2  and  C_3
REMARK    3  A    between atoms: C_6  and  C_9
REMARK    4  A    between atoms: C_11  and  C_33
REMARK    5  A    between atoms: C_15  and  C_27
REMARK    6  A    between atoms: C_17  and  C_19
REMARK    7  A    between atoms: C_22  and  O_25
REMARK    8  A    between atoms: O_25  and  C_26
REMARK                            x       y       z     vdW  Elec       q    Type
REMARK                         _______ _______ _______ _____ _____    ______ ____
ROOT
ATOM      1  C   UNL     1       2.781   0.970  -0.557  0.00  0.00    -0.025 C 
ATOM      2  C   UNL     1       3.284  -0.001   0.517  0.00  0.00    +0.076 C 
ATOM      3  C   UNL     1       4.604   0.518   1.046  0.00  0.00    +0.145 C 
ATOM      4  O   UNL     1       5.567  -0.205   1.139  0.00  0.00    -0.296 OA
ATOM      5  C   UNL     1       4.677   1.974   1.455  0.00  0.00    +0.076 C 
ATOM      6  C   UNL     1       4.086   2.821   0.322  0.00  0.00    -0.025 C 
ATOM      7  N   UNL     1       2.728   2.338  -0.001  0.00  0.00    +0.389 N 
ATOM      8  H   UNL     1       2.160   2.333   0.854  0.00  0.00    -0.084 HD
ATOM      9  H   UNL     1       2.302   2.967  -0.692  0.00  0.00    -0.084 HD
ENDROOT
BRANCH   1  13
ATOM     10  C   UNL     1      -1.143  -0.184  -1.798  0.00  0.00    +0.120 A 
ATOM     11  C   UNL     1      -0.049  -0.970  -2.132  0.00  0.00    +0.046 A 
ATOM     12  C   UNL     1       1.218  -0.595  -1.730  0.00  0.00    +0.005 A 
ATOM     13  C   UNL     1       1.397   0.563  -0.995  0.00  0.00    -0.060 A 
ATOM     14  C   UNL     1       0.308   1.345  -0.656  0.00  0.00    +0.005 A 
ATOM     15  C   UNL     1      -0.960   0.977  -1.060  0.00  0.00    +0.046 A 
BRANCH  10  17
ATOM     16  C   UNL     1      -3.469   0.306  -1.813  0.00  0.00    +0.277 C 
ATOM     17  O   UNL     1      -2.390  -0.551  -2.193  0.00  0.00    -0.495 OA
ENDBRANCH  10  17
ENDBRANCH   1  13
BRANCH   6  18
ATOM     18  C   UNL     1       4.003   4.261   0.760  0.00  0.00    -0.060 A 
ATOM     19  C   UNL     1       2.772   4.833   1.020  0.00  0.00    +0.005 A 
ATOM     20  C   UNL     1       2.694   6.151   1.427  0.00  0.00    +0.046 A 
ATOM     21  C   UNL     1       3.852   6.903   1.565  0.00  0.00    +0.120 A 
ATOM     22  C   UNL     1       5.086   6.327   1.298  0.00  0.00    +0.046 A 
ATOM     23  C   UNL     1       5.159   5.008   0.896  0.00  0.00    +0.005 A 
BRANCH  21  24
ATOM     24  O   UNL     1       3.777   8.201   1.961  0.00  0.00    -0.495 OA
ATOM     25  C   UNL     1       2.474   8.727   2.218  0.00  0.00    +0.277 C 
ENDBRANCH  21  24
ENDBRANCH   6  18
BRANCH   5  26
ATOM     26  C   UNL     1       3.882   2.188   2.718  0.00  0.00    -0.038 A 
ATOM     27  C   UNL     1       4.463   1.946   3.949  0.00  0.00    +0.004 A 
ATOM     28  C   UNL     1       3.735   2.146   5.107  0.00  0.00    +0.000 A 
ATOM     29  C   UNL     1       2.425   2.580   5.034  0.00  0.00    +0.000 A 
ATOM     30  C   UNL     1       1.843   2.818   3.803  0.00  0.00    +0.000 A 
ATOM     31  C   UNL     1       2.572   2.622   2.645  0.00  0.00    +0.004 A 
ENDBRANCH   5  26
BRANCH   2  32
ATOM     32  C   UNL     1       2.282  -0.080   1.640  0.00  0.00    -0.038 A 
ATOM     33  C   UNL     1       2.703   0.033   2.951  0.00  0.00    +0.004 A 
ATOM     34  C   UNL     1       1.785  -0.044   3.982  0.00  0.00    +0.000 A 
ATOM     35  C   UNL     1       0.444  -0.226   3.700  0.00  0.00    +0.000 A 
ATOM     36  C   UNL     1       0.022  -0.339   2.389  0.00  0.00    +0.000 A 
ATOM     37  C   UNL     1       0.941  -0.266   1.358  0.00  0.00    +0.004 A 
ENDBRANCH   2  32
TORSDOF 6
