REMARK  Name = ZINC36027918
REMARK  11 active torsions:
REMARK  status: ('A' for Active; 'I' for Inactive)
REMARK    1  A    between atoms: C_1  and  C_2
REMARK    2  A    between atoms: C_2  and  C_3
REMARK    3  A    between atoms: C_3  and  C_5
REMARK    4  A    between atoms: C_3  and  C_6
REMARK    5  A    between atoms: N_10  and  C_28
REMARK    6  A    between atoms: N_15  and  C_18
REMARK    7  A    between atoms: C_18  and  N_20
REMARK    8  A    between atoms: N_20  and  C_21
REMARK    9  A    between atoms: C_28  and  C_29
REMARK   10  A    between atoms: C_29  and  C_30
REMARK   11  A    between atoms: C_29  and  C_31
REMARK                            x       y       z     vdW  Elec       q    Type
REMARK                         _______ _______ _______ _____ _____    ______ ____
ROOT
ATOM      1  C   UNL     1       0.439  -1.798  -1.210  0.00  0.00    +0.022 C 
ATOM      2  C   UNL     1       1.253  -2.392  -0.081  0.00  0.00    +0.201 C 
ATOM      3  O   UNL     1       1.306  -1.967   1.053  0.00  0.00    -0.277 OA
ATOM      4  N   UNL     1       1.909  -3.474  -0.550  0.00  0.00    -0.313 N 
ATOM      5  C   UNL     1       1.582  -3.669  -1.965  0.00  0.00    +0.006 C 
ATOM      6  N   UNL     1       1.009  -2.392  -2.444  0.00  0.00    +0.401 N 
ATOM      7  C   UNL     1       2.845  -3.999  -2.758  0.00  0.00    +0.025 C 
ATOM      8  C   UNL     1       3.450  -5.304  -2.230  0.00  0.00    +0.107 C 
ATOM      9  N   UNL     1       2.418  -6.349  -2.260  0.00  0.00    -0.312 N 
ATOM     10  C   UNL     1       1.137  -6.097  -1.587  0.00  0.00    +0.107 C 
ATOM     11  C   UNL     1       0.551  -4.785  -2.121  0.00  0.00    +0.025 C 
ATOM     12  H   UNL     1       0.285  -2.558  -3.127  0.00  0.00    -0.082 HD
ATOM     13  H   UNL     1       1.731  -1.798  -2.825  0.00  0.00    -0.082 HD
ENDROOT
BRANCH   1  14
ATOM     14  C   UNL     1       0.591  -0.276  -1.233  0.00  0.00    -0.020 C 
ATOM     15  C   UNL     1       2.072   0.088  -1.361  0.00  0.00    +0.006 C 
BRANCH  14  17
ATOM     16  C   UNL     1       0.070   1.840  -0.009  0.00  0.00    +0.004 C 
ATOM     17  C   UNL     1       0.032   0.312   0.065  0.00  0.00    -0.001 C 
ENDBRANCH  14  17
ENDBRANCH   1  14
BRANCH   9  18
ATOM     18  C   UNL     1       2.643  -7.519  -2.891  0.00  0.00    +0.137 C 
ATOM     19  S   UNL     1       4.183  -7.846  -3.564  0.00  0.00    -0.018 S 
BRANCH  18  20
ATOM     20  N   UNL     1       1.656  -8.430  -2.993  0.00  0.00    -0.295 N 
ATOM     21  H   UNL     1       1.230  -8.591  -3.850  0.00  0.00    +0.154 HD
BRANCH  20  22
ATOM     22  C   UNL     1       1.244  -9.146  -1.862  0.00  0.00    +0.068 A 
ATOM     23  C   UNL     1       1.920  -8.995  -0.659  0.00  0.00    +0.026 A 
ATOM     24  C   UNL     1       1.511  -9.702   0.455  0.00  0.00    +0.002 A 
ATOM     25  C   UNL     1       0.429 -10.559   0.374  0.00  0.00    +0.003 A 
ATOM     26  C   UNL     1      -0.248 -10.713  -0.821  0.00  0.00    +0.040 A 
ATOM     27  C   UNL     1       0.153 -10.004  -1.940  0.00  0.00    +0.144 A 
ATOM     28  F   UNL     1      -0.512 -10.150  -3.107  0.00  0.00    -0.204 F 
ENDBRANCH  20  22
ENDBRANCH  18  20
ENDBRANCH   9  18
BRANCH   4  29
ATOM     29  C   UNL     1       2.808  -4.324   0.235  0.00  0.00    +0.109 C 
BRANCH  29  30
ATOM     30  C   UNL     1       4.230  -3.763   0.165  0.00  0.00    +0.000 C 
ATOM     31  C   UNL     1       4.278  -2.405   0.869  0.00  0.00    +0.009 C 
ATOM     32  C   UNL     1       5.194  -4.730   0.855  0.00  0.00    +0.009 C 
ENDBRANCH  29  30
ENDBRANCH   4  29
TORSDOF 7
