REMARK  Name = ZINC64869347
REMARK  16 active torsions:
REMARK  status: ('A' for Active; 'I' for Inactive)
REMARK    1  A    between atoms: C_1  and  C_2
REMARK    2  A    between atoms: C_2  and  O_3
REMARK    3  A    between atoms: O_3  and  C_4
REMARK    4  A    between atoms: C_4  and  C_6
REMARK    5  A    between atoms: C_6  and  C_7
REMARK    6  A    between atoms: N_11  and  C_21
REMARK    7  A    between atoms: C_14  and  C_20
REMARK    8  A    between atoms: C_15  and  C_19
REMARK    9  A    between atoms: C_21  and  C_22
REMARK   10  A    between atoms: N_24  and  C_25
REMARK   11  A    between atoms: C_27  and  O_35
REMARK   12  A    between atoms: C_28  and  O_33
REMARK   13  A    between atoms: C_29  and  O_31
REMARK   14  A    between atoms: O_31  and  C_32
REMARK   15  A    between atoms: O_33  and  C_34
REMARK   16  A    between atoms: O_35  and  C_36
REMARK                            x       y       z     vdW  Elec       q    Type
REMARK                         _______ _______ _______ _____ _____    ______ ____
ROOT
ATOM      1  C   UNL     1       1.404  -3.836  -2.562  0.00  0.00    +0.024 C 
ATOM      2  C   UNL     1       0.427  -4.450  -3.256  0.00  0.00    +0.087 C 
ATOM      3  C   UNL     1       0.139  -5.830  -3.370  0.00  0.00    +0.246 C 
ATOM      4  O   UNL     1      -0.815  -6.112  -4.072  0.00  0.00    -0.270 OA
ATOM      5  N   UNL     1       0.779  -6.876  -2.809  0.00  0.00    -0.257 N 
ATOM      6  C   UNL     1       1.901  -6.854  -1.962  0.00  0.00    +0.058 A 
ATOM      7  C   UNL     1       2.281  -8.128  -1.578  0.00  0.00    +0.029 A 
ATOM      8  C   UNL     1       3.371  -8.299  -0.741  0.00  0.00    -0.046 A 
ATOM      9  C   UNL     1       4.078  -7.203  -0.287  0.00  0.00    -0.046 A 
ATOM     10  C   UNL     1       3.702  -5.926  -0.667  0.00  0.00    +0.028 A 
ATOM     11  C   UNL     1       2.614  -5.747  -1.504  0.00  0.00    +0.053 A 
ATOM     12  N   UNL     1       2.387  -4.389  -1.783  0.00  0.00    -0.316 N 
ATOM     13  C   UNL     1       5.262  -7.397   0.625  0.00  0.00    +0.044 C 
ATOM     14  C   UNL     1       3.786  -9.686  -0.324  0.00  0.00    +0.044 C 
ATOM     15  H   UNL     1       3.001  -3.764  -1.369  0.00  0.00    +0.152 HD
ENDROOT
BRANCH   1  16
ATOM     16  C   UNL     1       1.423  -2.332  -2.659  0.00  0.00    +0.171 C 
BRANCH  16  17
ATOM     17  C   UNL     1       0.681  -1.743  -1.487  0.00  0.00    +0.313 C 
ATOM     18  O   UNL     1       0.187  -2.470  -0.658  0.00  0.00    -0.250 OA
BRANCH  17  19
ATOM     19  O   UNL     1       0.569  -0.411  -1.365  0.00  0.00    -0.465 OA
BRANCH  19  21
ATOM     20  C   UNL     1      -0.171   1.607  -0.260  0.00  0.00    +0.048 C 
ATOM     21  C   UNL     1      -0.148   0.077  -0.229  0.00  0.00    +0.229 C 
ENDBRANCH  19  21
ENDBRANCH  17  19
ENDBRANCH  16  17
ENDBRANCH   1  16
BRANCH   5  22
ATOM     22  C   UNL     1       0.237  -8.201  -3.120  0.00  0.00    +0.210 C 
BRANCH  22  23
ATOM     23  C   UNL     1      -0.667  -8.649  -2.001  0.00  0.00    +0.235 C 
ATOM     24  O   UNL     1      -0.842  -7.933  -1.038  0.00  0.00    -0.274 OA
ATOM     25  N   UNL     1      -1.282  -9.847  -2.070  0.00  0.00    -0.284 N 
ATOM     26  H   UNL     1      -1.086 -10.451  -2.803  0.00  0.00    +0.155 HD
BRANCH  25  27
ATOM     27  C   UNL     1      -2.204 -10.219  -1.084  0.00  0.00    +0.041 A 
ATOM     28  C   UNL     1      -2.305 -11.547  -0.693  0.00  0.00    +0.073 A 
ATOM     29  C   UNL     1      -3.217 -11.916   0.283  0.00  0.00    +0.167 A 
ATOM     30  C   UNL     1      -4.031 -10.955   0.871  0.00  0.00    +0.204 A 
ATOM     31  C   UNL     1      -3.930  -9.626   0.479  0.00  0.00    +0.167 A 
ATOM     32  C   UNL     1      -3.013  -9.258  -0.493  0.00  0.00    +0.073 A 
BRANCH  31  33
ATOM     33  O   UNL     1      -4.727  -8.685   1.054  0.00  0.00    -0.491 OA
ATOM     34  C   UNL     1      -4.569  -7.338   0.603  0.00  0.00    +0.277 C 
ENDBRANCH  31  33
BRANCH  30  35
ATOM     35  O   UNL     1      -4.928 -11.317   1.830  0.00  0.00    -0.488 OA
ATOM     36  C   UNL     1      -4.474 -11.292   3.185  0.00  0.00    +0.277 C 
ENDBRANCH  30  35
BRANCH  29  37
ATOM     37  O   UNL     1      -3.315 -13.217   0.665  0.00  0.00    -0.491 OA
ATOM     38  C   UNL     1      -2.448 -14.151   0.018  0.00  0.00    +0.277 C 
ENDBRANCH  29  37
ENDBRANCH  25  27
ENDBRANCH  22  23
ENDBRANCH   5  22
TORSDOF 10
