REMARK  Name = ZINC39637978
REMARK  8 active torsions:
REMARK  status: ('A' for Active; 'I' for Inactive)
REMARK    1  A    between atoms: C_1  and  C_2
REMARK    2  A    between atoms: C_2  and  C_3
REMARK    3  A    between atoms: C_3  and  C_5
REMARK    4  A    between atoms: C_3  and  N_8
REMARK    5  A    between atoms: C_5  and  O_6
REMARK    6  A    between atoms: O_6  and  C_7
REMARK    7  A    between atoms: C_9  and  C_11
REMARK    8  A    between atoms: C_22  and  C_24
REMARK                            x       y       z     vdW  Elec       q    Type
REMARK                         _______ _______ _______ _____ _____    ______ ____
ROOT
ATOM      1  C   UNL     1       4.535   1.533  -1.332  0.00  0.00    +0.100 C 
ATOM      2  C   UNL     1       5.093   0.772  -2.556  0.00  0.00    +0.121 C 
ATOM      3  N   UNL     1       5.085   1.769  -3.652  0.00  0.00    -0.296 N 
ATOM      4  C   UNL     1       5.510   3.033  -3.004  0.00  0.00    +0.115 C 
ATOM      5  C   UNL     1       4.814   3.016  -1.629  0.00  0.00    -0.004 C 
ATOM      6  C   UNL     1       3.505   3.797  -1.692  0.00  0.00    -0.010 C 
ATOM      7  C   UNL     1       3.810   5.278  -1.931  0.00  0.00    -0.082 C 
ATOM      8  N   UNL     1       4.656   5.787  -0.844  0.00  0.00    +0.379 N 
ATOM      9  C   UNL     1       5.949   5.094  -0.849  0.00  0.00    -0.082 C 
ATOM     10  C   UNL     1       5.734   3.605  -0.564  0.00  0.00    -0.010 C 
ATOM     11  C   UNL     1       4.764   1.571  -4.946  0.00  0.00    +0.247 C 
ATOM     12  O   UNL     1       4.327   0.495  -5.306  0.00  0.00    -0.270 OA
ATOM     13  H   UNL     1       4.805   6.777  -0.972  0.00  0.00    -0.086 HD
ATOM     14  H   UNL     1       4.195   5.630   0.040  0.00  0.00    -0.086 HD
ENDROOT
BRANCH  11  15
ATOM     15  C   UNL     1       4.944   2.662  -5.927  0.00  0.00    +0.037 A 
ATOM     16  C   UNL     1       5.821   3.713  -5.654  0.00  0.00    +0.014 A 
ATOM     17  C   UNL     1       5.984   4.728  -6.573  0.00  0.00    +0.016 A 
ATOM     18  C   UNL     1       5.280   4.706  -7.765  0.00  0.00    +0.018 A 
ATOM     19  C   UNL     1       4.409   3.666  -8.042  0.00  0.00    +0.016 A 
ATOM     20  C   UNL     1       4.241   2.642  -7.133  0.00  0.00    +0.014 A 
ATOM     21 BR   UNL     1       5.509   6.102  -9.020  0.00  0.00    -0.050 Br
ENDBRANCH  11  15
BRANCH   1  23
ATOM     22  N   UNL     1       2.471   1.344   0.018  0.00  0.00    -0.310 N 
ATOM     23  C   UNL     1       3.054   1.294  -1.196  0.00  0.00    +0.218 C 
ATOM     24  O   UNL     1       2.385   1.057  -2.180  0.00  0.00    -0.275 OA
ATOM     25  H   UNL     1       3.005   1.538   0.804  0.00  0.00    +0.149 HD
BRANCH  22  26
ATOM     26  C   UNL     1       1.032   1.105   0.151  0.00  0.00    +0.098 C 
BRANCH  26  28
ATOM     27  C   UNL     1       0.415   3.041  -1.303  0.00  0.00    +0.006 C 
ATOM     28  C   UNL     1       0.286   2.439   0.098  0.00  0.00    +0.021 C 
ENDBRANCH  26  28
BRANCH  26  29
ATOM     29  C   UNL     1       0.751   0.415   1.487  0.00  0.00    +0.181 C 
BRANCH  29  30
ATOM     30  O   UNL     1       1.088   1.298   2.559  0.00  0.00    -0.381 OA
ATOM     31  C   UNL     1       0.861   0.748   3.858  0.00  0.00    +0.194 C 
ENDBRANCH  29  30
ENDBRANCH  26  29
ENDBRANCH  22  26
ENDBRANCH   1  23
TORSDOF 6
