REMARK  Name = ZINC35666288
REMARK  9 active torsions:
REMARK  status: ('A' for Active; 'I' for Inactive)
REMARK    1  A    between atoms: C_1  and  C_2
REMARK    2  A    between atoms: C_2  and  N_3
REMARK    3  A    between atoms: C_11  and  C_32
REMARK    4  A    between atoms: C_13  and  S_15
REMARK    5  A    between atoms: S_15  and  C_16
REMARK    6  A    between atoms: C_16  and  C_17
REMARK    7  A    between atoms: C_20  and  C_22
REMARK    8  A    between atoms: N_24  and  C_25
REMARK    9  A    between atoms: C_25  and  C_26
REMARK                            x       y       z     vdW  Elec       q    Type
REMARK                         _______ _______ _______ _____ _____    ______ ____
ROOT
ATOM      1  N   UNL     1       0.789  -0.620   1.107  0.00  0.00    +0.382 N 
ATOM      2  C   UNL     1      -0.136  -0.313   2.205  0.00  0.00    -0.060 C 
ATOM      3  C   UNL     1       0.561  -0.570   3.545  0.00  0.00    +0.088 C 
ATOM      4  N   UNL     1       1.071  -1.950   3.549  0.00  0.00    -0.319 N 
ATOM      5  C   UNL     1       1.876  -2.394   2.400  0.00  0.00    +0.088 C 
ATOM      6  C   UNL     1       1.117  -2.051   1.114  0.00  0.00    -0.060 C 
ATOM      7  C   UNL     1       0.803  -2.806   4.604  0.00  0.00    +0.126 A 
ATOM      8  C   UNL     1       0.224  -2.322   5.779  0.00  0.00    +0.076 A 
ATOM      9  C   UNL     1      -0.027  -3.212   6.805  0.00  0.00    +0.150 A 
ATOM     10  N   UNL     1       0.286  -4.490   6.646  0.00  0.00    -0.218 NA
ATOM     11  C   UNL     1       0.835  -4.922   5.520  0.00  0.00    +0.191 A 
ATOM     12  N   UNL     1       1.087  -4.101   4.510  0.00  0.00    -0.207 NA
ATOM     13  H   UNL     1       1.635  -0.082   1.223  0.00  0.00    -0.082 HD
ENDROOT
BRANCH   9  14
ATOM     14  C   UNL     1      -0.650  -2.735   8.092  0.00  0.00    +0.434 C 
ATOM     15  F   UNL     1      -2.043  -2.820   7.995  0.00  0.00    -0.164 F 
ATOM     16  F   UNL     1      -0.207  -3.536   9.150  0.00  0.00    -0.164 F 
ATOM     17  F   UNL     1      -0.279  -1.407   8.325  0.00  0.00    -0.164 F 
ENDBRANCH   9  14
BRANCH   1  19
ATOM     18  C   UNL     1      -0.069   1.242  -0.233  0.00  0.00    -0.017 C 
ATOM     19  C   UNL     1       0.160  -0.270  -0.173  0.00  0.00    -0.082 C 
ENDBRANCH   1  19
BRANCH  11  20
ATOM     20  S   UNL     1       1.234  -6.630   5.359  0.00  0.00    -0.078 S 
BRANCH  20  21
ATOM     21  C   UNL     1       0.721  -7.352   6.942  0.00  0.00    +0.151 C 
BRANCH  21  22
ATOM     22  C   UNL     1       1.010  -8.831   6.937  0.00  0.00    +0.116 A 
ATOM     23  C   UNL     1       2.159  -9.409   7.351  0.00  0.00    +0.046 A 
ATOM     24  C   UNL     1       2.010 -10.794   7.179  0.00  0.00    +0.055 A 
ATOM     25  C   UNL     1       0.762 -10.993   6.661  0.00  0.00    +0.189 A 
ATOM     26  O   UNL     1       0.169  -9.789   6.526  0.00  0.00    -0.454 OA
BRANCH  25  27
ATOM     27  C   UNL     1       0.169 -12.290   6.316  0.00  0.00    +0.279 C 
ATOM     28  O   UNL     1       0.804 -13.314   6.487  0.00  0.00    -0.267 OA
ATOM     29  N   UNL     1      -1.079 -12.346   5.809  0.00  0.00    -0.306 N 
ATOM     30  H   UNL     1      -1.584 -11.530   5.673  0.00  0.00    +0.149 HD
BRANCH  29  31
ATOM     31  C   UNL     1      -1.671 -13.641   5.465  0.00  0.00    +0.136 C 
BRANCH  31  32
ATOM     32  C   UNL     1      -3.083 -13.426   4.915  0.00  0.00    +0.135 C 
ATOM     33  C   UNL     1      -3.760 -14.790   4.662  0.00  0.00    +0.035 C 
ATOM     34  C   UNL     1      -4.526 -14.537   3.335  0.00  0.00    +0.031 C 
ATOM     35  C   UNL     1      -3.558 -13.562   2.618  0.00  0.00    +0.160 C 
ATOM     36  O   UNL     1      -3.016 -12.735   3.662  0.00  0.00    -0.375 OA
ENDBRANCH  31  32
ENDBRANCH  29  31
ENDBRANCH  25  27
ENDBRANCH  21  22
ENDBRANCH  20  21
ENDBRANCH  11  20
TORSDOF 8
