REMARK  Name = ZINC35791239
REMARK  9 active torsions:
REMARK  status: ('A' for Active; 'I' for Inactive)
REMARK    1  A    between atoms: C_1  and  O_2
REMARK    2  A    between atoms: O_2  and  C_3
REMARK    3  A    between atoms: C_6  and  C_13
REMARK    4  A    between atoms: C_7  and  O_11
REMARK    5  A    between atoms: C_8  and  O_9
REMARK    6  A    between atoms: O_9  and  C_10
REMARK    7  A    between atoms: O_11  and  C_12
REMARK    8  A    between atoms: C_13  and  N_14
REMARK    9  A    between atoms: C_23  and  C_25
REMARK                            x       y       z     vdW  Elec       q    Type
REMARK                         _______ _______ _______ _____ _____    ______ ____
ROOT
ATOM      1  N   UNL     1       3.966  -3.078   3.832  0.00  0.00    +0.391 N 
ATOM      2  C   UNL     1       4.671  -1.884   3.360  0.00  0.00    -0.075 C 
ATOM      3  C   UNL     1       6.103  -2.216   2.958  0.00  0.00    +0.003 C 
ATOM      4  C   UNL     1       6.160  -3.627   2.365  0.00  0.00    +0.119 C 
ATOM      5  N   UNL     1       6.369  -4.592   3.451  0.00  0.00    -0.352 N 
ATOM      6  C   UNL     1       7.260  -5.621   3.457  0.00  0.00    +0.086 A 
ATOM      7  C   UNL     1       7.132  -6.284   4.625  0.00  0.00    +0.019 A 
ATOM      8  C   UNL     1       6.127  -5.634   5.370  0.00  0.00    +0.021 A 
ATOM      9  C   UNL     1       5.683  -4.599   4.632  0.00  0.00    +0.009 A 
ATOM     10  C   UNL     1       4.620  -3.607   5.037  0.00  0.00    +0.011 C 
ATOM     11  H   UNL     1       3.980  -3.781   3.108  0.00  0.00    -0.080 HD
ENDROOT
BRANCH  10  12
ATOM     12  C   UNL     1       3.596  -4.292   5.905  0.00  0.00    -0.053 A 
ATOM     13  C   UNL     1       2.868  -5.355   5.406  0.00  0.00    +0.002 A 
ATOM     14  C   UNL     1       1.929  -5.985   6.202  0.00  0.00    +0.003 A 
ATOM     15  C   UNL     1       1.717  -5.551   7.497  0.00  0.00    +0.038 A 
ATOM     16  C   UNL     1       2.446  -4.486   7.997  0.00  0.00    +0.124 A 
ATOM     17  C   UNL     1       3.391  -3.860   7.202  0.00  0.00    +0.040 A 
ATOM     18  F   UNL     1       2.240  -4.061   9.263  0.00  0.00    -0.205 F 
ENDBRANCH  10  12
BRANCH   1  19
ATOM     19  C   UNL     1       2.574  -2.729   4.146  0.00  0.00    -0.038 C 
BRANCH  19  23
ATOM     20  C   UNL     1       0.604  -1.382   0.594  0.00  0.00    +0.165 A 
ATOM     21  C   UNL     1       1.081  -0.465   1.518  0.00  0.00    +0.050 A 
ATOM     22  C   UNL     1       1.717  -0.903   2.664  0.00  0.00    +0.009 A 
ATOM     23  C   UNL     1       1.879  -2.257   2.894  0.00  0.00    -0.018 A 
ATOM     24  C   UNL     1       1.405  -3.180   1.975  0.00  0.00    +0.167 A 
ATOM     25  C   UNL     1       0.760  -2.744   0.824  0.00  0.00    +0.204 A 
BRANCH  20  27
ATOM     26  C   UNL     1      -0.146   0.464  -0.705  0.00  0.00    +0.277 C 
ATOM     27  O   UNL     1      -0.021  -0.950  -0.534  0.00  0.00    -0.491 OA
ENDBRANCH  20  27
BRANCH  25  28
ATOM     28  O   UNL     1       0.288  -3.647  -0.078  0.00  0.00    -0.488 OA
ATOM     29  C   UNL     1       1.181  -4.052  -1.118  0.00  0.00    +0.277 C 
ENDBRANCH  25  28
BRANCH  24  30
ATOM     30  O   UNL     1       1.567  -4.511   2.202  0.00  0.00    -0.491 OA
ATOM     31  C   UNL     1       0.526  -5.178   2.919  0.00  0.00    +0.277 C 
ENDBRANCH  24  30
ENDBRANCH  19  23
ENDBRANCH   1  19
TORSDOF 6
