REMARK  Name = ZINC45538427
REMARK  13 active torsions:
REMARK  status: ('A' for Active; 'I' for Inactive)
REMARK    1  A    between atoms: C_1  and  C_2
REMARK    2  A    between atoms: C_2  and  N_3
REMARK    3  A    between atoms: N_3  and  C_4
REMARK    4  A    between atoms: N_3  and  C_6
REMARK    5  A    between atoms: C_4  and  C_5
REMARK    6  A    between atoms: C_6  and  C_8
REMARK    7  A    between atoms: C_6  and  C_12
REMARK    8  A    between atoms: C_8  and  C_9
REMARK    9  A    between atoms: C_9  and  C_10
REMARK   10  A    between atoms: C_9  and  C_11
REMARK   11  A    between atoms: C_12  and  N_13
REMARK   12  A    between atoms: N_19  and  C_22
REMARK   13  A    between atoms: C_27  and  O_28
REMARK                            x       y       z     vdW  Elec       q    Type
REMARK                         _______ _______ _______ _____ _____    ______ ____
ROOT
ATOM      1  N   UNL     1       0.160  -1.200   1.951  0.00  0.00    -0.301 N 
ATOM      2  C   UNL     1       0.771  -1.281   3.150  0.00  0.00    +0.302 C 
ATOM      3  O   UNL     1       0.458  -2.157   3.933  0.00  0.00    -0.253 OA
ATOM      4  N   UNL     1       1.728  -0.392   3.480  0.00  0.00    -0.283 N 
ATOM      5  C   UNL     1       2.503  -0.553   4.718  0.00  0.00    +0.128 C 
ATOM      6  C   UNL     1       3.995  -0.569   4.364  0.00  0.00    +0.124 C 
ATOM      7  N   UNL     1       4.284   0.578   3.491  0.00  0.00    -0.324 N 
ATOM      8  C   UNL     1       3.508   0.739   2.253  0.00  0.00    +0.124 C 
ATOM      9  C   UNL     1       2.020   0.752   2.605  0.00  0.00    +0.128 C 
ATOM     10  H   UNL     1       0.465  -0.555   1.294  0.00  0.00    +0.150 HD
ENDROOT
BRANCH   7  11
ATOM     11  C   UNL     1       5.278   1.502   3.834  0.00  0.00    +0.072 A 
ATOM     12  C   UNL     1       6.583   1.309   3.406  0.00  0.00    +0.027 A 
ATOM     13  C   UNL     1       7.564   2.222   3.746  0.00  0.00    +0.002 A 
ATOM     14  C   UNL     1       7.247   3.329   4.511  0.00  0.00    +0.004 A 
ATOM     15  C   UNL     1       5.947   3.528   4.941  0.00  0.00    +0.047 A 
ATOM     16  C   UNL     1       4.958   2.620   4.601  0.00  0.00    +0.138 A 
BRANCH  16  17
ATOM     17  O   UNL     1       3.679   2.817   5.019  0.00  0.00    -0.505 OA
ATOM     18  H   UNL     1       3.479   2.418   5.876  0.00  0.00    +0.292 HD
ENDBRANCH  16  17
ENDBRANCH   7  11
BRANCH   1  19
ATOM     19  C   UNL     1      -0.966  -2.085   1.641  0.00  0.00    +0.090 C 
BRANCH  19  20
ATOM     20  C   UNL     1      -1.616  -1.642   0.329  0.00  0.00    -0.051 C 
BRANCH  20  21
ATOM     21  N   UNL     1      -2.521  -0.514   0.587  0.00  0.00    +0.382 N 
ATOM     22  H   UNL     1      -3.054  -0.313  -0.245  0.00  0.00    -0.081 HD
BRANCH  21  24
ATOM     23  C   UNL     1      -4.514   0.218   1.808  0.00  0.00    -0.017 C 
ATOM     24  C   UNL     1      -3.436  -0.861   1.683  0.00  0.00    -0.082 C 
ENDBRANCH  21  24
BRANCH  21  25
ATOM     25  C   UNL     1      -1.734   0.669   0.962  0.00  0.00    -0.082 C 
ATOM     26  C   UNL     1      -0.795   1.041  -0.186  0.00  0.00    -0.017 C 
ENDBRANCH  21  25
ENDBRANCH  20  21
BRANCH  20  27
ATOM     27  C   UNL     1      -2.411  -2.807  -0.265  0.00  0.00    -0.011 C 
BRANCH  27  28
ATOM     28  C   UNL     1      -1.445  -3.905  -0.716  0.00  0.00    -0.019 C 
ATOM     29  C   UNL     1      -2.242  -5.125  -1.181  0.00  0.00    +0.007 C 
ATOM     30  C   UNL     1      -0.587  -3.386  -1.872  0.00  0.00    +0.007 C 
ENDBRANCH  27  28
ENDBRANCH  20  27
ENDBRANCH  19  20
ENDBRANCH   1  19
TORSDOF 9
