REMARK  Name = ZINC59018609
REMARK  8 active torsions:
REMARK  status: ('A' for Active; 'I' for Inactive)
REMARK    1  A    between atoms: C_3  and  C_8
REMARK    2  A    between atoms: C_8  and  N_9
REMARK    3  A    between atoms: C_10  and  C_12
REMARK    4  A    between atoms: C_12  and  S_13
REMARK    5  A    between atoms: S_13  and  C_14
REMARK    6  A    between atoms: N_19  and  N_20
REMARK    7  A    between atoms: C_21  and  C_22
REMARK    8  A    between atoms: C_27  and  O_28
REMARK                            x       y       z     vdW  Elec       q    Type
REMARK                         _______ _______ _______ _____ _____    ______ ____
ROOT
ATOM      1  C   UNL     1       7.629   4.493   4.712  0.00  0.00    +0.211 A 
ATOM      2  N   UNL     1       8.700   5.133   5.195  0.00  0.00    -0.186 NA
ATOM      3  C   UNL     1       8.676   5.102   6.511  0.00  0.00    +0.232 A 
ATOM      4  N   UNL     1       7.569   4.430   6.893  0.00  0.00    -0.245 N 
ATOM      5  N   UNL     1       6.907   4.052   5.714  0.00  0.00    -0.144 NA
ATOM      6  N   UNL     1       9.620   5.660   7.354  0.00  0.00    -0.205 N 
ATOM      7  H   UNL     1       9.516   5.585   8.316  0.00  0.00    +0.177 HD
ATOM      8  H   UNL     1       7.286   4.247   7.803  0.00  0.00    +0.192 HD
ENDROOT
BRANCH   6   9
ATOM      9  N   UNL     1      10.726   6.334   6.820  0.00  0.00    -0.187 NA
ATOM     10  C   UNL     1      11.611   6.858   7.611  0.00  0.00    +0.142 C 
BRANCH  10  11
ATOM     11  C   UNL     1      12.775   7.566   7.049  0.00  0.00    +0.037 A 
ATOM     12  C   UNL     1      13.733   8.127   7.897  0.00  0.00    +0.033 A 
ATOM     13  C   UNL     1      14.820   8.789   7.363  0.00  0.00    +0.042 A 
ATOM     14  C   UNL     1      14.965   8.900   5.990  0.00  0.00    +0.023 A 
ATOM     15  C   UNL     1      14.023   8.349   5.141  0.00  0.00    +0.047 A 
ATOM     16  C   UNL     1      12.928   7.677   5.660  0.00  0.00    +0.126 A 
ATOM     17 CL   UNL     1      16.011   9.485   8.417  0.00  0.00    -0.084 Cl
BRANCH  16  18
ATOM     18  O   UNL     1      12.005   7.132   4.826  0.00  0.00    -0.506 OA
ATOM     19  H   UNL     1      11.282   7.730   4.595  0.00  0.00    +0.292 HD
ENDBRANCH  16  18
ENDBRANCH  10  11
ENDBRANCH   6   9
BRANCH   1  20
ATOM     20  S   UNL     1       7.247   4.284   3.004  0.00  0.00    -0.075 S 
BRANCH  20  21
ATOM     21  C   UNL     1       5.689   3.354   3.014  0.00  0.00    +0.173 C 
BRANCH  21  23
ATOM     22  N   UNL     1       4.104   2.427   1.357  0.00  0.00    -0.311 N 
ATOM     23  C   UNL     1       5.245   3.104   1.596  0.00  0.00    +0.224 C 
ATOM     24  O   UNL     1       5.912   3.513   0.670  0.00  0.00    -0.275 OA
ATOM     25  H   UNL     1       3.570   2.100   2.098  0.00  0.00    +0.149 HD
BRANCH  22  26
ATOM     26  C   UNL     1       3.672   2.184  -0.021  0.00  0.00    +0.139 C 
BRANCH  26  29
ATOM     27  C   UNL     1      -0.017   1.378   0.010  0.00  0.00    +0.002 A 
ATOM     28  C   UNL     1       1.171   2.086   0.002  0.00  0.00    +0.005 A 
ATOM     29  C   UNL     1       2.378   1.412  -0.013  0.00  0.00    -0.029 A 
ATOM     30  C   UNL     1       2.398   0.029  -0.021  0.00  0.00    +0.025 A 
ATOM     31  C   UNL     1       1.210  -0.679  -0.013  0.00  0.00    +0.041 A 
ATOM     32  C   UNL     1       0.002  -0.004   0.002  0.00  0.00    +0.020 A 
ATOM     33 CL   UNL     1       1.234  -2.415  -0.024  0.00  0.00    -0.084 Cl
ENDBRANCH  26  29
ENDBRANCH  22  26
ENDBRANCH  21  23
ENDBRANCH  20  21
ENDBRANCH   1  20
TORSDOF 8
