REMARK  Name = ZINC02241455
REMARK  8 active torsions:
REMARK  status: ('A' for Active; 'I' for Inactive)
REMARK    1  A    between atoms: C_1  and  C_2
REMARK    2  A    between atoms: C_4  and  C_5
REMARK    3  A    between atoms: C_7  and  C_10
REMARK    4  A    between atoms: N_12  and  C_13
REMARK    5  A    between atoms: C_21  and  C_22
REMARK    6  A    between atoms: C_22  and  C_24
REMARK    7  A    between atoms: C_30  and  O_31
REMARK    8  A    between atoms: C_32  and  C_34
REMARK                            x       y       z     vdW  Elec       q    Type
REMARK                         _______ _______ _______ _____ _____    ______ ____
ROOT
ATOM      1  C   UNL     1      -1.016  -3.773  -5.852  0.00  0.00    +0.268 C 
ATOM      2  O   UNL     1      -1.974  -3.098  -6.176  0.00  0.00    -0.268 OA
ATOM      3  N   UNL     1      -0.428  -4.584  -6.753  0.00  0.00    -0.277 N 
ATOM      4  H   UNL     1       0.382  -5.064  -6.518  0.00  0.00    +0.155 HD
ENDROOT
BRANCH   3   5
ATOM      5  C   UNL     1      -0.980  -4.733  -8.017  0.00  0.00    +0.091 A 
ATOM      6  C   UNL     1      -1.671  -3.708  -8.809  0.00  0.00    +0.042 A 
ATOM      7  C   UNL     1      -1.984  -2.365  -8.593  0.00  0.00    +0.013 A 
ATOM      8  C   UNL     1      -2.656  -1.663  -9.554  0.00  0.00    +0.001 A 
ATOM      9  C   UNL     1      -3.029  -2.278 -10.741  0.00  0.00    +0.004 A 
ATOM     10  C   UNL     1      -2.728  -3.603 -10.972  0.00  0.00    +0.047 A 
ATOM     11  C   UNL     1      -2.044  -4.337 -10.009  0.00  0.00    +0.138 A 
ATOM     12  O   UNL     1      -1.625  -5.617  -9.959  0.00  0.00    -0.450 OA
ATOM     13  C   UNL     1      -0.988  -5.875  -8.795  0.00  0.00    +0.197 A 
BRANCH  13  14
ATOM     14  C   UNL     1      -0.421  -7.120  -8.429  0.00  0.00    +0.230 C 
ATOM     15  O   UNL     1       0.041  -7.274  -7.313  0.00  0.00    -0.283 OA
BRANCH  14  16
ATOM     16  C   UNL     1      -0.391  -8.234  -9.403  0.00  0.00    +0.025 A 
ATOM     17  C   UNL     1      -1.028  -8.102 -10.638  0.00  0.00    +0.012 A 
ATOM     18  C   UNL     1      -0.995  -9.144 -11.541  0.00  0.00    +0.001 A 
ATOM     19  C   UNL     1      -0.333 -10.318 -11.226  0.00  0.00    +0.000 A 
ATOM     20  C   UNL     1       0.300 -10.454 -10.003  0.00  0.00    +0.001 A 
ATOM     21  C   UNL     1       0.280  -9.418  -9.093  0.00  0.00    +0.012 A 
ENDBRANCH  14  16
ENDBRANCH  13  14
ENDBRANCH   3   5
BRANCH   1  24
ATOM     22  C   UNL     1      -0.216  -3.174  -2.343  0.00  0.00    +0.070 A 
ATOM     23  C   UNL     1      -1.009  -2.907  -3.424  0.00  0.00    +0.062 A 
ATOM     24  C   UNL     1      -0.498  -3.705  -4.471  0.00  0.00    +0.148 A 
ATOM     25  N   UNL     1       0.526  -4.379  -3.986  0.00  0.00    -0.169 NA
ATOM     26  N   UNL     1       0.715  -4.083  -2.751  0.00  0.00    -0.276 N 
ATOM     27  H   UNL     1       1.415  -4.453  -2.190  0.00  0.00    +0.189 HD
BRANCH  22  31
ATOM     28  C   UNL     1      -1.095   0.771   0.583  0.00  0.00    +0.044 C 
ATOM     29  C   UNL     1      -0.763  -0.690   0.422  0.00  0.00    -0.049 A 
ATOM     30  C   UNL     1      -0.648  -1.234  -0.841  0.00  0.00    +0.017 A 
ATOM     31  C   UNL     1      -0.341  -2.585  -0.991  0.00  0.00    +0.042 A 
ATOM     32  C   UNL     1      -0.150  -3.382   0.144  0.00  0.00    +0.129 A 
ATOM     33  C   UNL     1      -0.268  -2.822   1.405  0.00  0.00    -0.008 A 
ATOM     34  C   UNL     1      -0.568  -1.480   1.541  0.00  0.00    +0.010 A 
ATOM     35  C   UNL     1      -0.064  -3.676   2.630  0.00  0.00    +0.047 C 
BRANCH  32  36
ATOM     36  O   UNL     1       0.150  -4.700   0.008  0.00  0.00    -0.506 OA
ATOM     37  H   UNL     1       1.098  -4.885  -0.037  0.00  0.00    +0.292 HD
ENDBRANCH  32  36
ENDBRANCH  22  31
ENDBRANCH   1  24
TORSDOF 6
