REMARK  Name = ZINC09312921
REMARK  4 active torsions:
REMARK  status: ('A' for Active; 'I' for Inactive)
REMARK    1  A    between atoms: C_9  and  C_11
REMARK    2  A    between atoms: C_12  and  O_26
REMARK    3  A    between atoms: C_14  and  O_25
REMARK    4  A    between atoms: N_15  and  C_18
REMARK                            x       y       z     vdW  Elec       q    Type
REMARK                         _______ _______ _______ _____ _____    ______ ____
ROOT
ATOM      1  C   UNL     1      -1.106  -2.094   0.100  0.00  0.00    +0.069 A 
ATOM      2  C   UNL     1       0.124  -2.717  -0.022  0.00  0.00    +0.224 A 
ATOM      3  N   UNL     1       1.235  -1.980  -0.127  0.00  0.00    -0.161 NA
ATOM      4  C   UNL     1       1.184  -0.667  -0.121  0.00  0.00    +0.306 A 
ATOM      5  N   UNL     1       0.002  -0.004   0.002  0.00  0.00    -0.231 N 
ATOM      6  C   UNL     1      -1.153  -0.694   0.111  0.00  0.00    +0.267 A 
ATOM      7  O   UNL     1      -2.219  -0.109   0.217  0.00  0.00    -0.267 OA
ENDROOT
BRANCH   1  16
ATOM      8  C   UNL     1      -4.731  -2.250  -3.285  0.00  0.00    +0.000 A 
ATOM      9  C   UNL     1      -3.362  -2.419  -3.381  0.00  0.00    +0.000 A 
ATOM     10  C   UNL     1      -2.614  -2.629  -2.240  0.00  0.00    +0.002 A 
ATOM     11  C   UNL     1      -3.228  -2.671  -0.996  0.00  0.00    -0.054 A 
ATOM     12  C   UNL     1      -4.592  -2.499  -0.901  0.00  0.00    -0.047 A 
ATOM     13  C   UNL     1      -5.343  -2.290  -2.049  0.00  0.00    +0.004 A 
ATOM     14  C   UNL     1      -5.302  -2.525   0.428  0.00  0.00    +0.016 C 
ATOM     15  C   UNL     1      -4.404  -3.164   1.487  0.00  0.00    -0.077 C 
ATOM     16  C   UNL     1      -2.370  -2.906   0.219  0.00  0.00    +0.001 C 
ATOM     17  N   UNL     1      -3.084  -2.507   1.440  0.00  0.00    +0.387 N 
ATOM     18  H   UNL     1      -2.535  -2.787   2.262  0.00  0.00    -0.085 HD
ATOM     19  H   UNL     1      -3.210  -1.488   1.443  0.00  0.00    -0.085 HD
ENDBRANCH   1  16
BRANCH   5  20
ATOM     20  C   UNL     1      -0.017   1.397   0.010  0.00  0.00    +0.054 A 
ATOM     21  C   UNL     1       0.090   2.088   1.210  0.00  0.00    +0.028 A 
ATOM     22  C   UNL     1       0.076   3.469   1.214  0.00  0.00    +0.022 A 
ATOM     23  C   UNL     1      -0.055   4.164   0.025  0.00  0.00    +0.041 A 
ATOM     24  C   UNL     1      -0.167   3.478  -1.172  0.00  0.00    +0.022 A 
ATOM     25  C   UNL     1      -0.148   2.098  -1.182  0.00  0.00    +0.028 A 
ATOM     26 CL   UNL     1      -0.079   5.900   0.035  0.00  0.00    -0.084 Cl
ENDBRANCH   5  20
BRANCH   4  27
ATOM     27  O   UNL     1       2.328   0.039  -0.235  0.00  0.00    -0.479 OA
ATOM     28  H   UNL     1       3.148  -0.466  -0.321  0.00  0.00    +0.295 HD
ENDBRANCH   4  27
BRANCH   2  29
ATOM     29  O   UNL     1       0.202  -4.068  -0.035  0.00  0.00    -0.492 OA
ATOM     30  H   UNL     1       1.102  -4.409  -0.124  0.00  0.00    +0.294 HD
ENDBRANCH   2  29
TORSDOF 4
