REMARK  Name = ZINC14011329
REMARK  6 active torsions:
REMARK  status: ('A' for Active; 'I' for Inactive)
REMARK    1  A    between atoms: C_1  and  C_2
REMARK    2  A    between atoms: C_6  and  N_9
REMARK    3  A    between atoms: C_7  and  C_8
REMARK    4  A    between atoms: C_10  and  C_12
REMARK    5  A    between atoms: C_12  and  C_13
REMARK    6  A    between atoms: N_24  and  C_27
REMARK                            x       y       z     vdW  Elec       q    Type
REMARK                         _______ _______ _______ _____ _____    ______ ____
ROOT
ATOM      1  C   UNL     1       2.377   0.624  -0.066  0.00  0.00    +0.112 C 
ATOM      2  C   UNL     1       1.907   2.084  -0.129  0.00  0.00    +0.103 C 
ATOM      3  S   UNL     1       0.089   1.871  -0.106  0.00  0.00    -0.085 S 
ATOM      4  C   UNL     1       0.008   0.094  -0.023  0.00  0.00    +0.174 A 
ATOM      5  N   UNL     1       1.296  -0.359  -0.012  0.00  0.00    -0.283 N 
ATOM      6  C   UNL     1       1.485  -1.717   0.049  0.00  0.00    +0.266 A 
ATOM      7  O   UNL     1       2.614  -2.176   0.062  0.00  0.00    -0.267 OA
ATOM      8  C   UNL     1       0.370  -2.581   0.097  0.00  0.00    +0.103 A 
ATOM      9  C   UNL     1       0.213  -3.982   0.163  0.00  0.00    +0.150 A 
ATOM     10  N   UNL     1      -1.062  -4.255   0.185  0.00  0.00    -0.172 NA
ATOM     11  N   UNL     1      -1.797  -3.064   0.136  0.00  0.00    -0.214 N 
ATOM     12  C   UNL     1      -0.920  -2.024   0.081  0.00  0.00    +0.171 A 
ATOM     13  N   UNL     1      -1.043  -0.695   0.021  0.00  0.00    -0.203 NA
ENDROOT
BRANCH  11  14
ATOM     14  C   UNL     1      -3.194  -2.960   0.141  0.00  0.00    +0.069 A 
ATOM     15  C   UNL     1      -3.810  -1.899   0.792  0.00  0.00    +0.028 A 
ATOM     16  C   UNL     1      -5.188  -1.797   0.792  0.00  0.00    +0.003 A 
ATOM     17  C   UNL     1      -5.954  -2.754   0.154  0.00  0.00    +0.020 A 
ATOM     18  C   UNL     1      -5.344  -3.816  -0.491  0.00  0.00    +0.043 A 
ATOM     19  C   UNL     1      -3.965  -3.921  -0.499  0.00  0.00    +0.047 A 
ATOM     20 CL   UNL     1      -6.310  -5.016  -1.291  0.00  0.00    -0.083 Cl
ENDBRANCH  11  14
BRANCH   1  21
ATOM     21  C   UNL     1       3.253   0.450   1.176  0.00  0.00    +0.122 C 
BRANCH  21  23
ATOM     22  N   UNL     1       5.404   1.323   2.030  0.00  0.00    -0.285 N 
ATOM     23  C   UNL     1       4.459   1.348   1.070  0.00  0.00    +0.219 C 
ATOM     24  O   UNL     1       4.579   2.092   0.120  0.00  0.00    -0.275 OA
ATOM     25  H   UNL     1       5.349   0.673   2.749  0.00  0.00    +0.155 HD
BRANCH  22  31
ATOM     26  C   UNL     1       8.706   4.080   4.411  0.00  0.00    +0.044 C 
ATOM     27  C   UNL     1       8.085   3.586   3.130  0.00  0.00    -0.046 A 
ATOM     28  C   UNL     1       8.566   4.034   1.912  0.00  0.00    +0.004 A 
ATOM     29  C   UNL     1       7.999   3.583   0.735  0.00  0.00    +0.002 A 
ATOM     30  C   UNL     1       6.955   2.680   0.770  0.00  0.00    +0.023 A 
ATOM     31  C   UNL     1       6.466   2.233   1.991  0.00  0.00    +0.037 A 
ATOM     32  C   UNL     1       7.038   2.688   3.172  0.00  0.00    -0.026 A 
ATOM     33  C   UNL     1       6.515   2.200   4.499  0.00  0.00    +0.046 C 
ENDBRANCH  22  31
ENDBRANCH  21  23
ENDBRANCH   1  21
TORSDOF 4
