REMARK  Name = ZINC07976633
REMARK  7 active torsions:
REMARK  status: ('A' for Active; 'I' for Inactive)
REMARK    1  A    between atoms: C_1  and  C_2
REMARK    2  A    between atoms: C_7  and  N_12
REMARK    3  A    between atoms: C_9  and  C_11
REMARK    4  A    between atoms: C_13  and  C_15
REMARK    5  A    between atoms: C_15  and  N_16
REMARK    6  A    between atoms: C_19  and  C_23
REMARK    7  A    between atoms: C_19  and  C_29
REMARK                            x       y       z     vdW  Elec       q    Type
REMARK                         _______ _______ _______ _____ _____    ______ ____
ROOT
ATOM      1  N   UNL     1       0.929  -5.185   5.178  0.00  0.00    -0.215 N 
ATOM      2  C   UNL     1      -0.008  -5.971   5.745  0.00  0.00    +0.256 C 
ATOM      3  O   UNL     1      -0.928  -5.619   6.452  0.00  0.00    -0.272 OA
ATOM      4  C   UNL     1       0.325  -7.384   5.311  0.00  0.00    +0.164 C 
ATOM      5  N   UNL     1       1.524  -7.216   4.472  0.00  0.00    -0.278 N 
ATOM      6  C   UNL     1       1.797  -5.899   4.451  0.00  0.00    +0.310 C 
ATOM      7  O   UNL     1       2.729  -5.411   3.842  0.00  0.00    -0.252 OA
ATOM      8  H   UNL     1       2.019  -7.917   4.021  0.00  0.00    +0.152 HD
ENDROOT
BRANCH   4   9
ATOM      9  C   UNL     1      -0.806  -7.973   4.507  0.00  0.00    -0.011 A 
ATOM     10  C   UNL     1      -0.547  -8.578   3.291  0.00  0.00    +0.006 A 
ATOM     11  C   UNL     1      -1.585  -9.118   2.554  0.00  0.00    +0.000 A 
ATOM     12  C   UNL     1      -2.880  -9.053   3.032  0.00  0.00    +0.000 A 
ATOM     13  C   UNL     1      -3.138  -8.449   4.248  0.00  0.00    +0.000 A 
ATOM     14  C   UNL     1      -2.100  -7.913   4.988  0.00  0.00    +0.006 A 
ENDBRANCH   4   9
BRANCH   4  15
ATOM     15  C   UNL     1       0.632  -8.247   6.508  0.00  0.00    -0.011 A 
ATOM     16  C   UNL     1       1.785  -9.009   6.533  0.00  0.00    +0.006 A 
ATOM     17  C   UNL     1       2.066  -9.801   7.630  0.00  0.00    +0.000 A 
ATOM     18  C   UNL     1       1.195  -9.831   8.703  0.00  0.00    +0.000 A 
ATOM     19  C   UNL     1       0.042  -9.068   8.678  0.00  0.00    +0.000 A 
ATOM     20  C   UNL     1      -0.237  -8.273   7.583  0.00  0.00    +0.006 A 
ENDBRANCH   4  15
BRANCH   1  21
ATOM     21  C   UNL     1       0.988  -3.730   5.335  0.00  0.00    +0.213 C 
BRANCH  21  23
ATOM     22  N   UNL     1       0.088  -1.731   4.189  0.00  0.00    -0.311 N 
ATOM     23  C   UNL     1       0.179  -3.074   4.246  0.00  0.00    +0.231 C 
ATOM     24  O   UNL     1      -0.390  -3.756   3.420  0.00  0.00    -0.274 OA
ATOM     25  H   UNL     1       0.544  -1.186   4.850  0.00  0.00    +0.149 HD
BRANCH  22  31
ATOM     26  C   UNL     1      -2.449   2.332   2.964  0.00  0.00    +0.008 C 
ATOM     27  C   UNL     1      -1.984   0.952   2.494  0.00  0.00    -0.009 C 
ATOM     28  C   UNL     1      -1.121   1.104   1.240  0.00  0.00    +0.003 C 
ATOM     29  C   UNL     1      -0.657  -0.276   0.770  0.00  0.00    +0.002 C 
ATOM     30  C   UNL     1       0.165  -0.942   1.876  0.00  0.00    +0.022 C 
ATOM     31  C   UNL     1      -0.698  -1.094   3.130  0.00  0.00    +0.076 C 
ATOM     32  C   UNL     1      -1.163   0.286   3.600  0.00  0.00    +0.009 C 
ATOM     33  C   UNL     1      -2.025   0.134   4.854  0.00  0.00    +0.009 C 
ENDBRANCH  22  31
ENDBRANCH  21  23
ENDBRANCH   1  21
TORSDOF 5
