REMARK  Name = ZINC08720412
REMARK  14 active torsions:
REMARK  status: ('A' for Active; 'I' for Inactive)
REMARK    1  A    between atoms: C_1  and  C_2
REMARK    2  A    between atoms: C_2  and  C_3
REMARK    3  A    between atoms: C_3  and  C_4
REMARK    4  A    between atoms: C_4  and  N_5
REMARK    5  A    between atoms: N_5  and  C_6
REMARK    6  A    between atoms: C_7  and  N_19
REMARK    7  A    between atoms: N_8  and  C_15
REMARK    8  A    between atoms: C_15  and  C_16
REMARK    9  A    between atoms: C_16  and  C_17
REMARK   10  A    between atoms: C_16  and  C_18
REMARK   11  A    between atoms: C_20  and  C_22
REMARK   12  A    between atoms: C_24  and  N_29
REMARK   13  A    between atoms: C_30  and  C_35
REMARK   14  A    between atoms: C_33  and  C_34
REMARK                            x       y       z     vdW  Elec       q    Type
REMARK                         _______ _______ _______ _____ _____    ______ ____
ROOT
ATOM      1  N   UNL     1       0.224  -2.833   2.300  0.00  0.00    -0.260 N 
ATOM      2  C   UNL     1      -0.006  -2.226   3.481  0.00  0.00    +0.253 C 
ATOM      3  O   UNL     1      -0.286  -1.042   3.511  0.00  0.00    -0.270 OA
ENDROOT
BRANCH   1   4
ATOM      4  C   UNL     1       0.238  -2.077   1.109  0.00  0.00    +0.140 A 
ATOM      5  C   UNL     1       1.214  -1.126   0.893  0.00  0.00    +0.127 A 
ATOM      6  N   UNL     1       1.201  -0.404  -0.278  0.00  0.00    -0.280 N 
ATOM      7  C   UNL     1       0.245  -0.620  -1.200  0.00  0.00    +0.331 A 
ATOM      8  O   UNL     1       0.247   0.032  -2.227  0.00  0.00    -0.246 OA
ATOM      9  N   UNL     1      -0.711  -1.547  -1.009  0.00  0.00    -0.273 N 
ATOM     10  H   UNL     1      -1.406  -1.693  -1.714  0.00  0.00    +0.173 HD
ATOM     11  C   UNL     1      -0.744  -2.280   0.120  0.00  0.00    +0.277 A 
ATOM     12  O   UNL     1      -1.617  -3.115   0.285  0.00  0.00    -0.266 OA
BRANCH   5  13
ATOM     13  N   UNL     1       2.187  -0.901   1.837  0.00  0.00    -0.343 N 
ATOM     14  H   UNL     1       2.911  -0.284   1.649  0.00  0.00    +0.144 HD
ATOM     15  H   UNL     1       2.150  -1.360   2.691  0.00  0.00    +0.144 HD
ENDBRANCH   5  13
BRANCH   6  16
ATOM     16  C   UNL     1       2.230   0.609  -0.521  0.00  0.00    +0.131 C 
BRANCH  16  17
ATOM     17  C   UNL     1       3.424  -0.035  -1.229  0.00  0.00    +0.003 C 
ATOM     18  C   UNL     1       2.994  -0.516  -2.616  0.00  0.00    +0.009 C 
ATOM     19  C   UNL     1       4.548   0.993  -1.370  0.00  0.00    +0.009 C 
ENDBRANCH  16  17
ENDBRANCH   6  16
ENDBRANCH   1   4
BRANCH   2  20
ATOM     20  C   UNL     1       0.080  -2.998   4.737  0.00  0.00    +0.057 A 
ATOM     21  C   UNL     1      -0.750  -4.102   4.940  0.00  0.00    +0.040 A 
ATOM     22  C   UNL     1      -0.660  -4.823   6.119  0.00  0.00    +0.047 A 
ATOM     23  C   UNL     1       0.247  -4.441   7.101  0.00  0.00    +0.027 A 
ATOM     24  C   UNL     1       1.065  -3.346   6.905  0.00  0.00    +0.023 A 
ATOM     25  C   UNL     1       0.988  -2.622   5.730  0.00  0.00    +0.053 A 
ATOM     26 CL   UNL     1       2.018  -1.245   5.489  0.00  0.00    -0.083 Cl
BRANCH  22  27
ATOM     27  N   UNL     1      -1.488  -5.936   6.324  0.00  0.00    -0.318 N 
ATOM     28  C   UNL     1      -1.407  -7.123   5.652  0.00  0.00    +0.021 A 
ATOM     29  C   UNL     1      -2.365  -7.943   6.130  0.00  0.00    +0.023 A 
ATOM     30  C   UNL     1      -3.069  -7.236   7.126  0.00  0.00    +0.023 A 
ATOM     31  C   UNL     1      -2.512  -6.012   7.224  0.00  0.00    +0.021 A 
ATOM     32  C   UNL     1      -2.945  -4.917   8.164  0.00  0.00    +0.064 C 
ATOM     33  C   UNL     1      -0.417  -7.459   4.567  0.00  0.00    +0.064 C 
ENDBRANCH  22  27
ENDBRANCH   2  20
BRANCH   1  34
ATOM     34  C   UNL     1       0.460  -4.278   2.253  0.00  0.00    +0.114 C 
BRANCH  34  35
ATOM     35  C   UNL     1       1.966  -4.550   2.281  0.00  0.00    +0.019 C 
BRANCH  35  37
ATOM     36  C   UNL     1       3.712  -6.336   2.247  0.00  0.00    +0.004 C 
ATOM     37  C   UNL     1       2.217  -6.048   2.098  0.00  0.00    -0.002 C 
ENDBRANCH  35  37
ENDBRANCH  34  35
ENDBRANCH   1  34
TORSDOF 9
