REMARK  Name = ZINC20442310
REMARK  3 active torsions:
REMARK  status: ('A' for Active; 'I' for Inactive)
REMARK    1  A    between atoms: N_9  and  C_12
REMARK    2  A    between atoms: C_12  and  C_20
REMARK    3  A    between atoms: C_20  and  N_21
REMARK                            x       y       z     vdW  Elec       q    Type
REMARK                         _______ _______ _______ _____ _____    ______ ____
ROOT
ATOM      1  C   UNL     1       1.569   9.028   1.095  0.00  0.00    -0.005 C 
ATOM      2  C   UNL     1       2.212   9.008  -0.295  0.00  0.00    -0.058 C 
ATOM      3  N   UNL     1       3.602   9.474  -0.196  0.00  0.00    +0.381 N 
ATOM      4  C   UNL     1       3.661  10.860   0.288  0.00  0.00    -0.078 C 
ATOM      5  C   UNL     1       3.059  10.933   1.694  0.00  0.00    -0.014 C 
ATOM      6  C   UNL     1       2.603   9.529   2.111  0.00  0.00    +0.002 C 
ATOM      7  C   UNL     1       3.816   8.590   2.078  0.00  0.00    -0.014 C 
ATOM      8  C   UNL     1       4.397   8.583   0.661  0.00  0.00    -0.078 C 
ATOM      9  H   UNL     1       4.038   9.449  -1.205  0.00  0.00    -0.082 HD
ENDROOT
BRANCH   1  18
ATOM     10  C   UNL     1      -1.345   2.451   3.706  0.00  0.00    +0.120 A 
ATOM     11  C   UNL     1      -2.153   1.934   2.750  0.00  0.00    +0.068 A 
ATOM     12  S   UNL     1      -2.202   3.289   1.586  0.00  0.00    -0.061 S 
ATOM     13  C   UNL     1      -1.166   4.375   2.459  0.00  0.00    +0.161 A 
ATOM     14  N   UNL     1      -0.863   3.668   3.532  0.00  0.00    -0.233 NA
ATOM     15  N   UNL     1      -0.760   5.655   2.117  0.00  0.00    -0.307 N 
ATOM     16  C   UNL     1      -0.103   5.666   0.802  0.00  0.00    +0.122 C 
ATOM     17  C   UNL     1       0.257   7.105   0.427  0.00  0.00    +0.104 C 
ATOM     18  N   UNL     1       1.139   7.671   1.457  0.00  0.00    -0.297 NA
ATOM     19  C   UNL     1       0.483   7.660   2.772  0.00  0.00    +0.104 C 
ATOM     20  C   UNL     1       0.122   6.221   3.148  0.00  0.00    +0.122 C 
ENDBRANCH   1  18
BRANCH   1  21
ATOM     21  C   UNL     1       0.359   9.964   1.086  0.00  0.00    -0.065 C 
BRANCH  21  22
ATOM     22  N   UNL     1      -0.566   9.560   0.019  0.00  0.00    +0.379 N 
ATOM     23  H   UNL     1      -1.436  10.233   0.013  0.00  0.00    -0.090 HD
ATOM     24  H   UNL     1      -0.902   8.528   0.197  0.00  0.00    -0.090 HD
ATOM     25  H   UNL     1      -0.052   9.616  -0.952  0.00  0.00    -0.090 HD
ENDBRANCH  21  22
ENDBRANCH   1  21
TORSDOF 3
