REMARK  Name = ZINC12384105
REMARK  10 active torsions:
REMARK  status: ('A' for Active; 'I' for Inactive)
REMARK    1  A    between atoms: C_1  and  C_2
REMARK    2  A    between atoms: C_2  and  C_38
REMARK    3  A    between atoms: C_3  and  N_27
REMARK    4  A    between atoms: N_5  and  C_21
REMARK    5  A    between atoms: N_8  and  C_9
REMARK    6  A    between atoms: C_9  and  C_10
REMARK    7  A    between atoms: N_12  and  N_13
REMARK    8  A    between atoms: C_14  and  C_15
REMARK    9  A    between atoms: N_27  and  O_37
REMARK   10  A    between atoms: N_30  and  C_31
REMARK                            x       y       z     vdW  Elec       q    Type
REMARK                         _______ _______ _______ _____ _____    ______ ____
ROOT
ATOM      1  C   UNL     1      -7.685   3.171  -3.164  0.00  0.00    +0.035 C 
ATOM      2  C   UNL     1      -8.440   1.927  -2.690  0.00  0.00    +0.071 C 
ATOM      3  C   UNL     1      -9.797   2.320  -2.075  0.00  0.00    +0.224 C 
ATOM      4  N   UNL     1      -9.701   1.853  -0.683  0.00  0.00    -0.232 N 
ATOM      5  C   UNL     1      -8.507   1.277  -0.494  0.00  0.00    +0.312 C 
ATOM      6  O   UNL     1      -8.164   0.797   0.569  0.00  0.00    -0.252 OA
ATOM      7  N   UNL     1      -7.724   1.280  -1.580  0.00  0.00    -0.268 N 
ATOM      8  C   UNL     1      -8.639   0.945  -3.846  0.00  0.00    +0.035 C 
ENDROOT
BRANCH   4   9
ATOM      9  C   UNL     1     -10.701   1.985   0.287  0.00  0.00    +0.040 A 
ATOM     10  C   UNL     1     -11.896   1.290   0.153  0.00  0.00    +0.023 A 
ATOM     11  C   UNL     1     -12.879   1.418   1.115  0.00  0.00    +0.002 A 
ATOM     12  C   UNL     1     -12.679   2.245   2.204  0.00  0.00    +0.000 A 
ATOM     13  C   UNL     1     -11.492   2.943   2.337  0.00  0.00    +0.002 A 
ATOM     14  C   UNL     1     -10.503   2.815   1.382  0.00  0.00    +0.023 A 
ENDBRANCH   4   9
BRANCH   3  15
ATOM     15  N   UNL     1      -9.980   3.773  -2.118  0.00  0.00    -0.144 N 
ATOM     16  C   UNL     1     -11.142   4.293  -2.558  0.00  0.00    +0.331 C 
ATOM     17  O   UNL     1     -12.007   3.562  -3.000  0.00  0.00    -0.250 OA
ATOM     18  N   UNL     1     -11.347   5.625  -2.509  0.00  0.00    -0.268 N 
ATOM     19  H   UNL     1     -10.637   6.213  -2.207  0.00  0.00    +0.156 HD
BRANCH  18  20
ATOM     20  C   UNL     1     -12.582   6.158  -2.893  0.00  0.00    +0.035 A 
ATOM     21  C   UNL     1     -13.755   5.468  -2.613  0.00  0.00    +0.023 A 
ATOM     22  C   UNL     1     -14.973   5.999  -2.990  0.00  0.00    +0.002 A 
ATOM     23  C   UNL     1     -15.025   7.211  -3.653  0.00  0.00    +0.000 A 
ATOM     24  C   UNL     1     -13.859   7.898  -3.938  0.00  0.00    +0.002 A 
ATOM     25  C   UNL     1     -12.638   7.375  -3.560  0.00  0.00    +0.023 A 
ENDBRANCH  18  20
BRANCH  15  26
ATOM     26  O   UNL     1      -8.935   4.631  -1.696  0.00  0.00    -0.289 OA
ATOM     27  H   UNL     1      -9.171   5.569  -1.699  0.00  0.00    +0.242 HD
ENDBRANCH  15  26
ENDBRANCH   3  15
BRANCH   7  28
ATOM     28  C   UNL     1      -6.371   0.723  -1.653  0.00  0.00    +0.207 C 
BRANCH  28  29
ATOM     29  C   UNL     1      -5.368   1.789  -1.293  0.00  0.00    +0.250 C 
ATOM     30  O   UNL     1      -5.747   2.905  -1.004  0.00  0.00    -0.272 OA
ATOM     31  N   UNL     1      -4.051   1.503  -1.293  0.00  0.00    -0.206 N 
ATOM     32  H   UNL     1      -3.749   0.611  -1.524  0.00  0.00    +0.177 HD
BRANCH  31  33
ATOM     33  N   UNL     1      -3.119   2.494  -0.958  0.00  0.00    -0.188 NA
ATOM     34  C   UNL     1      -1.851   2.218  -0.957  0.00  0.00    +0.138 C 
BRANCH  34  35
ATOM     35  C   UNL     1      -0.870   3.261  -0.605  0.00  0.00    -0.005 A 
ATOM     36  C   UNL     1       0.496   2.968  -0.603  0.00  0.00    +0.009 A 
ATOM     37  C   UNL     1       1.408   3.950  -0.279  0.00  0.00    +0.001 A 
ATOM     38  C   UNL     1       0.973   5.222   0.050  0.00  0.00    +0.000 A 
ATOM     39  C   UNL     1      -0.379   5.518   0.056  0.00  0.00    +0.001 A 
ATOM     40  C   UNL     1      -1.302   4.546  -0.267  0.00  0.00    +0.009 A 
ENDBRANCH  34  35
ENDBRANCH  31  33
ENDBRANCH  28  29
ENDBRANCH   7  28
TORSDOF 8
