REMARK  Name = ZINC20589926
REMARK  4 active torsions:
REMARK  status: ('A' for Active; 'I' for Inactive)
REMARK    1  A    between atoms: C_3  and  C_6
REMARK    2  A    between atoms: N_8  and  C_9
REMARK    3  A    between atoms: C_9  and  C_10
REMARK    4  A    between atoms: C_10  and  C_11
REMARK                            x       y       z     vdW  Elec       q    Type
REMARK                         _______ _______ _______ _____ _____    ______ ____
ROOT
ATOM      1  C   UNL     1       8.451   0.351  -0.077  0.00  0.00    +0.217 C 
ATOM      2  O   UNL     1       8.734   1.530  -0.073  0.00  0.00    -0.276 OA
ATOM      3  N   UNL     1       9.429  -0.576  -0.091  0.00  0.00    -0.301 N 
ATOM      4  C   UNL     1       9.103  -2.009  -0.102  0.00  0.00    +0.110 C 
ATOM      5  C   UNL     1       9.838  -2.690   1.057  0.00  0.00    +0.047 C 
ATOM      6  C   UNL     1      11.333  -2.384   0.958  0.00  0.00    +0.064 C 
ATOM      7  C   UNL     1      11.559  -0.875   1.061  0.00  0.00    +0.047 C 
ATOM      8  C   UNL     1      10.842  -0.174  -0.102  0.00  0.00    +0.110 C 
ATOM      9  C   UNL     1      12.070  -3.087   2.066  0.00  0.00    +0.057 A 
ATOM     10  C   UNL     1      12.798  -4.213   1.886  0.00  0.00    +0.039 A 
ATOM     11  N   UNL     1      13.313  -4.564   3.064  0.00  0.00    -0.349 N 
ATOM     12  C   UNL     1      12.933  -3.702   3.972  0.00  0.00    +0.171 A 
ATOM     13  N   UNL     1      12.154  -2.764   3.384  0.00  0.00    -0.348 N 
ATOM     14  H   UNL     1      11.735  -2.006   3.820  0.00  0.00    +0.166 HD
ATOM     15  C   UNL     1      12.946  -4.890   0.546  0.00  0.00    +0.070 C 
ATOM     16  C   UNL     1      11.855  -4.341  -0.384  0.00  0.00    +0.088 C 
ATOM     17  N   UNL     1      11.851  -2.873  -0.330  0.00  0.00    -0.305 NA
ATOM     18  H   UNL     1      11.329  -2.484  -1.101  0.00  0.00    +0.123 HD
ATOM     19  H   UNL     1      13.879  -5.336   3.223  0.00  0.00    +0.166 HD
ENDROOT
BRANCH   1  20
ATOM     20  C   UNL     1       7.006  -0.078  -0.065  0.00  0.00    +0.114 C 
BRANCH  20  21
ATOM     21  C   UNL     1       6.107   1.160  -0.050  0.00  0.00    +0.113 C 
BRANCH  21  24
ATOM     22  C   UNL     1       3.725   1.670  -0.025  0.00  0.00    +0.251 C 
ATOM     23  O   UNL     1       4.008   2.853  -0.021  0.00  0.00    -0.270 OA
ATOM     24  N   UNL     1       4.703   0.743  -0.039  0.00  0.00    -0.310 N 
ATOM     25  H   UNL     1       4.477  -0.201  -0.042  0.00  0.00    +0.149 HD
BRANCH  22  28
ATOM     26  C   UNL     1      -0.016   1.352   0.009  0.00  0.00    +0.008 A 
ATOM     27  C   UNL     1       1.175   2.036   0.002  0.00  0.00    +0.021 A 
ATOM     28  C   UNL     1       2.320   1.253  -0.013  0.00  0.00    +0.074 A 
ATOM     29  S   UNL     1       1.636  -0.394  -0.016  0.00  0.00    -0.092 S 
ATOM     30  C   UNL     1       0.002  -0.004   0.002  0.00  0.00    +0.046 A 
ENDBRANCH  22  28
ENDBRANCH  21  24
ENDBRANCH  20  21
ENDBRANCH   1  20
TORSDOF 4
