REMARK  Name = ZINC37804625
REMARK  7 active torsions:
REMARK  status: ('A' for Active; 'I' for Inactive)
REMARK    1  A    between atoms: C_1  and  C_2
REMARK    2  A    between atoms: C_2  and  C_3
REMARK    3  A    between atoms: C_2  and  N_4
REMARK    4  A    between atoms: C_7  and  N_10
REMARK    5  A    between atoms: N_10  and  C_11
REMARK    6  A    between atoms: C_12  and  C_14
REMARK    7  A    between atoms: C_17  and  O_21
REMARK                            x       y       z     vdW  Elec       q    Type
REMARK                         _______ _______ _______ _____ _____    ______ ____
ROOT
ATOM      1  N   UNL     1      -4.983  -2.455  -0.980  0.00  0.00    -0.303 N 
ATOM      2  C   UNL     1      -5.779  -2.059   0.185  0.00  0.00    +0.132 C 
ATOM      3  C   UNL     1      -5.529  -3.229  -1.938  0.00  0.00    +0.202 C 
ATOM      4  O   UNL     1      -4.869  -3.556  -2.902  0.00  0.00    -0.277 OA
ENDROOT
BRANCH   1   8
ATOM      5  N   UNL     1      -1.376  -0.512   0.012  0.00  0.00    +0.381 N 
ATOM      6  C   UNL     1      -2.087  -0.018  -1.173  0.00  0.00    -0.077 C 
ATOM      7  C   UNL     1      -3.546  -0.478  -1.125  0.00  0.00    +0.004 C 
ATOM      8  C   UNL     1      -3.593  -2.009  -1.101  0.00  0.00    +0.072 C 
ATOM      9  C   UNL     1      -2.785  -2.515   0.097  0.00  0.00    +0.004 C 
ATOM     10  C   UNL     1      -1.355  -1.980   0.004  0.00  0.00    -0.077 C 
ATOM     11  H   UNL     1      -1.847  -0.189   0.844  0.00  0.00    -0.081 HD
BRANCH   5  13
ATOM     12  C   UNL     1      -0.019   1.526   0.010  0.00  0.00    -0.014 C 
ATOM     13  C   UNL     1       0.002  -0.004   0.002  0.00  0.00    -0.075 C 
ATOM     14  C   UNL     1       0.742  -0.511   1.242  0.00  0.00    -0.014 C 
ENDBRANCH   5  13
ENDBRANCH   1   8
BRANCH   3  15
ATOM     15  C   UNL     1      -6.959  -3.688  -1.813  0.00  0.00    +0.019 C 
ATOM     16  C   UNL     1      -7.040  -4.899  -0.861  0.00  0.00    +0.023 C 
ATOM     17  C   UNL     1      -8.110  -5.800  -1.531  0.00  0.00    +0.097 C 
ATOM     18  C   UNL     1      -7.823  -5.561  -3.035  0.00  0.00    -0.050 C 
ATOM     19  N   UNL     1      -7.462  -4.126  -3.127  0.00  0.00    +0.388 N 
ATOM     20  H   UNL     1      -8.275  -3.584  -3.378  0.00  0.00    -0.085 HD
ATOM     21  H   UNL     1      -6.744  -4.001  -3.825  0.00  0.00    -0.085 HD
BRANCH  17  22
ATOM     22  O   UNL     1      -7.915  -7.172  -1.184  0.00  0.00    -0.394 OA
ATOM     23  H   UNL     1      -8.560  -7.774  -1.580  0.00  0.00    +0.210 HD
ENDBRANCH  17  22
ENDBRANCH   3  15
TORSDOF 4
