REMARK  Name = ZINC06217997
REMARK  5 active torsions:
REMARK  status: ('A' for Active; 'I' for Inactive)
REMARK    1  A    between atoms: C_1  and  C_2
REMARK    2  A    between atoms: C_7  and  C_8
REMARK    3  A    between atoms: N_10  and  N_11
REMARK    4  A    between atoms: C_15  and  C_16
REMARK    5  A    between atoms: C_20  and  N_22
REMARK                            x       y       z     vdW  Elec       q    Type
REMARK                         _______ _______ _______ _____ _____    ______ ____
ROOT
ATOM      1  N   UNL     1      -3.080  -1.844  -0.251  0.00  0.00    -0.169 N 
ATOM      2  C   UNL     1      -3.746  -2.026  -1.379  0.00  0.00    +0.275 C 
ATOM      3  O   UNL     1      -3.351  -1.569  -2.436  0.00  0.00    -0.267 OA
ATOM      4  C   UNL     1      -4.992  -2.817  -1.292  0.00  0.00    +0.079 C 
ATOM      5  C   UNL     1      -5.866  -3.164  -2.269  0.00  0.00    +0.028 C 
ATOM      6  S   UNL     1      -5.032  -3.185   0.457  0.00  0.00    -0.059 S 
ATOM      7  C   UNL     1      -3.525  -2.347   0.918  0.00  0.00    +0.138 C 
ATOM      8  S   UNL     1      -2.815  -2.215   2.471  0.00  0.00    -0.026 S 
ENDROOT
BRANCH   5   9
ATOM      9  C   UNL     1      -6.963  -4.097  -1.976  0.00  0.00    -0.022 A 
ATOM     10  C   UNL     1      -8.115  -4.102  -2.771  0.00  0.00    +0.008 A 
ATOM     11  C   UNL     1      -9.139  -4.980  -2.490  0.00  0.00    +0.003 A 
ATOM     12  C   UNL     1      -9.031  -5.856  -1.423  0.00  0.00    +0.033 A 
ATOM     13  C   UNL     1      -7.896  -5.858  -0.632  0.00  0.00    +0.127 A 
ATOM     14  C   UNL     1      -6.860  -4.990  -0.903  0.00  0.00    +0.040 A 
BRANCH  13  15
ATOM     15  N   UNL     1      -7.791  -6.799   0.506  0.00  0.00    +0.056 N 
ATOM     16  O   UNL     1      -8.703  -7.571   0.744  0.00  0.00    -0.126 OA
ATOM     17  O   UNL     1      -6.793  -6.803   1.204  0.00  0.00    -0.126 OA
ENDBRANCH  13  15
ENDBRANCH   5   9
BRANCH   1  20
ATOM     18  C   UNL     1      -0.703  -1.739  -0.168  0.00  0.00    +0.261 C 
ATOM     19  O   UNL     1      -0.667  -2.949  -0.059  0.00  0.00    -0.269 OA
ATOM     20  N   UNL     1      -1.889  -1.107  -0.271  0.00  0.00    -0.222 N 
ATOM     21  H   UNL     1      -1.918  -0.141  -0.358  0.00  0.00    +0.174 HD
BRANCH  18  28
ATOM     22  C   UNL     1       1.816  -3.077   0.318  0.00  0.00    +0.044 C 
ATOM     23  C   UNL     1       1.774  -1.595   0.044  0.00  0.00    -0.038 A 
ATOM     24  C   UNL     1       2.944  -0.863   0.023  0.00  0.00    +0.004 A 
ATOM     25  C   UNL     1       2.908   0.497  -0.228  0.00  0.00    +0.000 A 
ATOM     26  C   UNL     1       1.700   1.132  -0.459  0.00  0.00    +0.001 A 
ATOM     27  C   UNL     1       0.524   0.412  -0.441  0.00  0.00    +0.013 A 
ATOM     28  C   UNL     1       0.553  -0.961  -0.188  0.00  0.00    +0.041 A 
ENDBRANCH  18  28
ENDBRANCH   1  20
TORSDOF 4
