REMARK  Name = ZINC35887237
REMARK  7 active torsions:
REMARK  status: ('A' for Active; 'I' for Inactive)
REMARK    1  A    between atoms: C_2  and  C_3
REMARK    2  A    between atoms: C_3  and  N_4
REMARK    3  A    between atoms: N_4  and  C_5
REMARK    4  A    between atoms: C_5  and  C_6
REMARK    5  A    between atoms: C_6  and  N_8
REMARK    6  A    between atoms: C_11  and  C_21
REMARK    7  A    between atoms: N_13  and  C_14
REMARK                            x       y       z     vdW  Elec       q    Type
REMARK                         _______ _______ _______ _____ _____    ______ ____
ROOT
ATOM      1  N   UNL     1       3.774  -4.118   2.441  0.00  0.00    -0.148 NA
ATOM      2  C   UNL     1       3.820  -4.969   3.466  0.00  0.00    +0.205 A 
ATOM      3  N   UNL     1       2.841  -5.162   4.387  0.00  0.00    -0.326 N 
ATOM      4  C   UNL     1       3.282  -6.131   5.281  0.00  0.00    +0.066 A 
ATOM      5  C   UNL     1       4.514  -6.514   4.900  0.00  0.00    +0.120 A 
ATOM      6  N   UNL     1       4.853  -5.801   3.768  0.00  0.00    -0.287 N 
ATOM      7  H   UNL     1       1.986  -4.705   4.416  0.00  0.00    +0.169 HD
ENDROOT
BRANCH   6   8
ATOM      8  C   UNL     1       6.054  -5.912   3.057  0.00  0.00    +0.051 A 
ATOM      9  C   UNL     1       6.273  -5.124   1.934  0.00  0.00    +0.026 A 
ATOM     10  C   UNL     1       7.459  -5.234   1.234  0.00  0.00    +0.003 A 
ATOM     11  C   UNL     1       8.428  -6.129   1.650  0.00  0.00    +0.020 A 
ATOM     12  C   UNL     1       8.213  -6.916   2.767  0.00  0.00    +0.043 A 
ATOM     13  C   UNL     1       7.031  -6.805   3.475  0.00  0.00    +0.046 A 
ATOM     14 CL   UNL     1       9.432  -8.039   3.285  0.00  0.00    -0.083 Cl
ENDBRANCH   6   8
BRANCH   4  15
ATOM     15  C   UNL     1       2.531  -6.647   6.446  0.00  0.00    -0.000 A 
ATOM     16  C   UNL     1       3.098  -7.621   7.269  0.00  0.00    +0.010 A 
ATOM     17  C   UNL     1       2.392  -8.098   8.355  0.00  0.00    +0.001 A 
ATOM     18  C   UNL     1       1.125  -7.614   8.627  0.00  0.00    +0.000 A 
ATOM     19  C   UNL     1       0.557  -6.649   7.814  0.00  0.00    +0.001 A 
ATOM     20  C   UNL     1       1.255  -6.159   6.729  0.00  0.00    +0.010 A 
ENDBRANCH   4  15
BRANCH   1  21
ATOM     21  C   UNL     1       2.701  -3.358   2.257  0.00  0.00    +0.222 C 
ATOM     22  O   UNL     1       1.760  -3.439   3.023  0.00  0.00    -0.276 OA
BRANCH  21  23
ATOM     23  C   UNL     1       2.650  -2.395   1.099  0.00  0.00    +0.017 C 
BRANCH  23  24
ATOM     24  N   UNL     1       1.368  -1.678   1.115  0.00  0.00    +0.387 N 
ATOM     25  H   UNL     1       1.278  -1.168   1.980  0.00  0.00    -0.085 HD
ATOM     26  H   UNL     1       0.611  -2.341   1.035  0.00  0.00    -0.085 HD
BRANCH  24  27
ATOM     27  C   UNL     1       1.317  -0.740  -0.015  0.00  0.00    -0.055 C 
BRANCH  27  29
ATOM     28  C   UNL     1      -0.016   1.306   0.009  0.00  0.00    +0.002 C 
ATOM     29  C   UNL     1       0.002  -0.004   0.002  0.00  0.00    -0.054 C 
ENDBRANCH  27  29
ENDBRANCH  24  27
ENDBRANCH  23  24
ENDBRANCH  21  23
ENDBRANCH   1  21
TORSDOF 7
