REMARK  Name = ZINC03210836
REMARK  6 active torsions:
REMARK  status: ('A' for Active; 'I' for Inactive)
REMARK    1  A    between atoms: C_1  and  C_2
REMARK    2  A    between atoms: C_5  and  C_16
REMARK    3  A    between atoms: N_8  and  C_10
REMARK    4  A    between atoms: N_18  and  N_19
REMARK    5  A    between atoms: N_19  and  C_20
REMARK    6  A    between atoms: C_20  and  C_22
REMARK                            x       y       z     vdW  Elec       q    Type
REMARK                         _______ _______ _______ _____ _____    ______ ____
ROOT
ATOM      1  C   UNL     1       7.363   5.257  -0.039  0.00  0.00    +0.267 C 
ATOM      2  O   UNL     1       6.680   6.265  -0.027  0.00  0.00    -0.268 OA
ATOM      3  N   UNL     1       6.775   4.045  -0.040  0.00  0.00    -0.232 N 
ATOM      4  H   UNL     1       7.319   3.242  -0.050  0.00  0.00    +0.173 HD
ENDROOT
BRANCH   1   9
ATOM      5  C   UNL     1      12.143   8.716  -0.067  0.00  0.00    +0.068 C 
ATOM      6  C   UNL     1      12.156   7.209  -0.074  0.00  0.00    +0.069 A 
ATOM      7  C   UNL     1      10.996   6.367  -0.068  0.00  0.00    +0.031 A 
ATOM      8  C   UNL     1       9.597   6.486  -0.054  0.00  0.00    +0.032 A 
ATOM      9  C   UNL     1       8.825   5.363  -0.053  0.00  0.00    +0.078 A 
ATOM     10  S   UNL     1      10.037   4.054  -0.063  0.00  0.00    -0.064 S 
ATOM     11  C   UNL     1      11.500   5.058  -0.080  0.00  0.00    +0.113 A 
ATOM     12  N   UNL     1      12.848   5.115  -0.093  0.00  0.00    -0.225 N 
ATOM     13  N   UNL     1      13.221   6.465  -0.089  0.00  0.00    -0.170 NA
BRANCH  12  14
ATOM     14  C   UNL     1      13.719   4.019  -0.107  0.00  0.00    +0.067 A 
ATOM     15  C   UNL     1      13.391   2.860   0.583  0.00  0.00    +0.028 A 
ATOM     16  C   UNL     1      14.250   1.778   0.563  0.00  0.00    +0.002 A 
ATOM     17  C   UNL     1      15.441   1.853  -0.136  0.00  0.00    +0.000 A 
ATOM     18  C   UNL     1      15.773   3.008  -0.820  0.00  0.00    +0.002 A 
ATOM     19  C   UNL     1      14.916   4.090  -0.808  0.00  0.00    +0.028 A 
ENDBRANCH  12  14
ENDBRANCH   1   9
BRANCH   3  20
ATOM     20  N   UNL     1       5.378   3.943  -0.027  0.00  0.00    -0.261 N 
ATOM     21  H   UNL     1       4.833   4.746  -0.018  0.00  0.00    +0.170 HD
BRANCH  20  22
ATOM     22  C   UNL     1       4.768   2.687  -0.028  0.00  0.00    +0.080 C 
ATOM     23  C   UNL     1       5.519   1.580  -0.041  0.00  0.00    +0.038 C 
BRANCH  22  24
ATOM     24  C   UNL     1       3.297   2.580  -0.015  0.00  0.00    +0.151 A 
ATOM     25  C   UNL     1       2.600   1.417  -0.014  0.00  0.00    +0.059 A 
ATOM     26  C   UNL     1       1.185   1.793   0.000  0.00  0.00    +0.021 A 
ATOM     27  C   UNL     1      -0.013   1.076   0.008  0.00  0.00    +0.011 A 
ATOM     28  C   UNL     1      -1.204   1.746   0.017  0.00  0.00    +0.001 A 
ATOM     29  C   UNL     1      -1.229   3.134   0.029  0.00  0.00    +0.004 A 
ATOM     30  C   UNL     1      -0.057   3.860   0.022  0.00  0.00    +0.047 A 
ATOM     31  C   UNL     1       1.165   3.200   0.008  0.00  0.00    +0.136 A 
ATOM     32  O   UNL     1       2.445   3.624  -0.002  0.00  0.00    -0.454 OA
ENDBRANCH  22  24
ENDBRANCH  20  22
ENDBRANCH   3  20
TORSDOF 5
