REMARK  Name = ZINC12916701
REMARK  8 active torsions:
REMARK  status: ('A' for Active; 'I' for Inactive)
REMARK    1  A    between atoms: C_1  and  C_2
REMARK    2  A    between atoms: C_2  and  C_4
REMARK    3  A    between atoms: C_2  and  N_43
REMARK    4  A    between atoms: N_10  and  C_11
REMARK    5  A    between atoms: N_10  and  C_12
REMARK    6  A    between atoms: C_14  and  N_43
REMARK    7  A    between atoms: C_15  and  C_16
REMARK    8  A    between atoms: C_15  and  N_43
REMARK                            x       y       z     vdW  Elec       q    Type
REMARK                         _______ _______ _______ _____ _____    ______ ____
ROOT
ATOM      1  C   UNL     1       4.779  -3.112  -1.183  0.00  0.00    -0.005 C 
ATOM      2  C   UNL     1       5.323  -1.722  -1.519  0.00  0.00    -0.002 C 
ENDROOT
BRANCH   2   3
ATOM      3  C   UNL     1       5.861  -1.720  -2.927  0.00  0.00    +0.123 A 
ATOM      4  N   UNL     1       5.026  -1.707  -3.951  0.00  0.00    -0.201 NA
ATOM      5  C   UNL     1       5.497  -1.705  -5.196  0.00  0.00    +0.217 A 
ATOM      6  N   UNL     1       6.809  -1.716  -5.408  0.00  0.00    -0.181 NA
ATOM      7  C   UNL     1       7.645  -1.729  -4.376  0.00  0.00    +0.222 A 
ATOM      8  N   UNL     1       7.166  -1.726  -3.134  0.00  0.00    -0.201 NA
ATOM      9  N   UNL     1       9.008  -1.741  -4.591  0.00  0.00    -0.306 N 
ATOM     10  C   UNL     1       9.534  -1.738  -5.958  0.00  0.00    +0.132 C 
ATOM     11  C   UNL     1       9.929  -1.755  -3.451  0.00  0.00    +0.132 C 
ATOM     12  N   UNL     1       4.625  -1.692  -6.265  0.00  0.00    -0.327 N 
ATOM     13  H   UNL     1       3.667  -1.684  -6.110  0.00  0.00    +0.145 HD
ATOM     14  H   UNL     1       4.969  -1.690  -7.172  0.00  0.00    +0.145 HD
ENDBRANCH   2   3
BRANCH   2  16
ATOM     15  C   UNL     1       4.705   0.600  -1.813  0.00  0.00    -0.095 C 
ATOM     16  N   UNL     1       4.221  -0.741  -1.424  0.00  0.00    +0.387 N 
ATOM     17  H   UNL     1       3.468  -1.022  -2.063  0.00  0.00    -0.081 HD
BRANCH  16  18
ATOM     18  C   UNL     1       3.693  -0.707  -0.044  0.00  0.00    -0.041 C 
BRANCH  18  19
ATOM     19  C   UNL     1       2.430   0.115  -0.028  0.00  0.00    -0.044 A 
ATOM     20  C   UNL     1       2.436   1.380   0.529  0.00  0.00    +0.003 A 
ATOM     21  C   UNL     1       1.278   2.135   0.544  0.00  0.00    +0.002 A 
ATOM     22  C   UNL     1       0.112   1.625   0.002  0.00  0.00    +0.021 A 
ATOM     23  C   UNL     1       0.105   0.359  -0.555  0.00  0.00    +0.059 A 
ATOM     24  C   UNL     1       1.265  -0.397  -0.570  0.00  0.00    +0.061 A 
ATOM     25 CL   UNL     1       1.257  -1.986  -1.269  0.00  0.00    -0.082 Cl
ATOM     26 CL   UNL     1      -1.359  -0.281  -1.235  0.00  0.00    -0.082 Cl
ENDBRANCH  18  19
ENDBRANCH  16  18
ENDBRANCH   2  16
TORSDOF 4
