REMARK  Name = ZINC64520105
REMARK  6 active torsions:
REMARK  status: ('A' for Active; 'I' for Inactive)
REMARK    1  A    between atoms: C_6  and  C_8
REMARK    2  A    between atoms: C_11  and  C_13
REMARK    3  A    between atoms: C_16  and  S_18
REMARK    4  A    between atoms: S_18  and  N_21
REMARK    5  A    between atoms: N_21  and  C_22
REMARK    6  A    between atoms: C_22  and  C_23
REMARK                            x       y       z     vdW  Elec       q    Type
REMARK                         _______ _______ _______ _____ _____    ______ ____
ROOT
ATOM      1  C   UNL     1      -0.102  -6.237  -0.223  0.00  0.00    +0.110 C 
ATOM      2  N   UNL     1       0.771  -7.144   0.115  0.00  0.00    -0.253 NA
ATOM      3  C   UNL     1       0.347  -8.397  -0.094  0.00  0.00    +0.135 C 
ATOM      4  C   UNL     1      -0.885  -8.442  -0.605  0.00  0.00    +0.107 C 
ATOM      5  C   UNL     1      -1.313  -6.992  -0.737  0.00  0.00    +0.118 C 
ENDROOT
BRANCH   1   9
ATOM      6  C   UNL     1       0.847  -2.812   0.258  0.00  0.00    +0.304 A 
ATOM      7  N   UNL     1      -0.369  -2.702  -0.235  0.00  0.00    -0.102 NA
ATOM      8  N   UNL     1      -0.846  -3.876  -0.461  0.00  0.00    -0.106 NA
ATOM      9  C   UNL     1       0.052  -4.783  -0.120  0.00  0.00    +0.263 A 
ATOM     10  O   UNL     1       1.137  -4.127   0.334  0.00  0.00    -0.411 OA
BRANCH   6  16
ATOM     11  C   UNL     1      -0.019   1.539   0.011  0.00  0.00    +0.020 C 
ATOM     12  C   UNL     1       1.488   1.907  -0.002  0.00  0.00    +0.020 C 
ATOM     13  C   UNL     1       2.092   0.776   0.868  0.00  0.00    +0.108 C 
ATOM     14  N   UNL     1       1.313  -0.426   0.518  0.00  0.00    -0.294 N 
ATOM     15  C   UNL     1       0.002  -0.004   0.002  0.00  0.00    +0.108 C 
ATOM     16  C   UNL     1       1.733  -1.700   0.648  0.00  0.00    +0.303 C 
ATOM     17  O   UNL     1       2.842  -1.932   1.087  0.00  0.00    -0.265 OA
ENDBRANCH   6  16
ENDBRANCH   1   9
BRANCH   4  18
ATOM     18  S   UNL     1      -1.816  -9.876  -1.029  0.00  0.00    +0.056 S 
ATOM     19  O   UNL     1      -1.092 -10.993  -0.531  0.00  0.00    -0.153 OA
ATOM     20  O   UNL     1      -3.161  -9.612  -0.654  0.00  0.00    -0.153 OA
BRANCH  18  21
ATOM     21  N   UNL     1      -1.800 -10.000  -2.680  0.00  0.00    -0.188 NA
ATOM     22  H   UNL     1      -2.626  -9.909  -3.181  0.00  0.00    +0.148 HD
BRANCH  21  23
ATOM     23  C   UNL     1      -0.539 -10.248  -3.384  0.00  0.00    +0.137 C 
BRANCH  23  24
ATOM     24  C   UNL     1      -0.835 -10.686  -4.820  0.00  0.00    +0.134 C 
ATOM     25  C   UNL     1       0.481 -11.066  -5.532  0.00  0.00    +0.035 C 
ATOM     26  C   UNL     1       0.259 -10.496  -6.960  0.00  0.00    +0.031 C 
ATOM     27  C   UNL     1      -0.575  -9.229  -6.644  0.00  0.00    +0.160 C 
ATOM     28  O   UNL     1      -1.426  -9.603  -5.547  0.00  0.00    -0.375 OA
ENDBRANCH  23  24
ENDBRANCH  21  23
ENDBRANCH  18  21
ENDBRANCH   4  18
TORSDOF 6
