REMARK  Name = ZINC09499960
REMARK  7 active torsions:
REMARK  status: ('A' for Active; 'I' for Inactive)
REMARK    1  A    between atoms: C_1  and  C_2
REMARK    2  A    between atoms: C_2  and  O_3
REMARK    3  A    between atoms: O_3  and  C_4
REMARK    4  A    between atoms: C_7  and  N_10
REMARK    5  A    between atoms: C_15  and  C_29
REMARK    6  A    between atoms: N_17  and  C_23
REMARK    7  A    between atoms: C_34  and  O_35
REMARK                            x       y       z     vdW  Elec       q    Type
REMARK                         _______ _______ _______ _____ _____    ______ ____
ROOT
ATOM      1  N   UNL     1       1.721  -5.623   1.577  0.00  0.00    -0.208 N 
ATOM      2  C   UNL     1       2.278  -6.232   2.630  0.00  0.00    +0.235 C 
ATOM      3  O   UNL     1       3.035  -5.712   3.421  0.00  0.00    -0.274 OA
ATOM      4  C   UNL     1       1.818  -7.671   2.678  0.00  0.00    +0.146 C 
ATOM      5  C   UNL     1       3.013  -8.602   2.375  0.00  0.00    +0.161 C 
ATOM      6  N   UNL     1       2.456  -9.528   1.358  0.00  0.00    -0.244 N 
ATOM      7  O   UNL     1       1.628  -8.704   0.537  0.00  0.00    -0.257 OA
ATOM      8  C   UNL     1       0.908  -7.801   1.426  0.00  0.00    +0.249 C 
ATOM      9  C   UNL     1       0.923  -6.405   0.841  0.00  0.00    +0.259 C 
ATOM     10  O   UNL     1       0.310  -6.052  -0.143  0.00  0.00    -0.272 OA
ENDROOT
BRANCH   5  11
ATOM     11  C   UNL     1       3.434  -9.352   3.612  0.00  0.00    +0.022 A 
ATOM     12  C   UNL     1       2.750 -10.488   3.998  0.00  0.00    +0.029 A 
ATOM     13  C   UNL     1       3.135 -11.177   5.135  0.00  0.00    +0.043 A 
ATOM     14  C   UNL     1       4.207 -10.729   5.887  0.00  0.00    +0.043 A 
ATOM     15  C   UNL     1       4.894  -9.593   5.505  0.00  0.00    +0.084 A 
ATOM     16  C   UNL     1       4.512  -8.905   4.361  0.00  0.00    +0.140 A 
ATOM     17 CL   UNL     1       6.238  -9.032   6.449  0.00  0.00    -0.080 Cl
ATOM     18 CL   UNL     1       2.272 -12.604   5.618  0.00  0.00    -0.083 Cl
BRANCH  16  19
ATOM     19  O   UNL     1       5.191  -7.790   3.979  0.00  0.00    -0.505 OA
ATOM     20  H   UNL     1       4.843  -6.970   4.355  0.00  0.00    +0.292 HD
ENDBRANCH  16  19
ENDBRANCH   5  11
BRANCH   1  24
ATOM     21  C   UNL     1       2.403  -1.608   0.673  0.00  0.00    +0.121 A 
ATOM     22  C   UNL     1       1.684  -1.950   1.809  0.00  0.00    +0.047 A 
ATOM     23  C   UNL     1       1.458  -3.279   2.108  0.00  0.00    +0.027 A 
ATOM     24  C   UNL     1       1.950  -4.272   1.273  0.00  0.00    +0.044 A 
ATOM     25  C   UNL     1       2.670  -3.929   0.136  0.00  0.00    +0.027 A 
ATOM     26  C   UNL     1       2.891  -2.600  -0.165  0.00  0.00    +0.047 A 
BRANCH  21  27
ATOM     27  O   UNL     1       2.625  -0.299   0.379  0.00  0.00    -0.492 OA
BRANCH  27  29
ATOM     28  C   UNL     1       2.442   2.075   0.792  0.00  0.00    +0.048 C 
ATOM     29  C   UNL     1       2.094   0.669   1.286  0.00  0.00    +0.225 C 
ENDBRANCH  27  29
ENDBRANCH  21  27
ENDBRANCH   1  24
BRANCH   6  30
ATOM     30  C   UNL     1       2.690 -10.899   1.232  0.00  0.00    +0.065 A 
ATOM     31  C   UNL     1       1.625 -11.792   1.256  0.00  0.00    +0.028 A 
ATOM     32  C   UNL     1       1.860 -13.147   1.131  0.00  0.00    +0.002 A 
ATOM     33  C   UNL     1       3.152 -13.616   0.983  0.00  0.00    +0.000 A 
ATOM     34  C   UNL     1       4.214 -12.731   0.959  0.00  0.00    +0.002 A 
ATOM     35  C   UNL     1       3.986 -11.374   1.078  0.00  0.00    +0.028 A 
ENDBRANCH   6  30
TORSDOF 6
