REMARK  Name = ZINC38627124
REMARK  10 active torsions:
REMARK  status: ('A' for Active; 'I' for Inactive)
REMARK    1  A    between atoms: C_1  and  C_2
REMARK    2  A    between atoms: C_2  and  C_28
REMARK    3  A    between atoms: N_6  and  C_8
REMARK    4  A    between atoms: C_8  and  C_9
REMARK    5  A    between atoms: N_11  and  C_12
REMARK    6  A    between atoms: C_16  and  O_26
REMARK    7  A    between atoms: C_20  and  C_22
REMARK    8  A    between atoms: C_22  and  O_24
REMARK    9  A    between atoms: O_24  and  C_25
REMARK   10  A    between atoms: O_26  and  C_27
REMARK                            x       y       z     vdW  Elec       q    Type
REMARK                         _______ _______ _______ _____ _____    ______ ____
ROOT
ATOM      1  C   UNL     1       2.357  -6.125   3.373  0.00  0.00    +0.053 C 
ATOM      2  C   UNL     1       2.913  -7.063   4.222  0.00  0.00    +0.018 A 
ATOM      3  C   UNL     1       3.571  -6.948   5.472  0.00  0.00    +0.015 A 
ATOM      4  C   UNL     1       4.026  -8.059   6.098  0.00  0.00    +0.046 A 
ATOM      5  C   UNL     1       3.864  -9.335   5.537  0.00  0.00    +0.122 A 
ATOM      6  C   UNL     1       3.241  -9.518   4.340  0.00  0.00    +0.071 A 
ATOM      7  C   UNL     1       2.740  -8.402   3.630  0.00  0.00    +0.048 A 
ATOM      8  N   UNL     1       2.110  -8.314   2.474  0.00  0.00    -0.367 N 
ATOM      9  C   UNL     1       1.806  -6.906   2.201  0.00  0.00    +0.234 C 
ATOM     10  H   UNL     1       1.883  -9.062   1.898  0.00  0.00    +0.161 HD
ENDROOT
BRANCH   1  13
ATOM     11  C   UNL     1       1.858  -3.976   2.570  0.00  0.00    +0.200 C 
ATOM     12  O   UNL     1       1.588  -4.446   1.485  0.00  0.00    -0.278 OA
ATOM     13  N   UNL     1       2.310  -4.775   3.557  0.00  0.00    -0.288 N 
ATOM     14  H   UNL     1       2.601  -4.390   4.398  0.00  0.00    +0.155 HD
BRANCH  11  15
ATOM     15  C   UNL     1       1.690  -2.499   2.814  0.00  0.00    +0.019 C 
BRANCH  15  21
ATOM     16  C   UNL     1       0.658   1.796   0.703  0.00  0.00    +0.009 C 
ATOM     17  C   UNL     1       0.703   0.281   0.494  0.00  0.00    -0.050 C 
ATOM     18  C   UNL     1      -0.691  -0.224   0.109  0.00  0.00    +0.003 C 
ATOM     19  C   UNL     1      -0.653  -1.749  -0.021  0.00  0.00    -0.018 C 
ATOM     20  C   UNL     1      -0.158  -2.356   1.294  0.00  0.00    -0.078 C 
ATOM     21  N   UNL     1       1.189  -1.855   1.592  0.00  0.00    +0.386 N 
ATOM     22  C   UNL     1       1.147  -0.401   1.790  0.00  0.00    -0.072 C 
ATOM     23  C   UNL     1       1.694  -0.051  -0.624  0.00  0.00    +0.009 C 
ATOM     24  H   UNL     1       1.805  -2.071   0.823  0.00  0.00    -0.081 HD
ENDBRANCH  15  21
ENDBRANCH  11  15
ENDBRANCH   1  13
BRANCH   9  25
ATOM     25  C   UNL     1       0.316  -6.705   2.098  0.00  0.00    +0.335 C 
ATOM     26  O   UNL     1      -0.435  -7.424   2.714  0.00  0.00    -0.248 OA
BRANCH  25  27
ATOM     27  O   UNL     1      -0.178  -5.727   1.322  0.00  0.00    -0.466 OA
ATOM     28  C   UNL     1      -1.600  -5.594   1.272  0.00  0.00    +0.280 C 
ENDBRANCH  25  27
ENDBRANCH   9  25
BRANCH   5  29
ATOM     29  O   UNL     1       4.340 -10.415   6.206  0.00  0.00    -0.495 OA
ATOM     30  C   UNL     1       4.985 -10.171   7.457  0.00  0.00    +0.277 C 
ENDBRANCH   5  29
TORSDOF 6
