REMARK  Name = ZINC12790897
REMARK  15 active torsions:
REMARK  status: ('A' for Active; 'I' for Inactive)
REMARK    1  A    between atoms: C_1  and  C_2
REMARK    2  A    between atoms: C_7  and  C_9
REMARK    3  A    between atoms: C_7  and  C_31
REMARK    4  A    between atoms: C_7  and  N_71
REMARK    5  A    between atoms: C_9  and  N_10
REMARK    6  A    between atoms: C_11  and  C_13
REMARK    7  A    between atoms: C_13  and  C_15
REMARK    8  A    between atoms: C_13  and  N_18
REMARK    9  A    between atoms: C_15  and  C_16
REMARK   10  A    between atoms: C_15  and  C_17
REMARK   11  A    between atoms: C_19  and  C_21
REMARK   12  A    between atoms: C_23  and  O_29
REMARK   13  A    between atoms: C_25  and  O_27
REMARK   14  A    between atoms: O_27  and  C_28
REMARK   15  A    between atoms: O_29  and  C_30
REMARK                            x       y       z     vdW  Elec       q    Type
REMARK                         _______ _______ _______ _____ _____    ______ ____
ROOT
ATOM      1  N   UNL     1      -1.020   3.000  -3.314  0.00  0.00    -0.315 N 
ATOM      2  C   UNL     1      -1.725   3.674  -4.244  0.00  0.00    +0.234 C 
ATOM      3  O   UNL     1      -2.484   3.078  -4.979  0.00  0.00    -0.274 OA
ATOM      4  H   UNL     1      -0.463   3.483  -2.683  0.00  0.00    +0.149 HD
ENDROOT
BRANCH   1   5
ATOM      5  C   UNL     1      -1.093   1.538  -3.256  0.00  0.00    +0.094 C 
BRANCH   5   6
ATOM      6  C   UNL     1      -0.113   1.020  -2.202  0.00  0.00    -0.013 C 
BRANCH   6  13
ATOM      7  C   UNL     1      -1.381   2.636   3.132  0.00  0.00    +0.007 C 
ATOM      8  C   UNL     1      -1.126   1.796   1.879  0.00  0.00    -0.018 C 
ATOM      9  C   UNL     1      -2.086   2.230   0.768  0.00  0.00    -0.015 C 
ATOM     10  C   UNL     1      -1.786   1.429  -0.501  0.00  0.00    -0.078 C 
ATOM     11  C   UNL     1       0.546   1.210   0.120  0.00  0.00    -0.078 C 
ATOM     12  C   UNL     1       0.315   2.005   1.407  0.00  0.00    -0.015 C 
ATOM     13  N   UNL     1      -0.392   1.692  -0.916  0.00  0.00    +0.386 N 
ATOM     14  H   UNL     1      -0.266   2.704  -1.035  0.00  0.00    -0.081 HD
ENDBRANCH   6  13
BRANCH   6  15
ATOM     15  C   UNL     1      -0.266  -0.473  -2.064  0.00  0.00    -0.022 A 
ATOM     16  C   UNL     1       0.627  -1.453  -2.346  0.00  0.00    +0.009 A 
ATOM     17  C   UNL     1       0.264  -2.770  -2.138  0.00  0.00    +0.008 A 
ATOM     18  C   UNL     1      -0.974  -3.044  -1.658  0.00  0.00    +0.045 A 
ATOM     19  S   UNL     1      -1.669  -1.409  -1.479  0.00  0.00    -0.103 S 
ENDBRANCH   6  15
ENDBRANCH   5   6
ENDBRANCH   1   5
BRANCH   2  20
ATOM     20  C   UNL     1      -1.572   5.168  -4.371  0.00  0.00    +0.162 C 
BRANCH  20  21
ATOM     21  N   UNL     1      -2.802   5.740  -4.923  0.00  0.00    -0.300 N 
ATOM     22  C   UNL     1      -3.118   7.026  -4.674  0.00  0.00    +0.245 C 
ATOM     23  O   UNL     1      -2.382   7.712  -3.991  0.00  0.00    -0.270 OA
ATOM     24  H   UNL     1      -3.389   5.193  -5.468  0.00  0.00    +0.150 HD
BRANCH  22  25
ATOM     25  C   UNL     1      -4.360   7.604  -5.231  0.00  0.00    +0.044 A 
ATOM     26  C   UNL     1      -5.203   6.821  -6.020  0.00  0.00    +0.059 A 
ATOM     27  C   UNL     1      -6.368   7.364  -6.535  0.00  0.00    +0.124 A 
ATOM     28  C   UNL     1      -6.691   8.689  -6.277  0.00  0.00    +0.091 A 
ATOM     29  C   UNL     1      -5.853   9.473  -5.498  0.00  0.00    +0.124 A 
ATOM     30  C   UNL     1      -4.689   8.935  -4.974  0.00  0.00    +0.059 A 
BRANCH  29  31
ATOM     31  O   UNL     1      -6.174  10.769  -5.248  0.00  0.00    -0.495 OA
ATOM     32  C   UNL     1      -7.389  11.258  -5.820  0.00  0.00    +0.277 C 
ENDBRANCH  29  31
BRANCH  27  33
ATOM     33  O   UNL     1      -7.194   6.601  -7.298  0.00  0.00    -0.495 OA
ATOM     34  C   UNL     1      -8.375   7.227  -7.802  0.00  0.00    +0.277 C 
ENDBRANCH  27  33
ENDBRANCH  22  25
ENDBRANCH  20  21
BRANCH  20  35
ATOM     35  C   UNL     1      -0.400   5.483  -5.302  0.00  0.00    +0.012 C 
ATOM     36  C   UNL     1      -0.172   6.995  -5.342  0.00  0.00    +0.009 C 
ATOM     37  C   UNL     1       0.863   4.790  -4.785  0.00  0.00    +0.009 C 
ENDBRANCH  20  35
ENDBRANCH   2  20
TORSDOF 10
