REMARK  Name = ZINC08306817
REMARK  10 active torsions:
REMARK  status: ('A' for Active; 'I' for Inactive)
REMARK    1  A    between atoms: C_1  and  C_2
REMARK    2  A    between atoms: C_5  and  C_29
REMARK    3  A    between atoms: C_6  and  C_8
REMARK    4  A    between atoms: C_10  and  C_25
REMARK    5  A    between atoms: C_11  and  C_16
REMARK    6  A    between atoms: C_16  and  N_52
REMARK    7  A    between atoms: C_17  and  C_18
REMARK    8  A    between atoms: C_17  and  N_52
REMARK    9  A    between atoms: C_25  and  O_27
REMARK   10  A    between atoms: O_27  and  C_28
REMARK                            x       y       z     vdW  Elec       q    Type
REMARK                         _______ _______ _______ _____ _____    ______ ____
ROOT
ATOM      1  C   UNL     1      -1.071   3.041  -5.590  0.00  0.00    +0.144 C 
ATOM      2  C   UNL     1      -0.129   2.613  -4.482  0.00  0.00    +0.076 C 
ATOM      3  C   UNL     1      -0.574   1.695  -3.598  0.00  0.00    +0.007 C 
ATOM      4  N   UNL     1      -1.834   1.178  -3.694  0.00  0.00    -0.274 N 
ATOM      5  C   UNL     1      -2.708   1.523  -4.647  0.00  0.00    +0.304 C 
ATOM      6  O   UNL     1      -3.809   1.008  -4.650  0.00  0.00    -0.252 OA
ATOM      7  N   UNL     1      -2.407   2.424  -5.604  0.00  0.00    -0.288 N 
ATOM      8  H   UNL     1      -2.112   0.524  -3.033  0.00  0.00    +0.156 HD
ATOM      9  H   UNL     1      -3.056   2.660  -6.285  0.00  0.00    +0.151 HD
ENDROOT
BRANCH   1  15
ATOM     10  C   UNL     1      -1.022   7.240  -2.867  0.00  0.00    +0.044 C 
ATOM     11  C   UNL     1      -1.227   6.543  -4.187  0.00  0.00    -0.050 A 
ATOM     12  C   UNL     1      -1.578   7.273  -5.308  0.00  0.00    +0.003 A 
ATOM     13  C   UNL     1      -1.766   6.634  -6.519  0.00  0.00    +0.004 A 
ATOM     14  C   UNL     1      -1.601   5.264  -6.610  0.00  0.00    -0.045 A 
ATOM     15  C   UNL     1      -1.250   4.534  -5.490  0.00  0.00    -0.019 A 
ATOM     16  C   UNL     1      -1.067   5.173  -4.278  0.00  0.00    +0.009 A 
ATOM     17  C   UNL     1      -1.806   4.567  -7.930  0.00  0.00    +0.044 C 
ENDBRANCH   1  15
BRANCH   2  18
ATOM     18  C   UNL     1       1.175   3.154  -4.381  0.00  0.00    +0.338 C 
ATOM     19  O   UNL     1       2.057   2.756  -5.118  0.00  0.00    -0.245 OA
BRANCH  18  20
ATOM     20  O   UNL     1       1.439   4.111  -3.468  0.00  0.00    -0.465 OA
ATOM     21  C   UNL     1       2.745   4.691  -3.495  0.00  0.00    +0.280 C 
ENDBRANCH  18  20
ENDBRANCH   2  18
BRANCH   3  22
ATOM     22  C   UNL     1       0.333   1.238  -2.485  0.00  0.00    -0.030 C 
BRANCH  22  23
ATOM     23  N   UNL     1      -0.245   1.649  -1.191  0.00  0.00    +0.385 N 
ATOM     24  H   UNL     1      -1.173   1.222  -1.083  0.00  0.00    -0.085 HD
ATOM     25  H   UNL     1      -0.335   2.671  -1.170  0.00  0.00    -0.085 HD
BRANCH  23  26
ATOM     26  C   UNL     1       0.623   1.214  -0.081  0.00  0.00    -0.046 C 
BRANCH  26  27
ATOM     27  C   UNL     1       0.009   1.647   1.225  0.00  0.00    -0.064 A 
ATOM     28  C   UNL     1       0.330   2.878   1.765  0.00  0.00    +0.004 A 
ATOM     29  C   UNL     1      -0.236   3.279   2.960  0.00  0.00    +0.038 A 
ATOM     30  C   UNL     1      -1.118   2.441   3.623  0.00  0.00    +0.123 A 
ATOM     31  C   UNL     1      -1.435   1.206   3.084  0.00  0.00    +0.038 A 
ATOM     32  C   UNL     1      -0.871   0.810   1.886  0.00  0.00    +0.004 A 
ATOM     33  F   UNL     1      -1.668   2.830   4.794  0.00  0.00    -0.205 F 
ENDBRANCH  26  27
ENDBRANCH  23  26
ENDBRANCH  22  23
ENDBRANCH   3  22
TORSDOF 7
