REMARK  Name = ZINC59198988
REMARK  4 active torsions:
REMARK  status: ('A' for Active; 'I' for Inactive)
REMARK    1  A    between atoms: C_4  and  N_7
REMARK    2  A    between atoms: C_8  and  C_10
REMARK    3  A    between atoms: C_14  and  N_15
REMARK    4  A    between atoms: C_16  and  C_17
REMARK                            x       y       z     vdW  Elec       q    Type
REMARK                         _______ _______ _______ _____ _____    ______ ____
ROOT
ATOM      1  C   UNL     1       4.925  -2.700   0.152  0.00  0.00    +0.073 A 
ATOM      2  C   UNL     1       5.509  -2.968   1.404  0.00  0.00    -0.023 A 
ATOM      3  C   UNL     1       6.694  -3.625   1.400  0.00  0.00    -0.004 A 
ATOM      4  S   UNL     1       7.050  -3.900  -0.315  0.00  0.00    -0.073 S 
ATOM      5  C   UNL     1       5.593  -3.129  -1.003  0.00  0.00    +0.114 A 
ATOM      6  C   UNL     1       7.516  -4.026   2.585  0.00  0.00    +0.043 C 
ATOM      7  C   UNL     1       7.003  -3.258   3.812  0.00  0.00    +0.005 C 
ATOM      8  C   UNL     1       5.476  -3.369   3.857  0.00  0.00    +0.005 C 
ATOM      9  C   UNL     1       4.861  -2.550   2.722  0.00  0.00    +0.037 C 
ENDROOT
BRANCH   1  11
ATOM     10  N   UNL     1       3.621  -0.650  -0.036  0.00  0.00    -0.281 N 
ATOM     11  C   UNL     1       3.644  -1.994   0.058  0.00  0.00    +0.251 C 
ATOM     12  O   UNL     1       2.601  -2.622   0.065  0.00  0.00    -0.270 OA
ATOM     13  H   UNL     1       4.452  -0.155  -0.110  0.00  0.00    +0.155 HD
BRANCH  10  17
ATOM     14  C   UNL     1      -0.018   1.377  -0.014  0.00  0.00    +0.000 A 
ATOM     15  C   UNL     1       1.092   1.944   0.587  0.00  0.00    +0.002 A 
ATOM     16  C   UNL     1       2.299   1.274   0.581  0.00  0.00    +0.023 A 
ATOM     17  C   UNL     1       2.399   0.030  -0.029  0.00  0.00    +0.034 A 
ATOM     18  C   UNL     1       1.283  -0.536  -0.631  0.00  0.00    +0.023 A 
ATOM     19  C   UNL     1       0.079   0.139  -0.622  0.00  0.00    +0.002 A 
ENDBRANCH  10  17
ENDBRANCH   1  11
BRANCH   5  20
ATOM     20  N   UNL     1       5.231  -2.995  -2.295  0.00  0.00    -0.244 NA
ATOM     21  C   UNL     1       6.002  -3.470  -3.245  0.00  0.00    +0.158 C 
BRANCH  21  22
ATOM     22  C   UNL     1       5.622  -3.329  -4.599  0.00  0.00    +0.147 A 
ATOM     23  C   UNL     1       6.330  -3.784  -5.694  0.00  0.00    +0.052 A 
ATOM     24  C   UNL     1       5.586  -3.427  -6.827  0.00  0.00    +0.057 A 
ATOM     25  C   UNL     1       4.478  -2.783  -6.392  0.00  0.00    +0.171 A 
ATOM     26  O   UNL     1       4.500  -2.731  -5.053  0.00  0.00    -0.447 OA
ATOM     27 BR   UNL     1       3.114  -2.076  -7.496  0.00  0.00    -0.008 Br
ENDBRANCH  21  22
ENDBRANCH   5  20
TORSDOF 4
