REMARK  Name = ZINC06166337
REMARK  8 active torsions:
REMARK  status: ('A' for Active; 'I' for Inactive)
REMARK    1  A    between atoms: C_1  and  C_2
REMARK    2  A    between atoms: N_13  and  C_16
REMARK    3  A    between atoms: C_16  and  C_18
REMARK    4  A    between atoms: C_16  and  C_19
REMARK    5  A    between atoms: N_21  and  N_22
REMARK    6  A    between atoms: C_23  and  C_24
REMARK    7  A    between atoms: C_27  and  O_30
REMARK    8  A    between atoms: O_30  and  C_31
REMARK                            x       y       z     vdW  Elec       q    Type
REMARK                         _______ _______ _______ _____ _____    ______ ____
ROOT
ATOM      1  C   UNL     1       0.002  -0.004   0.002  0.00  0.00    +0.176 C 
ATOM      2  C   UNL     1      -0.724  -0.517  -1.243  0.00  0.00    +0.041 C 
ENDROOT
BRANCH   1  14
ATOM      3  C   UNL     1       5.362   7.493   0.073  0.00  0.00    +0.008 C 
ATOM      4  C   UNL     1       4.306   6.426   0.367  0.00  0.00    -0.009 C 
ATOM      5  C   UNL     1       4.583   5.181  -0.480  0.00  0.00    +0.008 C 
ATOM      6  C   UNL     1       3.694   4.028  -0.015  0.00  0.00    +0.037 C 
ATOM      7  C   UNL     1       2.243   4.501   0.004  0.00  0.00    -0.023 A 
ATOM      8  C   UNL     1       1.948   5.818   0.014  0.00  0.00    -0.004 A 
ATOM      9  S   UNL     1       0.177   5.892   0.032  0.00  0.00    -0.073 S 
ATOM     10  C   UNL     1      -0.162   4.150   0.025  0.00  0.00    +0.116 A 
ATOM     11  C   UNL     1       1.116   3.569   0.010  0.00  0.00    +0.076 A 
ATOM     12  C   UNL     1       1.147   2.136   0.003  0.00  0.00    +0.263 A 
ATOM     13  O   UNL     1       2.209   1.539  -0.010  0.00  0.00    -0.267 OA
ATOM     14  N   UNL     1      -0.018   1.461   0.010  0.00  0.00    -0.287 N 
ATOM     15  C   UNL     1      -1.211   2.110   0.019  0.00  0.00    +0.204 A 
ATOM     16  N   UNL     1      -1.270   3.414   0.031  0.00  0.00    -0.230 NA
ATOM     17  C   UNL     1       2.912   6.965   0.011  0.00  0.00    +0.046 C 
ENDBRANCH   1  14
BRANCH   1  18
ATOM     18  C   UNL     1      -0.690  -0.523   1.236  0.00  0.00    +0.255 C 
ATOM     19  O   UNL     1      -1.154   0.255   2.044  0.00  0.00    -0.272 OA
ATOM     20  N   UNL     1      -0.793  -1.850   1.444  0.00  0.00    -0.205 N 
ATOM     21  H   UNL     1      -0.422  -2.472   0.798  0.00  0.00    +0.177 HD
BRANCH  20  22
ATOM     22  N   UNL     1      -1.436  -2.333   2.591  0.00  0.00    -0.188 NA
ATOM     23  C   UNL     1      -1.535  -3.611   2.791  0.00  0.00    +0.138 C 
BRANCH  23  24
ATOM     24  C   UNL     1      -2.212  -4.118   3.998  0.00  0.00    -0.005 A 
ATOM     25  C   UNL     1      -2.742  -3.224   4.932  0.00  0.00    +0.013 A 
ATOM     26  C   UNL     1      -3.377  -3.703   6.057  0.00  0.00    +0.046 A 
ATOM     27  C   UNL     1      -3.483  -5.072   6.269  0.00  0.00    +0.120 A 
ATOM     28  C   UNL     1      -2.953  -5.964   5.345  0.00  0.00    +0.046 A 
ATOM     29  C   UNL     1      -2.320  -5.495   4.215  0.00  0.00    +0.013 A 
BRANCH  27  30
ATOM     30  O   UNL     1      -4.105  -5.539   7.382  0.00  0.00    -0.495 OA
ATOM     31  C   UNL     1      -4.627  -4.567   8.290  0.00  0.00    +0.277 C 
ENDBRANCH  27  30
ENDBRANCH  23  24
ENDBRANCH  20  22
ENDBRANCH   1  18
TORSDOF 5
