REMARK  Name = ZINC39672241
REMARK  8 active torsions:
REMARK  status: ('A' for Active; 'I' for Inactive)
REMARK    1  A    between atoms: C_1  and  C_2
REMARK    2  A    between atoms: C_2  and  C_3
REMARK    3  A    between atoms: C_3  and  C_5
REMARK    4  A    between atoms: C_3  and  C_11
REMARK    5  A    between atoms: C_15  and  C_24
REMARK    6  A    between atoms: N_26  and  C_27
REMARK    7  A    between atoms: C_27  and  C_28
REMARK    8  A    between atoms: N_37  and  C_38
REMARK                            x       y       z     vdW  Elec       q    Type
REMARK                         _______ _______ _______ _____ _____    ______ ____
ROOT
ATOM      1  C   UNL     1      -2.125  -0.108  -1.333  0.00  0.00    +0.223 C 
ATOM      2  O   UNL     1      -2.725  -0.864  -2.067  0.00  0.00    -0.275 OA
ATOM      3  N   UNL     1      -2.133   1.217  -1.577  0.00  0.00    -0.300 N 
ATOM      4  C   UNL     1      -1.542   2.296  -0.751  0.00  0.00    +0.121 C 
ATOM      5  C   UNL     1      -0.937   3.284  -1.774  0.00  0.00    +0.100 C 
ATOM      6  C   UNL     1      -1.726   3.036  -3.071  0.00  0.00    -0.004 C 
ATOM      7  C   UNL     1      -2.729   1.924  -2.736  0.00  0.00    +0.115 C 
ATOM      8  C   UNL     1      -2.462   4.304  -3.492  0.00  0.00    -0.010 C 
ATOM      9  C   UNL     1      -3.191   4.051  -4.815  0.00  0.00    -0.082 C 
ATOM     10  N   UNL     1      -2.220   3.660  -5.844  0.00  0.00    +0.379 N 
ATOM     11  C   UNL     1      -1.583   2.390  -5.475  0.00  0.00    -0.082 C 
ATOM     12  C   UNL     1      -0.785   2.574  -4.181  0.00  0.00    -0.010 C 
ATOM     13  H   UNL     1      -2.694   3.553  -6.728  0.00  0.00    -0.086 HD
ATOM     14  H   UNL     1      -1.514   4.377  -5.928  0.00  0.00    -0.086 HD
ENDROOT
BRANCH   5  15
ATOM     15  C   UNL     1       0.526   2.992  -1.983  0.00  0.00    +0.218 C 
ATOM     16  O   UNL     1       0.939   1.856  -1.882  0.00  0.00    -0.275 OA
ATOM     17  N   UNL     1       1.377   3.994  -2.283  0.00  0.00    -0.311 N 
ATOM     18  H   UNL     1       1.047   4.902  -2.364  0.00  0.00    +0.149 HD
BRANCH  17  19
ATOM     19  C   UNL     1       2.800   3.710  -2.486  0.00  0.00    +0.139 C 
BRANCH  19  20
ATOM     20  C   UNL     1       3.527   4.991  -2.806  0.00  0.00    -0.030 A 
ATOM     21  C   UNL     1       3.652   5.403  -4.120  0.00  0.00    +0.007 A 
ATOM     22  C   UNL     1       4.319   6.575  -4.414  0.00  0.00    +0.024 A 
ATOM     23  C   UNL     1       4.863   7.341  -3.389  0.00  0.00    +0.033 A 
ATOM     24  C   UNL     1       4.734   6.930  -2.071  0.00  0.00    -0.026 A 
ATOM     25  C   UNL     1       4.061   5.754  -1.786  0.00  0.00    +0.010 A 
ATOM     26  C   UNL     1       5.301   7.739  -0.935  0.00  0.00    +0.038 C 
ATOM     27  C   UNL     1       6.393   8.681  -1.441  0.00  0.00    +0.024 C 
ATOM     28  C   UNL     1       5.848   9.478  -2.634  0.00  0.00    +0.105 C 
ATOM     29  N   UNL     1       5.539   8.524  -3.708  0.00  0.00    -0.333 N 
ATOM     30  C   UNL     1       5.934   8.806  -5.090  0.00  0.00    +0.129 C 
ENDBRANCH  19  20
ENDBRANCH  17  19
ENDBRANCH   5  15
BRANCH   1  31
ATOM     31  C   UNL     1      -1.371  -0.651  -0.146  0.00  0.00    +0.105 C 
BRANCH  31  32
ATOM     32  C   UNL     1      -2.302  -0.761   1.034  0.00  0.00    -0.036 A 
ATOM     33  C   UNL     1      -3.422  -1.567   0.958  0.00  0.00    +0.004 A 
ATOM     34  C   UNL     1      -4.277  -1.667   2.041  0.00  0.00    +0.000 A 
ATOM     35  C   UNL     1      -4.010  -0.961   3.199  0.00  0.00    +0.000 A 
ATOM     36  C   UNL     1      -2.890  -0.155   3.275  0.00  0.00    +0.000 A 
ATOM     37  C   UNL     1      -2.033  -0.058   2.194  0.00  0.00    +0.004 A 
ENDBRANCH  31  32
BRANCH  31  39
ATOM     38  C   UNL     1       0.237  -1.905  -1.590  0.00  0.00    +0.005 C 
ATOM     39  C   UNL     1      -0.814  -2.035  -0.486  0.00  0.00    +0.014 C 
ENDBRANCH  31  39
ENDBRANCH   1  31
TORSDOF 6
