REMARK  Name = ZINC14988283
REMARK  7 active torsions:
REMARK  status: ('A' for Active; 'I' for Inactive)
REMARK    1  A    between atoms: N_8  and  C_20
REMARK    2  A    between atoms: C_10  and  C_13
REMARK    3  A    between atoms: C_20  and  C_21
REMARK    4  A    between atoms: C_21  and  N_22
REMARK    5  A    between atoms: C_23  and  C_25
REMARK    6  A    between atoms: C_25  and  C_26
REMARK    7  A    between atoms: C_29  and  N_32
REMARK                            x       y       z     vdW  Elec       q    Type
REMARK                         _______ _______ _______ _____ _____    ______ ____
ROOT
ATOM      1  C   UNL     1       4.770   4.583  -2.900  0.00  0.00    +0.103 C 
ENDROOT
BRANCH   1   9
ATOM      2  C   UNL     1       4.023   2.198   2.255  0.00  0.00    +0.001 A 
ATOM      3  C   UNL     1       3.238   3.060   2.998  0.00  0.00    +0.004 A 
ATOM      4  C   UNL     1       3.077   4.373   2.599  0.00  0.00    +0.046 A 
ATOM      5  C   UNL     1       3.706   4.823   1.446  0.00  0.00    +0.126 A 
ATOM      6  C   UNL     1       4.503   3.962   0.717  0.00  0.00    +0.008 A 
ATOM      7  C   UNL     1       4.659   2.649   1.111  0.00  0.00    +0.008 A 
ATOM      8  C   UNL     1       5.211   4.474  -0.523  0.00  0.00    +0.123 C 
ATOM      9  N   UNL     1       4.208   4.764  -1.554  0.00  0.00    -0.293 NA
ATOM     10  C   UNL     1       3.620   6.092  -1.407  0.00  0.00    +0.134 C 
ATOM     11  C   UNL     1       2.741   6.233  -0.183  0.00  0.00    +0.220 C 
ATOM     12  O   UNL     1       3.514   6.100   1.016  0.00  0.00    -0.483 OA
BRANCH  11  13
ATOM     13  C   UNL     1       2.081   7.588  -0.200  0.00  0.00    +0.029 A 
ATOM     14  C   UNL     1       2.649   8.642   0.490  0.00  0.00    +0.010 A 
ATOM     15  C   UNL     1       2.044   9.885   0.475  0.00  0.00    +0.001 A 
ATOM     16  C   UNL     1       0.873  10.076  -0.234  0.00  0.00    +0.003 A 
ATOM     17  C   UNL     1       0.300   9.023  -0.920  0.00  0.00    +0.039 A 
ATOM     18  C   UNL     1       0.905   7.777  -0.906  0.00  0.00    +0.130 A 
ATOM     19  F   UNL     1       0.349   6.747  -1.581  0.00  0.00    -0.205 F 
ENDBRANCH  11  13
ENDBRANCH   1   9
BRANCH   1  20
ATOM     20  C   UNL     1       5.943   5.545  -3.096  0.00  0.00    +0.119 C 
BRANCH  20  21
ATOM     21  N   UNL     1       6.428   5.449  -4.475  0.00  0.00    -0.314 N 
ATOM     22  C   UNL     1       7.463   6.211  -4.880  0.00  0.00    +0.217 C 
ATOM     23  O   UNL     1       7.994   6.976  -4.103  0.00  0.00    -0.275 OA
ATOM     24  H   UNL     1       5.946   4.755  -5.180  0.00  0.00    +0.149 HD
BRANCH  22  25
ATOM     25  C   UNL     1       7.962   6.112  -6.299  0.00  0.00    +0.130 C 
BRANCH  25  26
ATOM     26  C   UNL     1       9.117   7.060  -6.492  0.00  0.00    -0.039 A 
ATOM     27  C   UNL     1       8.884   8.355  -6.915  0.00  0.00    +0.006 A 
ATOM     28  C   UNL     1       9.940   9.228  -7.089  0.00  0.00    +0.024 A 
ATOM     29  C   UNL     1      11.239   8.800  -6.848  0.00  0.00    +0.038 A 
ATOM     30  C   UNL     1      11.471   7.496  -6.429  0.00  0.00    +0.024 A 
ATOM     31  C   UNL     1      10.410   6.630  -6.253  0.00  0.00    +0.006 A 
BRANCH  29  32
ATOM     32  N   UNL     1      12.312   9.680  -7.028  0.00  0.00    -0.254 N 
ATOM     33  C   UNL     1      13.735   9.322  -6.923  0.00  0.00    +0.134 C 
ATOM     34  C   UNL     1      14.470  10.646  -7.208  0.00  0.00    +0.125 C 
ATOM     35  N   UNL     1      13.384  11.609  -7.442  0.00  0.00    -0.297 N 
ATOM     36  C   UNL     1      12.207  10.981  -7.327  0.00  0.00    +0.307 C 
ATOM     37  O   UNL     1      11.139  11.543  -7.477  0.00  0.00    -0.252 OA
ATOM     38  H   UNL     1      13.620  12.659  -7.669  0.00  0.00    +0.150 HD
ENDBRANCH  29  32
ENDBRANCH  25  26
ENDBRANCH  22  25
ENDBRANCH  20  21
ENDBRANCH   1  20
TORSDOF 7
