REMARK  Name = ZINC55175296
REMARK  6 active torsions:
REMARK  status: ('A' for Active; 'I' for Inactive)
REMARK    1  A    between atoms: C_1  and  N_2
REMARK    2  A    between atoms: N_2  and  C_3
REMARK    3  A    between atoms: C_6  and  C_11
REMARK    4  A    between atoms: C_11  and  S_12
REMARK    5  A    between atoms: S_12  and  C_13
REMARK    6  A    between atoms: C_18  and  N_22
REMARK                            x       y       z     vdW  Elec       q    Type
REMARK                         _______ _______ _______ _____ _____    ______ ____
ROOT
ATOM      1  C   UNL     1       0.025  -4.181  -2.357  0.00  0.00    +0.152 C 
ENDROOT
BRANCH   1   7
ATOM      2  C   UNL     1      -0.018   1.461   0.010  0.00  0.00    +0.132 C 
ATOM      3  N   UNL     1       0.002  -0.004   0.002  0.00  0.00    -0.306 N 
ATOM      4  C   UNL     1       0.024  -0.743   1.267  0.00  0.00    +0.132 C 
ATOM      5  C   UNL     1       0.000  -0.688  -1.197  0.00  0.00    +0.222 A 
ATOM      6  N   UNL     1       0.013  -2.019  -1.205  0.00  0.00    -0.198 NA
ATOM      7  C   UNL     1       0.011  -2.674  -2.353  0.00  0.00    +0.146 A 
ATOM      8  N   UNL     1      -0.004  -2.011  -3.496  0.00  0.00    -0.199 NA
ATOM      9  C   UNL     1      -0.016  -0.681  -3.496  0.00  0.00    +0.217 A 
ATOM     10  N   UNL     1      -0.020  -0.018  -2.344  0.00  0.00    -0.181 NA
ATOM     11  N   UNL     1      -0.031   0.010  -4.690  0.00  0.00    -0.327 N 
ATOM     12  H   UNL     1      -0.032  -0.474  -5.531  0.00  0.00    +0.145 HD
ATOM     13  H   UNL     1      -0.040   0.980  -4.689  0.00  0.00    +0.145 HD
ENDBRANCH   1   7
BRANCH   1  14
ATOM     14  S   UNL     1      -1.679  -4.802  -2.347  0.00  0.00    -0.091 S 
BRANCH  14  15
ATOM     15  C   UNL     1      -1.494  -6.555  -2.353  0.00  0.00    +0.136 A 
ATOM     16  N   UNL     1      -0.390  -7.266  -2.358  0.00  0.00    -0.233 NA
ATOM     17  C   UNL     1      -0.398  -8.619  -2.362  0.00  0.00    +0.080 A 
ATOM     18  C   UNL     1       0.710  -9.497  -2.368  0.00  0.00    +0.031 A 
ATOM     19  C   UNL     1       0.530 -10.855  -2.373  0.00  0.00    +0.025 A 
ATOM     20  C   UNL     1      -0.744 -11.419  -2.373  0.00  0.00    +0.026 A 
ATOM     21  C   UNL     1      -1.853 -10.583  -2.367  0.00  0.00    +0.040 A 
ATOM     22  C   UNL     1      -1.676  -9.223  -2.362  0.00  0.00    +0.042 A 
ATOM     23  S   UNL     1      -2.760  -7.815  -2.348  0.00  0.00    -0.061 S 
BRANCH  20  24
ATOM     24  N   UNL     1      -0.904 -12.809  -2.378  0.00  0.00    -0.358 N 
ATOM     25  H   UNL     1      -0.124 -13.387  -2.383  0.00  0.00    +0.142 HD
ATOM     26  H   UNL     1      -1.794 -13.195  -2.378  0.00  0.00    +0.142 HD
ENDBRANCH  20  24
ENDBRANCH  14  15
ENDBRANCH   1  14
TORSDOF 4
