REMARK  Name = ZINC19500437
REMARK  8 active torsions:
REMARK  status: ('A' for Active; 'I' for Inactive)
REMARK    1  A    between atoms: C_1  and  C_2
REMARK    2  A    between atoms: C_2  and  C_3
REMARK    3  A    between atoms: C_3  and  C_5
REMARK    4  A    between atoms: C_3  and  N_12
REMARK    5  A    between atoms: C_14  and  C_17
REMARK    6  A    between atoms: C_24  and  C_26
REMARK    7  A    between atoms: C_26  and  C_27
REMARK    8  A    between atoms: C_27  and  N_28
REMARK                            x       y       z     vdW  Elec       q    Type
REMARK                         _______ _______ _______ _____ _____    ______ ____
ROOT
ATOM      1  C   UNL     1       1.398   2.764   0.168  0.00  0.00    +0.269 C 
ATOM      2  O   UNL     1       0.706   2.917  -0.821  0.00  0.00    -0.268 OA
ATOM      3  N   UNL     1       0.888   2.164   1.261  0.00  0.00    -0.293 N 
ATOM      4  C   UNL     1       1.664   2.094   2.507  0.00  0.00    +0.108 C 
ATOM      5  C   UNL     1       0.817   2.665   3.648  0.00  0.00    +0.019 C 
ATOM      6  C   UNL     1      -0.524   1.929   3.701  0.00  0.00    +0.003 C 
ATOM      7  C   UNL     1      -1.277   2.144   2.386  0.00  0.00    +0.022 C 
ATOM      8  C   UNL     1      -0.454   1.567   1.230  0.00  0.00    +0.075 C 
ENDROOT
BRANCH   1  11
ATOM      9  N   UNL     1       4.662   4.192  -0.424  0.00  0.00    -0.244 N 
ATOM     10  C   UNL     1       3.391   3.971  -0.816  0.00  0.00    +0.144 A 
ATOM     11  C   UNL     1       2.796   3.236   0.169  0.00  0.00    +0.167 A 
ATOM     12  N   UNL     1       3.700   3.011   1.138  0.00  0.00    -0.125 NA
ATOM     13  N   UNL     1       4.818   3.564   0.819  0.00  0.00    -0.064 NA
BRANCH   9  14
ATOM     14  C   UNL     1       5.685   4.941  -1.159  0.00  0.00    +0.138 C 
BRANCH  14  15
ATOM     15  C   UNL     1       5.035   6.074  -1.911  0.00  0.00    -0.023 A 
ATOM     16  C   UNL     1       4.170   5.804  -2.955  0.00  0.00    +0.008 A 
ATOM     17  C   UNL     1       3.570   6.842  -3.642  0.00  0.00    +0.038 A 
ATOM     18  C   UNL     1       3.844   8.153  -3.291  0.00  0.00    +0.123 A 
ATOM     19  C   UNL     1       4.715   8.423  -2.249  0.00  0.00    +0.038 A 
ATOM     20  C   UNL     1       5.309   7.383  -1.560  0.00  0.00    +0.008 A 
ATOM     21  F   UNL     1       3.261   9.169  -3.965  0.00  0.00    -0.205 F 
ENDBRANCH  14  15
BRANCH  14  23
ATOM     22  C   UNL     1       7.536   4.756  -2.827  0.00  0.00    +0.006 C 
ATOM     23  C   UNL     1       6.387   4.008  -2.149  0.00  0.00    +0.028 C 
ENDBRANCH  14  23
ENDBRANCH   9  14
ENDBRANCH   1  11
BRANCH   8  24
ATOM     24  C   UNL     1      -1.132   1.897  -0.101  0.00  0.00    +0.004 C 
BRANCH  24  25
ATOM     25  C   UNL     1      -2.499   1.212  -0.161  0.00  0.00    -0.077 C 
BRANCH  25  26
ATOM     26  N   UNL     1      -3.101   1.437  -1.482  0.00  0.00    +0.380 N 
ATOM     27  C   UNL     1      -2.167   1.043  -2.567  0.00  0.00    -0.079 C 
ATOM     28  C   UNL     1      -3.103   0.840  -3.785  0.00  0.00    -0.020 C 
ATOM     29  C   UNL     1      -4.361   0.203  -3.151  0.00  0.00    -0.020 C 
ATOM     30  C   UNL     1      -4.306   0.599  -1.664  0.00  0.00    -0.079 C 
ATOM     31  H   UNL     1      -3.346   2.509  -1.521  0.00  0.00    -0.082 HD
ENDBRANCH  25  26
ENDBRANCH  24  25
ENDBRANCH   8  24
TORSDOF 7
