REMARK  Name = ZINC44714126
REMARK  12 active torsions:
REMARK  status: ('A' for Active; 'I' for Inactive)
REMARK    1  A    between atoms: C_1  and  C_2
REMARK    2  A    between atoms: C_2  and  C_3
REMARK    3  A    between atoms: C_3  and  C_4
REMARK    4  A    between atoms: C_4  and  C_5
REMARK    5  A    between atoms: C_5  and  C_7
REMARK    6  A    between atoms: C_5  and  C_8
REMARK    7  A    between atoms: C_12  and  C_21
REMARK    8  A    between atoms: N_23  and  C_24
REMARK    9  A    between atoms: C_24  and  C_26
REMARK   10  A    between atoms: C_24  and  C_27
REMARK   11  A    between atoms: C_28  and  C_34
REMARK   12  A    between atoms: C_32  and  C_33
REMARK                            x       y       z     vdW  Elec       q    Type
REMARK                         _______ _______ _______ _____ _____    ______ ____
ROOT
ATOM      1  C   UNL     1      -2.784  -3.978   0.452  0.00  0.00    +0.218 C 
ATOM      2  O   UNL     1      -1.778  -4.609   0.699  0.00  0.00    -0.275 OA
ATOM      3  N   UNL     1      -3.955  -4.620   0.272  0.00  0.00    -0.300 N 
ATOM      4  C   UNL     1      -5.253  -4.040  -0.146  0.00  0.00    +0.121 C 
ATOM      5  C   UNL     1      -5.858  -5.089  -1.106  0.00  0.00    +0.100 C 
ATOM      6  C   UNL     1      -5.188  -6.416  -0.710  0.00  0.00    -0.004 C 
ATOM      7  C   UNL     1      -4.234  -6.066   0.442  0.00  0.00    +0.115 C 
ATOM      8  C   UNL     1      -4.398  -6.981  -1.887  0.00  0.00    -0.010 C 
ATOM      9  C   UNL     1      -3.788  -8.327  -1.487  0.00  0.00    -0.082 C 
ATOM     10  N   UNL     1      -4.858  -9.255  -1.099  0.00  0.00    +0.379 N 
ATOM     11  C   UNL     1      -5.553  -8.748   0.091  0.00  0.00    -0.082 C 
ATOM     12  C   UNL     1      -6.237  -7.420  -0.242  0.00  0.00    -0.010 C 
ATOM     13  H   UNL     1      -5.516  -9.344  -1.858  0.00  0.00    -0.086 HD
ATOM     14  H   UNL     1      -4.459 -10.159  -0.894  0.00  0.00    -0.086 HD
ENDROOT
BRANCH   5  15
ATOM     15  C   UNL     1      -5.534  -4.741  -2.536  0.00  0.00    +0.219 C 
ATOM     16  O   UNL     1      -4.549  -4.081  -2.790  0.00  0.00    -0.275 OA
ATOM     17  N   UNL     1      -6.338  -5.163  -3.531  0.00  0.00    -0.308 N 
ATOM     18  H   UNL     1      -7.126  -5.691  -3.328  0.00  0.00    +0.149 HD
BRANCH  17  19
ATOM     19  C   UNL     1      -6.023  -4.824  -4.921  0.00  0.00    +0.104 C 
ATOM     20  C   UNL     1      -5.034  -5.847  -5.484  0.00  0.00    +0.033 C 
BRANCH  19  21
ATOM     21  C   UNL     1      -7.286  -4.843  -5.742  0.00  0.00    +0.015 A 
ATOM     22  C   UNL     1      -7.658  -3.913  -6.652  0.00  0.00    +0.038 A 
ATOM     23  N   UNL     1      -8.847  -4.292  -7.165  0.00  0.00    -0.281 N 
ATOM     24  H   UNL     1      -9.355  -3.816  -7.841  0.00  0.00    +0.189 HD
ATOM     25  N   UNL     1      -9.218  -5.495  -6.550  0.00  0.00    -0.179 NA
ATOM     26  C   UNL     1      -8.279  -5.827  -5.702  0.00  0.00    +0.065 A 
ATOM     27  C   UNL     1      -8.271  -7.055  -4.829  0.00  0.00    +0.068 C 
ATOM     28  C   UNL     1      -6.883  -2.675  -7.025  0.00  0.00    +0.065 C 
ENDBRANCH  19  21
ENDBRANCH  17  19
ENDBRANCH   5  15
BRANCH   1  29
ATOM     29  C   UNL     1      -2.724  -2.476   0.347  0.00  0.00    +0.072 C 
ATOM     30  C   UNL     1      -1.380  -2.060  -0.256  0.00  0.00    +0.017 C 
BRANCH  29  31
ATOM     31  C   UNL     1      -2.870  -1.860   1.740  0.00  0.00    +0.012 C 
BRANCH  31  32
ATOM     32  C   UNL     1      -2.934  -0.336   1.620  0.00  0.00    +0.000 C 
BRANCH  32  34
ATOM     33  C   UNL     1      -3.144   1.803   2.893  0.00  0.00    +0.004 C 
ATOM     34  C   UNL     1      -3.080   0.279   3.013  0.00  0.00    -0.003 C 
ENDBRANCH  32  34
ENDBRANCH  31  32
ENDBRANCH  29  31
ENDBRANCH   1  29
TORSDOF 7
