REMARK  Name = ZINC20729436
REMARK  9 active torsions:
REMARK  status: ('A' for Active; 'I' for Inactive)
REMARK    1  A    between atoms: C_1  and  C_2
REMARK    2  A    between atoms: C_2  and  C_3
REMARK    3  A    between atoms: C_2  and  C_4
REMARK    4  A    between atoms: C_4  and  C_5
REMARK    5  A    between atoms: C_5  and  C_7
REMARK    6  A    between atoms: C_5  and  N_11
REMARK    7  A    between atoms: C_7  and  O_9
REMARK    8  A    between atoms: O_9  and  C_10
REMARK    9  A    between atoms: C_23  and  C_25
REMARK                            x       y       z     vdW  Elec       q    Type
REMARK                         _______ _______ _______ _____ _____    ______ ____
ROOT
ATOM      1  N   UNL     1      -0.316  -4.252  -0.719  0.00  0.00    -0.286 N 
ATOM      2  C   UNL     1      -0.270  -3.459  -1.808  0.00  0.00    +0.304 C 
ATOM      3  O   UNL     1      -0.803  -2.366  -1.786  0.00  0.00    -0.253 OA
ATOM      4  N   UNL     1       0.367  -3.876  -2.920  0.00  0.00    -0.273 N 
ATOM      5  C   UNL     1       0.529  -2.983  -4.076  0.00  0.00    +0.116 C 
ATOM      6  C   UNL     1       2.021  -2.704  -4.293  0.00  0.00    +0.076 C 
ATOM      7  C   UNL     1       2.779  -4.004  -4.191  0.00  0.00    +0.066 A 
ATOM      8  C   UNL     1       2.294  -5.127  -3.618  0.00  0.00    +0.064 A 
ATOM      9  N   UNL     1       3.261  -6.078  -3.713  0.00  0.00    -0.346 N 
ATOM     10  H   UNL     1       3.207  -6.991  -3.389  0.00  0.00    +0.167 HD
ATOM     11  C   UNL     1       4.313  -5.510  -4.347  0.00  0.00    +0.197 A 
ATOM     12  N   UNL     1       4.014  -4.269  -4.629  0.00  0.00    -0.240 NA
ATOM     13  C   UNL     1       0.925  -5.238  -3.005  0.00  0.00    +0.159 C 
ATOM     14  H   UNL     1       0.046  -5.151  -0.759  0.00  0.00    +0.151 HD
ENDROOT
BRANCH  13  15
ATOM     15  C   UNL     1       0.046  -6.099  -3.876  0.00  0.00    +0.017 A 
ATOM     16  C   UNL     1       0.611  -6.896  -4.854  0.00  0.00    +0.009 A 
ATOM     17  C   UNL     1      -0.194  -7.686  -5.653  0.00  0.00    +0.003 A 
ATOM     18  C   UNL     1      -1.565  -7.681  -5.476  0.00  0.00    +0.041 A 
ATOM     19  C   UNL     1      -2.133  -6.885  -4.497  0.00  0.00    +0.159 A 
ATOM     20  C   UNL     1      -1.325  -6.096  -3.692  0.00  0.00    +0.164 A 
ATOM     21  F   UNL     1      -1.877  -5.322  -2.732  0.00  0.00    -0.202 F 
ATOM     22  F   UNL     1      -3.473  -6.880  -4.323  0.00  0.00    -0.202 F 
ENDBRANCH  13  15
BRANCH   1  23
ATOM     23  C   UNL     1      -0.912  -3.757   0.524  0.00  0.00    +0.183 C 
BRANCH  23  24
ATOM     24  C   UNL     1       0.121  -2.988   1.306  0.00  0.00    +0.327 C 
ATOM     25  O   UNL     1       1.242  -2.866   0.870  0.00  0.00    -0.249 OA
BRANCH  24  26
ATOM     26  O   UNL     1      -0.202  -2.438   2.487  0.00  0.00    -0.467 OA
ATOM     27  C   UNL     1       0.827  -1.724   3.174  0.00  0.00    +0.280 C 
ENDBRANCH  24  26
ENDBRANCH  23  24
BRANCH  23  28
ATOM     28  C   UNL     1      -1.408  -4.939   1.359  0.00  0.00    +0.036 C 
BRANCH  28  30
ATOM     29  C   UNL     1      -2.956  -6.900   1.391  0.00  0.00    +0.007 C 
ATOM     30  C   UNL     1      -2.545  -5.646   0.618  0.00  0.00    -0.015 C 
ATOM     31  C   UNL     1      -3.743  -4.702   0.502  0.00  0.00    +0.007 C 
ENDBRANCH  28  30
ENDBRANCH  23  28
ENDBRANCH   1  23
TORSDOF 6
