REMARK  Name = ZINC20738036
REMARK  10 active torsions:
REMARK  status: ('A' for Active; 'I' for Inactive)
REMARK    1  A    between atoms: C_1  and  O_2
REMARK    2  A    between atoms: O_2  and  C_3
REMARK    3  A    between atoms: C_3  and  C_5
REMARK    4  A    between atoms: C_5  and  C_6
REMARK    5  A    between atoms: C_6  and  C_7
REMARK    6  A    between atoms: C_7  and  C_9
REMARK    7  A    between atoms: C_7  and  N_13
REMARK    8  A    between atoms: C_9  and  O_11
REMARK    9  A    between atoms: O_11  and  C_12
REMARK   10  A    between atoms: C_25  and  C_27
REMARK                            x       y       z     vdW  Elec       q    Type
REMARK                         _______ _______ _______ _____ _____    ______ ____
ROOT
ATOM      1  N   UNL     1      -1.706  -6.601  -0.244  0.00  0.00    -0.286 N 
ATOM      2  C   UNL     1      -1.688  -5.834  -1.352  0.00  0.00    +0.304 C 
ATOM      3  O   UNL     1      -2.219  -4.741  -1.344  0.00  0.00    -0.253 OA
ATOM      4  N   UNL     1      -1.081  -6.280  -2.470  0.00  0.00    -0.273 N 
ATOM      5  C   UNL     1      -0.953  -5.418  -3.654  0.00  0.00    +0.116 C 
ATOM      6  C   UNL     1       0.532  -5.142  -3.920  0.00  0.00    +0.076 C 
ATOM      7  C   UNL     1       1.296  -6.437  -3.804  0.00  0.00    +0.066 A 
ATOM      8  C   UNL     1       0.830  -7.545  -3.188  0.00  0.00    +0.064 A 
ATOM      9  N   UNL     1       1.796  -8.497  -3.285  0.00  0.00    -0.346 N 
ATOM     10  H   UNL     1       1.754  -9.401  -2.935  0.00  0.00    +0.167 HD
ATOM     11  C   UNL     1       2.829  -7.944  -3.963  0.00  0.00    +0.197 A 
ATOM     12  N   UNL     1       2.519  -6.712  -4.269  0.00  0.00    -0.240 NA
ATOM     13  C   UNL     1      -0.522  -7.643  -2.535  0.00  0.00    +0.156 C 
ATOM     14  H   UNL     1      -1.352  -7.504  -0.273  0.00  0.00    +0.151 HD
ENDROOT
BRANCH  13  15
ATOM     15  C   UNL     1      -1.422  -8.528  -3.357  0.00  0.00    -0.021 A 
ATOM     16  C   UNL     1      -1.612  -8.263  -4.701  0.00  0.00    +0.007 A 
ATOM     17  C   UNL     1      -2.438  -9.075  -5.456  0.00  0.00    +0.015 A 
ATOM     18  C   UNL     1      -3.073 -10.153  -4.867  0.00  0.00    +0.018 A 
ATOM     19  C   UNL     1      -2.883 -10.418  -3.523  0.00  0.00    +0.015 A 
ATOM     20  C   UNL     1      -2.053  -9.609  -2.770  0.00  0.00    +0.007 A 
ATOM     21 BR   UNL     1      -4.203 -11.264  -5.899  0.00  0.00    -0.050 Br
ENDBRANCH  13  15
BRANCH   1  22
ATOM     22  C   UNL     1      -2.261  -6.071   1.004  0.00  0.00    +0.184 C 
BRANCH  22  23
ATOM     23  C   UNL     1      -1.198  -5.292   1.736  0.00  0.00    +0.327 C 
ATOM     24  O   UNL     1      -0.091  -5.190   1.263  0.00  0.00    -0.249 OA
BRANCH  23  25
ATOM     25  O   UNL     1      -1.482  -4.712   2.912  0.00  0.00    -0.467 OA
ATOM     26  C   UNL     1      -0.427  -3.989   3.550  0.00  0.00    +0.280 C 
ENDBRANCH  23  25
ENDBRANCH  22  23
BRANCH  22  27
ATOM     27  C   UNL     1      -2.739  -7.230   1.882  0.00  0.00    +0.045 C 
BRANCH  27  28
ATOM     28  C   UNL     1      -3.903  -7.945   1.193  0.00  0.00    +0.123 C 
BRANCH  28  29
ATOM     29  C   UNL     1      -4.374  -9.086   2.057  0.00  0.00    +0.307 C 
ATOM     30  O   UNL     1      -3.834  -9.304   3.116  0.00  0.00    -0.251 OA
BRANCH  29  32
ATOM     31  C   UNL     1      -5.787 -10.922   2.521  0.00  0.00    +0.280 C 
ATOM     32  O   UNL     1      -5.394  -9.859   1.651  0.00  0.00    -0.468 OA
ENDBRANCH  29  32
ENDBRANCH  28  29
ENDBRANCH  27  28
ENDBRANCH  22  27
ENDBRANCH   1  22
TORSDOF 8
