REMARK  Name = ZINC34720955
REMARK  14 active torsions:
REMARK  status: ('A' for Active; 'I' for Inactive)
REMARK    1  A    between atoms: C_1  and  C_2
REMARK    2  A    between atoms: C_2  and  O_3
REMARK    3  A    between atoms: O_3  and  C_4
REMARK    4  A    between atoms: C_6  and  C_11
REMARK    5  A    between atoms: C_9  and  O_10
REMARK    6  A    between atoms: C_19  and  O_39
REMARK    7  A    between atoms: C_23  and  C_25
REMARK    8  A    between atoms: C_26  and  C_27
REMARK    9  A    between atoms: C_29  and  O_37
REMARK   10  A    between atoms: C_30  and  O_35
REMARK   11  A    between atoms: C_31  and  O_33
REMARK   12  A    between atoms: O_33  and  C_34
REMARK   13  A    between atoms: O_35  and  C_36
REMARK   14  A    between atoms: O_37  and  C_38
REMARK                            x       y       z     vdW  Elec       q    Type
REMARK                         _______ _______ _______ _____ _____    ______ ____
ROOT
ATOM      1  C   UNL     1      -0.231  -4.971   0.476  0.00  0.00    +0.112 C 
ATOM      2  C   UNL     1      -1.637  -5.418   0.064  0.00  0.00    +0.046 C 
ATOM      3  C   UNL     1      -2.574  -4.207   0.070  0.00  0.00    +0.008 C 
ATOM      4  C   UNL     1      -2.604  -3.595   1.472  0.00  0.00    +0.001 C 
ATOM      5  C   UNL     1      -3.111  -4.636   2.473  0.00  0.00    +0.003 C 
ATOM      6  C   UNL     1      -2.178  -5.849   2.465  0.00  0.00    +0.035 C 
ATOM      7  C   UNL     1      -2.147  -6.466   1.057  0.00  0.00    +0.072 C 
ATOM      8  C   UNL     1      -1.224  -7.685   1.038  0.00  0.00    +0.054 C 
ATOM      9  C   UNL     1       0.187  -7.262   1.460  0.00  0.00    +0.111 C 
ATOM     10  N   UNL     1       0.626  -6.157   0.608  0.00  0.00    -0.290 N 
ATOM     11  C   UNL     1       1.797  -6.235  -0.056  0.00  0.00    +0.240 C 
ATOM     12  O   UNL     1       2.202  -5.279  -0.691  0.00  0.00    -0.271 OA
ENDROOT
BRANCH   1  15
ATOM     13  C   UNL     1       1.194  -1.907  -1.212  0.00  0.00    +0.162 A 
ATOM     14  C   UNL     1       0.673  -2.753  -0.246  0.00  0.00    +0.055 A 
ATOM     15  C   UNL     1       0.336  -4.052  -0.575  0.00  0.00    -0.023 A 
ATOM     16  C   UNL     1       0.517  -4.511  -1.867  0.00  0.00    +0.009 A 
ATOM     17  C   UNL     1       1.036  -3.672  -2.835  0.00  0.00    +0.049 A 
ATOM     18  C   UNL     1       1.371  -2.367  -2.513  0.00  0.00    +0.158 A 
BRANCH  18  19
ATOM     19  O   UNL     1       1.877  -1.538  -3.466  0.00  0.00    -0.503 OA
ATOM     20  H   UNL     1       2.841  -1.563  -3.537  0.00  0.00    +0.292 HD
ENDBRANCH  18  19
BRANCH  13  21
ATOM     21  O   UNL     1       1.526  -0.628  -0.890  0.00  0.00    -0.489 OA
BRANCH  21  23
ATOM     22  C   UNL     1       1.746   1.234   0.635  0.00  0.00    +0.048 C 
ATOM     23  C   UNL     1       1.317  -0.225   0.465  0.00  0.00    +0.226 C 
ENDBRANCH  21  23
ENDBRANCH  13  21
ENDBRANCH   1  15
BRANCH  11  24
ATOM     24  C   UNL     1       2.580  -7.470  -0.014  0.00  0.00    +0.068 C 
ATOM     25  C   UNL     1       3.803  -7.513  -0.584  0.00  0.00    +0.013 C 
BRANCH  25  26
ATOM     26  C   UNL     1       4.590  -8.754  -0.542  0.00  0.00    -0.018 A 
ATOM     27  C   UNL     1       4.071  -9.893   0.084  0.00  0.00    +0.057 A 
ATOM     28  C   UNL     1       4.814 -11.057   0.122  0.00  0.00    +0.166 A 
ATOM     29  C   UNL     1       6.078 -11.098  -0.462  0.00  0.00    +0.204 A 
ATOM     30  C   UNL     1       6.598  -9.966  -1.085  0.00  0.00    +0.166 A 
ATOM     31  C   UNL     1       5.858  -8.800  -1.132  0.00  0.00    +0.057 A 
BRANCH  30  32
ATOM     32  O   UNL     1       7.833 -10.011  -1.653  0.00  0.00    -0.491 OA
ATOM     33  C   UNL     1       8.304  -8.814  -2.275  0.00  0.00    +0.277 C 
ENDBRANCH  30  32
BRANCH  29  34
ATOM     34  O   UNL     1       6.806 -12.245  -0.423  0.00  0.00    -0.488 OA
ATOM     35  C   UNL     1       6.632 -13.161  -1.506  0.00  0.00    +0.277 C 
ENDBRANCH  29  34
BRANCH  28  36
ATOM     36  O   UNL     1       4.310 -12.165   0.730  0.00  0.00    -0.491 OA
ATOM     37  C   UNL     1       3.008 -12.052   1.308  0.00  0.00    +0.277 C 
ENDBRANCH  28  36
ENDBRANCH  25  26
ENDBRANCH  11  24
BRANCH   7  38
ATOM     38  O   UNL     1      -3.467  -6.868   0.688  0.00  0.00    -0.388 OA
ATOM     39  H   UNL     1      -3.855  -7.532   1.274  0.00  0.00    +0.210 HD
ENDBRANCH   7  38
TORSDOF 10
