REMARK  Name = ZINC10523400
REMARK  3 active torsions:
REMARK  status: ('A' for Active; 'I' for Inactive)
REMARK    1  A    between atoms: C_6  and  C_7
REMARK    2  A    between atoms: N_9  and  C_13
REMARK    3  A    between atoms: C_13  and  C_14
REMARK                            x       y       z     vdW  Elec       q    Type
REMARK                         _______ _______ _______ _____ _____    ______ ____
ROOT
ATOM      1  C   UNL     1      -2.510   3.972   0.048  0.00  0.00    +0.224 C 
ENDROOT
BRANCH   1   2
ATOM      2  C   UNL     1      -1.182   3.259   0.031  0.00  0.00    +0.132 A 
ATOM      3  N   UNL     1      -1.180   1.900   0.018  0.00  0.00    -0.309 N 
ATOM      4  H   UNL     1      -2.022   1.419   0.019  0.00  0.00    +0.170 HD
ATOM      5  C   UNL     1      -0.014   1.213   0.009  0.00  0.00    +0.259 A 
ATOM      6  O   UNL     1       0.002  -0.004   0.002  0.00  0.00    -0.267 OA
ATOM      7  C   UNL     1       1.232   1.994   0.001  0.00  0.00    +0.066 A 
ATOM      8  C   UNL     1       2.484   1.383  -0.015  0.00  0.00    +0.035 A 
ATOM      9  C   UNL     1       3.620   2.164  -0.022  0.00  0.00    +0.042 A 
ATOM     10  C   UNL     1       3.524   3.550  -0.013  0.00  0.00    +0.022 A 
ATOM     11  C   UNL     1       2.296   4.172   0.002  0.00  0.00    +0.030 A 
ATOM     12  C   UNL     1       1.131   3.403   0.010  0.00  0.00    +0.078 A 
ATOM     13  N   UNL     1      -0.099   3.975   0.024  0.00  0.00    -0.232 NA
ATOM     14 CL   UNL     1       5.183   1.409  -0.041  0.00  0.00    -0.084 Cl
ENDBRANCH   1   2
BRANCH   1  17
ATOM     15  C   UNL     1      -1.965   7.460   0.767  0.00  0.00    +0.250 A 
ATOM     16  N   UNL     1      -2.155   6.241   1.183  0.00  0.00    -0.126 NA
ATOM     17  N   UNL     1      -2.287   5.420   0.053  0.00  0.00    -0.187 N 
ATOM     18  C   UNL     1      -2.175   6.221  -1.028  0.00  0.00    +0.439 A 
ATOM     19  O   UNL     1      -2.240   5.872  -2.192  0.00  0.00    -0.221 OA
ATOM     20  O   UNL     1      -1.977   7.473  -0.583  0.00  0.00    -0.388 OA
BRANCH  15  26
ATOM     21  C   UNL     1      -1.787   8.501   3.024  0.00  0.00    +0.016 A 
ATOM     22  C   UNL     1      -1.603   9.606   3.828  0.00  0.00    +0.039 A 
ATOM     23  C   UNL     1      -1.416  10.856   3.260  0.00  0.00    +0.123 A 
ATOM     24  C   UNL     1      -1.407  11.002   1.882  0.00  0.00    +0.039 A 
ATOM     25  C   UNL     1      -1.585   9.903   1.069  0.00  0.00    +0.016 A 
ATOM     26  C   UNL     1      -1.774   8.642   1.635  0.00  0.00    +0.039 A 
ATOM     27  F   UNL     1      -1.242  11.936   4.053  0.00  0.00    -0.205 F 
ENDBRANCH  15  26
ENDBRANCH   1  17
TORSDOF 3
