REMARK  Name = ZINC01889030
REMARK  7 active torsions:
REMARK  status: ('A' for Active; 'I' for Inactive)
REMARK    1  A    between atoms: C_5  and  C_7
REMARK    2  A    between atoms: C_7  and  C_8
REMARK    3  A    between atoms: N_12  and  C_27
REMARK    4  A    between atoms: C_14  and  C_15
REMARK    5  A    between atoms: C_14  and  C_17
REMARK    6  A    between atoms: N_19  and  C_20
REMARK    7  A    between atoms: C_20  and  C_21
REMARK                            x       y       z     vdW  Elec       q    Type
REMARK                         _______ _______ _______ _____ _____    ______ ____
ROOT
ATOM      1  C   UNL     1       4.333  -0.471  -0.623  0.00  0.00    +0.143 C 
ATOM      2  C   UNL     1       4.557   1.024  -0.788  0.00  0.00    +0.238 C 
ATOM      3  O   UNL     1       5.440   1.470  -1.489  0.00  0.00    -0.274 OA
ATOM      4  N   UNL     1       3.724   1.806  -0.123  0.00  0.00    -0.232 N 
ATOM      5  C   UNL     1       2.725   1.310   0.678  0.00  0.00    +0.098 C 
ATOM      6  C   UNL     1       1.790   2.021   1.431  0.00  0.00    +0.141 C 
ATOM      7  S   UNL     1       2.898  -0.462   0.524  0.00  0.00    -0.095 S 
ENDROOT
BRANCH   4   8
ATOM      8  C   UNL     1       3.869   3.196  -0.237  0.00  0.00    +0.042 A 
ATOM      9  C   UNL     1       3.207   3.884  -1.245  0.00  0.00    +0.027 A 
ATOM     10  C   UNL     1       3.347   5.254  -1.352  0.00  0.00    +0.040 A 
ATOM     11  C   UNL     1       4.156   5.940  -0.461  0.00  0.00    +0.124 A 
ATOM     12  C   UNL     1       4.821   5.255   0.542  0.00  0.00    +0.040 A 
ATOM     13  C   UNL     1       4.679   3.886   0.655  0.00  0.00    +0.027 A 
ATOM     14  F   UNL     1       4.295   7.279  -0.571  0.00  0.00    -0.205 F 
ENDBRANCH   4   8
BRANCH   6  15
ATOM     15  C   UNL     1       0.863   1.309   2.309  0.00  0.00    +0.257 C 
ATOM     16  O   UNL     1       0.907   0.094   2.383  0.00  0.00    -0.269 OA
ATOM     17  N   UNL     1      -0.043   1.996   3.032  0.00  0.00    -0.304 N 
ATOM     18  H   UNL     1      -0.078   2.963   2.973  0.00  0.00    +0.149 HD
BRANCH  17  19
ATOM     19  C   UNL     1      -0.976   1.281   3.907  0.00  0.00    +0.179 C 
BRANCH  19  20
ATOM     20  C   UNL     1      -1.877   2.273   4.597  0.00  0.00    +0.122 A 
ATOM     21  C   UNL     1      -3.058   2.719   4.132  0.00  0.00    +0.046 A 
ATOM     22  C   UNL     1      -3.559   3.627   5.093  0.00  0.00    +0.041 A 
ATOM     23  C   UNL     1      -2.651   3.688   6.083  0.00  0.00    +0.195 A 
ATOM     24  O   UNL     1      -1.634   2.865   5.777  0.00  0.00    -0.466 OA
ENDBRANCH  19  20
ENDBRANCH  17  19
ENDBRANCH   6  15
BRANCH   6  25
ATOM     25  C   UNL     1       1.739   3.450   1.344  0.00  0.00    +0.107 C 
ATOM     26  N   UNL     1       1.699   4.583   1.274  0.00  0.00    -0.191 NA
ENDBRANCH   6  25
BRANCH   1  27
ATOM     27  C   UNL     1       5.549  -1.146   0.016  0.00  0.00    +0.060 C 
BRANCH  27  32
ATOM     28  C   UNL     1       4.521  -4.401   1.629  0.00  0.00    +0.000 A 
ATOM     29  C   UNL     1       4.730  -5.299   0.598  0.00  0.00    +0.001 A 
ATOM     30  C   UNL     1       5.204  -4.853  -0.621  0.00  0.00    +0.020 A 
ATOM     31  C   UNL     1       5.469  -3.509  -0.811  0.00  0.00    +0.044 A 
ATOM     32  C   UNL     1       5.260  -2.611   0.221  0.00  0.00    -0.028 A 
ATOM     33  C   UNL     1       4.791  -3.058   1.442  0.00  0.00    +0.005 A 
ATOM     34 CL   UNL     1       6.065  -2.948  -2.342  0.00  0.00    -0.083 Cl
ENDBRANCH  27  32
ENDBRANCH   1  27
TORSDOF 7
