REMARK  Name = ZINC20455922
REMARK  10 active torsions:
REMARK  status: ('A' for Active; 'I' for Inactive)
REMARK    1  A    between atoms: C_1  and  C_2
REMARK    2  A    between atoms: C_2  and  C_19
REMARK    3  A    between atoms: N_5  and  C_9
REMARK    4  A    between atoms: C_9  and  C_10
REMARK    5  A    between atoms: C_10  and  C_11
REMARK    6  A    between atoms: C_14  and  O_17
REMARK    7  A    between atoms: O_17  and  C_18
REMARK    8  A    between atoms: N_22  and  C_25
REMARK    9  A    between atoms: C_25  and  C_26
REMARK   10  A    between atoms: C_31  and  C_32
REMARK                            x       y       z     vdW  Elec       q    Type
REMARK                         _______ _______ _______ _____ _____    ______ ____
ROOT
ATOM      1  C   UNL     1       0.637   4.054   1.304  0.00  0.00    +0.042 C 
ATOM      2  C   UNL     1       1.406   3.580   0.069  0.00  0.00    +0.112 C 
ATOM      3  C   UNL     1       2.821   4.125   0.075  0.00  0.00    +0.247 C 
ATOM      4  O   UNL     1       3.681   3.921   0.905  0.00  0.00    -0.273 OA
ATOM      5  N   UNL     1       2.922   4.886  -1.033  0.00  0.00    -0.224 N 
ATOM      6  C   UNL     1       1.781   4.896  -1.731  0.00  0.00    +0.309 C 
ATOM      7  O   UNL     1       1.629   5.512  -2.768  0.00  0.00    -0.252 OA
ATOM      8  N   UNL     1       0.821   4.149  -1.157  0.00  0.00    -0.285 N 
ATOM      9  H   UNL     1      -0.221   3.920  -1.427  0.00  0.00    +0.151 HD
ENDROOT
BRANCH   2  10
ATOM     10  C   UNL     1       1.420   2.051  -0.001  0.00  0.00    +0.018 C 
ATOM     11  C   UNL     1      -0.019   1.526   0.010  0.00  0.00    -0.013 C 
ATOM     12  C   UNL     1       0.002  -0.004   0.002  0.00  0.00    -0.078 C 
ATOM     13  N   UNL     1       0.729  -0.491   1.181  0.00  0.00    +0.382 N 
ATOM     14  C   UNL     1       2.126  -0.039   1.168  0.00  0.00    -0.078 C 
ATOM     15  C   UNL     1       2.169   1.490   1.211  0.00  0.00    -0.013 C 
ATOM     16  H   UNL     1       0.247  -0.064   2.073  0.00  0.00    -0.081 HD
BRANCH  13  17
ATOM     17  C   UNL     1       0.651  -1.955   1.280  0.00  0.00    -0.042 C 
BRANCH  17  18
ATOM     18  C   UNL     1       1.600  -2.438   2.346  0.00  0.00    -0.053 A 
ATOM     19  C   UNL     1       2.830  -2.955   1.994  0.00  0.00    +0.002 A 
ATOM     20  C   UNL     1       3.703  -3.399   2.971  0.00  0.00    +0.000 A 
ATOM     21  C   UNL     1       3.349  -3.328   4.307  0.00  0.00    +0.001 A 
ATOM     22  C   UNL     1       2.123  -2.813   4.673  0.00  0.00    +0.012 A 
ATOM     23  C   UNL     1       1.240  -2.358   3.692  0.00  0.00    +0.019 A 
BRANCH  23  24
ATOM     24  C   UNL     1      -0.073  -1.799   4.077  0.00  0.00    +0.135 A 
ATOM     25  C   UNL     1      -0.972  -2.378   4.917  0.00  0.00    +0.050 A 
ATOM     26  C   UNL     1      -2.073  -1.502   5.000  0.00  0.00    +0.042 A 
ATOM     27  C   UNL     1      -1.799  -0.448   4.208  0.00  0.00    +0.196 A 
ATOM     28  O   UNL     1      -0.590  -0.630   3.652  0.00  0.00    -0.463 OA
ENDBRANCH  23  24
ENDBRANCH  17  18
ENDBRANCH  13  17
ENDBRANCH   2  10
BRANCH   5  29
ATOM     29  C   UNL     1       4.133   5.612  -1.424  0.00  0.00    +0.122 C 
BRANCH  29  30
ATOM     30  C   UNL     1       4.107   7.014  -0.812  0.00  0.00    +0.054 C 
BRANCH  30  31
ATOM     31  C   UNL     1       5.352   7.761  -1.215  0.00  0.00    -0.046 A 
ATOM     32  C   UNL     1       6.484   7.694  -0.423  0.00  0.00    +0.007 A 
ATOM     33  C   UNL     1       7.628   8.373  -0.793  0.00  0.00    +0.046 A 
ATOM     34  C   UNL     1       7.638   9.133  -1.954  0.00  0.00    +0.120 A 
ATOM     35  C   UNL     1       6.500   9.203  -2.743  0.00  0.00    +0.046 A 
ATOM     36  C   UNL     1       5.360   8.518  -2.372  0.00  0.00    +0.007 A 
BRANCH  34  37
ATOM     37  O   UNL     1       8.762   9.806  -2.317  0.00  0.00    -0.495 OA
ATOM     38  C   UNL     1       9.896   9.687  -1.456  0.00  0.00    +0.277 C 
ENDBRANCH  34  37
ENDBRANCH  30  31
ENDBRANCH  29  30
ENDBRANCH   5  29
TORSDOF 8
