REMARK  Name = ZINC36743429
REMARK  6 active torsions:
REMARK  status: ('A' for Active; 'I' for Inactive)
REMARK    1  A    between atoms: C_1  and  N_2
REMARK    2  A    between atoms: N_2  and  C_3
REMARK    3  A    between atoms: N_2  and  S_12
REMARK    4  A    between atoms: C_3  and  C_4
REMARK    5  A    between atoms: C_6  and  N_11
REMARK    6  A    between atoms: S_12  and  N_15
REMARK                            x       y       z     vdW  Elec       q    Type
REMARK                         _______ _______ _______ _____ _____    ______ ____
ROOT
ATOM      1  C   UNL     1      -0.128   1.469   0.043  0.00  0.00    +0.133 C 
ATOM      2  N   UNL     1       0.003   0.010   0.010  0.00  0.00    -0.165 NA
ENDROOT
BRANCH   2   3
ATOM      3  S   UNL     1       0.002  -0.789  -1.440  0.00  0.00    +0.100 S 
ATOM      4  O   UNL     1      -0.417  -2.120  -1.170  0.00  0.00    -0.141 OA
ATOM      5  O   UNL     1      -0.675   0.049  -2.366  0.00  0.00    -0.141 OA
BRANCH   3   6
ATOM      6  N   UNL     1       1.575  -0.883  -1.949  0.00  0.00    -0.166 NA
ATOM      7  C   UNL     1       2.103   0.187  -2.766  0.00  0.00    +0.110 C 
ATOM      8  C   UNL     1       1.847  -0.126  -4.261  0.00  0.00    +0.017 C 
ATOM      9  C   UNL     1       2.712  -1.229  -4.708  0.00  0.00    +0.001 C 
ATOM     10  C   UNL     1       2.460  -2.554  -3.996  0.00  0.00    +0.001 C 
ATOM     11  C   UNL     1       3.244  -2.586  -2.707  0.00  0.00    +0.017 C 
ATOM     12  C   UNL     1       2.381  -2.051  -1.544  0.00  0.00    +0.110 C 
ENDBRANCH   3   6
ENDBRANCH   2   3
BRANCH   2  13
ATOM     13  C   UNL     1       0.135  -0.742   1.261  0.00  0.00    +0.146 C 
BRANCH  13  14
ATOM     14  C   UNL     1      -1.234  -1.015   1.830  0.00  0.00    -0.012 A 
ATOM     15  C   UNL     1      -2.361  -0.669   1.110  0.00  0.00    +0.029 A 
ATOM     16  C   UNL     1      -3.622  -0.921   1.635  0.00  0.00    +0.025 A 
ATOM     17  C   UNL     1      -3.746  -1.521   2.882  0.00  0.00    +0.024 A 
ATOM     18  C   UNL     1      -2.615  -1.864   3.597  0.00  0.00    +0.022 A 
ATOM     19  C   UNL     1      -1.360  -1.616   3.069  0.00  0.00    +0.046 A 
ATOM     20 CL   UNL     1       0.059  -2.055   3.967  0.00  0.00    -0.083 Cl
BRANCH  16  21
ATOM     21  N   UNL     1      -4.765  -0.573   0.910  0.00  0.00    -0.358 N 
ATOM     22  H   UNL     1      -4.678  -0.154   0.039  0.00  0.00    +0.142 HD
ATOM     23  H   UNL     1      -5.645  -0.749   1.277  0.00  0.00    +0.142 HD
ENDBRANCH  16  21
ENDBRANCH  13  14
ENDBRANCH   2  13
TORSDOF 5
