REMARK  Name = ZINC07926711
REMARK  8 active torsions:
REMARK  status: ('A' for Active; 'I' for Inactive)
REMARK    1  A    between atoms: C_1  and  C_2
REMARK    2  A    between atoms: C_7  and  C_13
REMARK    3  A    between atoms: C_13  and  N_51
REMARK    4  A    between atoms: C_14  and  N_51
REMARK    5  A    between atoms: C_15  and  C_16
REMARK    6  A    between atoms: C_15  and  N_51
REMARK    7  A    between atoms: C_21  and  O_26
REMARK    8  A    between atoms: O_26  and  C_27
REMARK                            x       y       z     vdW  Elec       q    Type
REMARK                         _______ _______ _______ _____ _____    ______ ____
ROOT
ATOM      1  C   UNL     1      -4.436   1.051   2.116  0.00  0.00    -0.095 C 
ATOM      2  N   UNL     1      -4.124   2.334   1.452  0.00  0.00    +0.384 N 
ATOM      3  H   UNL     1      -3.344   2.784   1.945  0.00  0.00    -0.081 HD
ENDROOT
BRANCH   2   4
ATOM      4  C   UNL     1      -5.302   3.226   1.499  0.00  0.00    -0.022 C 
BRANCH   4  11
ATOM      5  C   UNL     1      -6.848   4.107   9.151  0.00  0.00    +0.045 C 
ATOM      6  C   UNL     1      -6.596   3.725   7.715  0.00  0.00    -0.034 A 
ATOM      7  C   UNL     1      -6.748   2.391   7.309  0.00  0.00    +0.008 A 
ATOM      8  C   UNL     1      -6.519   2.054   6.009  0.00  0.00    +0.047 A 
ATOM      9  C   UNL     1      -6.134   3.051   5.093  0.00  0.00    +0.140 A 
ATOM     10  N   UNL     1      -5.910   2.723   3.822  0.00  0.00    -0.236 NA
ATOM     11  C   UNL     1      -5.547   3.631   2.930  0.00  0.00    +0.032 A 
ATOM     12  C   UNL     1      -5.387   4.949   3.311  0.00  0.00    +0.092 A 
ATOM     13  C   UNL     1      -5.625   5.302   4.644  0.00  0.00    +0.258 A 
ATOM     14  O   UNL     1      -5.497   6.460   5.012  0.00  0.00    -0.267 OA
ATOM     15  N   UNL     1      -5.994   4.342   5.519  0.00  0.00    -0.268 N 
ATOM     16  C   UNL     1      -6.225   4.669   6.821  0.00  0.00    +0.099 A 
ENDBRANCH   4  11
ENDBRANCH   2   4
BRANCH   2  17
ATOM     17  C   UNL     1      -3.730   2.093   0.048  0.00  0.00    -0.043 C 
BRANCH  17  18
ATOM     18  C   UNL     1      -2.408   1.369   0.032  0.00  0.00    -0.063 A 
ATOM     19  C   UNL     1      -2.390  -0.025   0.025  0.00  0.00    +0.002 A 
ATOM     20  C   UNL     1      -1.214  -0.710   0.010  0.00  0.00    +0.009 A 
ATOM     21  C   UNL     1       0.002  -0.004   0.002  0.00  0.00    -0.014 A 
ATOM     22  C   UNL     1       1.235  -0.677  -0.013  0.00  0.00    +0.054 A 
ATOM     23  C   UNL     1       2.396   0.042  -0.020  0.00  0.00    +0.121 A 
ATOM     24  C   UNL     1       2.375   1.440  -0.012  0.00  0.00    +0.046 A 
ATOM     25  C   UNL     1       1.198   2.121   0.002  0.00  0.00    +0.012 A 
ATOM     26  C   UNL     1      -0.017   1.413   0.010  0.00  0.00    -0.017 A 
ATOM     27  C   UNL     1      -1.251   2.085   0.031  0.00  0.00    +0.010 A 
BRANCH  23  28
ATOM     28  O   UNL     1       3.588  -0.611  -0.034  0.00  0.00    -0.495 OA
ATOM     29  C   UNL     1       4.768   0.195  -0.040  0.00  0.00    +0.277 C 
ENDBRANCH  23  28
ENDBRANCH  17  18
ENDBRANCH   2  17
TORSDOF 5
