REMARK  Name = ZINC08970783
REMARK  7 active torsions:
REMARK  status: ('A' for Active; 'I' for Inactive)
REMARK    1  A    between atoms: C_4  and  C_7
REMARK    2  A    between atoms: C_7  and  C_9
REMARK    3  A    between atoms: C_7  and  S_30
REMARK    4  A    between atoms: C_9  and  N_10
REMARK    5  A    between atoms: C_11  and  C_13
REMARK    6  A    between atoms: C_16  and  N_19
REMARK    7  A    between atoms: S_30  and  C_33
REMARK                            x       y       z     vdW  Elec       q    Type
REMARK                         _______ _______ _______ _____ _____    ______ ____
ROOT
ATOM      1  N   UNL     1      -2.488  -8.345  -0.019  0.00  0.00    -0.309 N 
ATOM      2  C   UNL     1      -3.182  -7.189  -0.006  0.00  0.00    +0.244 C 
ATOM      3  O   UNL     1      -4.397  -7.209   0.004  0.00  0.00    -0.270 OA
ATOM      4  H   UNL     1      -1.518  -8.328  -0.028  0.00  0.00    +0.149 HD
ENDROOT
BRANCH   2   5
ATOM      5  C   UNL     1      -2.465  -5.898  -0.005  0.00  0.00    +0.037 A 
ATOM      6  C   UNL     1      -3.182  -4.699   0.008  0.00  0.00    +0.015 A 
ATOM      7  C   UNL     1      -2.510  -3.497   0.009  0.00  0.00    +0.025 A 
ATOM      8  C   UNL     1      -1.120  -3.476  -0.005  0.00  0.00    +0.045 A 
ATOM      9  C   UNL     1      -0.403  -4.668  -0.024  0.00  0.00    +0.025 A 
ATOM     10  C   UNL     1      -1.068  -5.873  -0.018  0.00  0.00    +0.015 A 
BRANCH   8  11
ATOM     11  N   UNL     1      -0.441  -2.255  -0.005  0.00  0.00    -0.202 N 
ATOM     12  C   UNL     1      -1.042  -1.051   0.007  0.00  0.00    +0.258 C 
ATOM     13  O   UNL     1      -2.240  -0.856   0.020  0.00  0.00    -0.269 OA
ATOM     14  C   UNL     1       0.002  -0.004   0.002  0.00  0.00    +0.050 A 
ATOM     15  C   UNL     1      -0.017   1.381   0.010  0.00  0.00    +0.014 A 
ATOM     16  C   UNL     1       1.178   2.085   0.002  0.00  0.00    +0.001 A 
ATOM     17  C   UNL     1       2.386   1.414  -0.013  0.00  0.00    +0.001 A 
ATOM     18  C   UNL     1       2.421   0.028  -0.021  0.00  0.00    +0.014 A 
ATOM     19  C   UNL     1       1.234  -0.689  -0.013  0.00  0.00    +0.050 A 
ATOM     20  C   UNL     1       0.898  -2.127  -0.018  0.00  0.00    +0.258 C 
ATOM     21  O   UNL     1       1.696  -3.042  -0.030  0.00  0.00    -0.269 OA
ENDBRANCH   8  11
ENDBRANCH   2   5
BRANCH   1  22
ATOM     22  C   UNL     1      -3.200  -9.625  -0.021  0.00  0.00    +0.135 C 
BRANCH  22  23
ATOM     23  C   UNL     1      -2.186 -10.771  -0.036  0.00  0.00    +0.183 C 
BRANCH  23  27
ATOM     24  C   UNL     1      -4.261 -14.506  -0.039  0.00  0.00    +0.000 A 
ATOM     25  C   UNL     1      -3.392 -14.198   0.991  0.00  0.00    +0.000 A 
ATOM     26  C   UNL     1      -2.721 -12.990   0.992  0.00  0.00    +0.005 A 
ATOM     27  C   UNL     1      -2.918 -12.089  -0.037  0.00  0.00    -0.022 A 
ATOM     28  C   UNL     1      -3.790 -12.394  -1.065  0.00  0.00    +0.005 A 
ATOM     29  C   UNL     1      -4.458 -13.605  -1.069  0.00  0.00    +0.000 A 
ENDBRANCH  23  27
BRANCH  23  30
ATOM     30  S   UNL     1      -1.159 -10.649  -1.526  0.00  0.00    +0.005 S 
ATOM     31  O   UNL     1      -1.963 -10.793  -2.689  0.00  0.00    -0.169 OA
ATOM     32  O   UNL     1      -0.248  -9.565  -1.405  0.00  0.00    -0.169 OA
BRANCH  30  33
ATOM     33  C   UNL     1      -0.147 -12.092  -1.498  0.00  0.00    +0.089 A 
ATOM     34  C   UNL     1       1.084 -12.061  -0.870  0.00  0.00    +0.027 A 
ATOM     35  C   UNL     1       1.875 -13.194  -0.843  0.00  0.00    +0.002 A 
ATOM     36  C   UNL     1       1.441 -14.355  -1.455  0.00  0.00    +0.000 A 
ATOM     37  C   UNL     1       0.212 -14.384  -2.088  0.00  0.00    +0.002 A 
ATOM     38  C   UNL     1      -0.582 -13.253  -2.109  0.00  0.00    +0.027 A 
ENDBRANCH  30  33
ENDBRANCH  23  30
ENDBRANCH  22  23
ENDBRANCH   1  22
TORSDOF 7
