REMARK  Name = ZINC35582244
REMARK  10 active torsions:
REMARK  status: ('A' for Active; 'I' for Inactive)
REMARK    1  A    between atoms: C_1  and  C_2
REMARK    2  A    between atoms: C_2  and  C_3
REMARK    3  A    between atoms: C_3  and  N_4
REMARK    4  A    between atoms: N_4  and  C_5
REMARK    5  A    between atoms: C_5  and  C_7
REMARK    6  A    between atoms: C_5  and  C_17
REMARK    7  A    between atoms: C_10  and  C_13
REMARK    8  A    between atoms: C_13  and  C_14
REMARK    9  A    between atoms: C_13  and  C_15
REMARK   10  A    between atoms: C_13  and  C_16
REMARK                            x       y       z     vdW  Elec       q    Type
REMARK                         _______ _______ _______ _____ _____    ______ ____
ROOT
ATOM      1  C   UNL     1       1.472  -2.466   2.424  0.00  0.00    +0.027 C 
ENDROOT
BRANCH   1   2
ATOM      2  C   UNL     1       1.600  -3.966   2.354  0.00  0.00    -0.054 A 
ATOM      3  C   UNL     1       0.547  -4.729   1.884  0.00  0.00    +0.003 A 
ATOM      4  C   UNL     1       0.665  -6.105   1.820  0.00  0.00    +0.004 A 
ATOM      5  C   UNL     1       1.835  -6.718   2.226  0.00  0.00    -0.042 A 
ATOM      6  C   UNL     1       2.888  -5.956   2.695  0.00  0.00    +0.004 A 
ATOM      7  C   UNL     1       2.773  -4.579   2.755  0.00  0.00    +0.003 A 
BRANCH   5   8
ATOM      8  C   UNL     1       1.963  -8.218   2.157  0.00  0.00    -0.013 C 
ATOM      9  C   UNL     1       1.787  -8.679   0.709  0.00  0.00    +0.015 C 
ATOM     10  C   UNL     1       3.346  -8.636   2.661  0.00  0.00    +0.015 C 
ATOM     11  C   UNL     1       0.885  -8.862   3.032  0.00  0.00    +0.015 C 
ENDBRANCH   5   8
ENDBRANCH   1   2
BRANCH   1  12
ATOM     12  C   UNL     1       0.701  -2.085   3.660  0.00  0.00    +0.097 A 
ATOM     13  C   UNL     1       1.232  -1.645   4.815  0.00  0.00    +0.044 A 
ATOM     14  C   UNL     1       0.154  -1.408   5.699  0.00  0.00    +0.057 A 
ATOM     15  C   UNL     1      -0.973  -1.717   5.030  0.00  0.00    +0.170 A 
ATOM     16  O   UNL     1      -0.636  -2.121   3.795  0.00  0.00    -0.454 OA
ATOM     17 BR   UNL     1      -2.732  -1.596   5.713  0.00  0.00    -0.008 Br
ENDBRANCH   1  12
BRANCH   1  18
ATOM     18  N   UNL     1       0.762  -1.980   1.234  0.00  0.00    +0.388 N 
ATOM     19  H   UNL     1      -0.185  -2.329   1.241  0.00  0.00    -0.084 HD
ATOM     20  H   UNL     1       1.234  -2.305   0.403  0.00  0.00    -0.084 HD
BRANCH  18  21
ATOM     21  C   UNL     1       0.742  -0.511   1.242  0.00  0.00    -0.081 C 
BRANCH  21  23
ATOM     22  C   UNL     1      -0.019   1.526   0.010  0.00  0.00    +0.002 C 
ATOM     23  C   UNL     1       0.002  -0.004   0.002  0.00  0.00    -0.022 C 
ENDBRANCH  21  23
ENDBRANCH  18  21
ENDBRANCH   1  18
TORSDOF 6
