REMARK  Name = ZINC03360483
REMARK  6 active torsions:
REMARK  status: ('A' for Active; 'I' for Inactive)
REMARK    1  A    between atoms: C_1  and  C_2
REMARK    2  A    between atoms: C_6  and  C_9
REMARK    3  A    between atoms: C_10  and  C_11
REMARK    4  A    between atoms: C_10  and  N_49
REMARK    5  A    between atoms: N_13  and  C_14
REMARK    6  A    between atoms: C_15  and  C_23
REMARK                            x       y       z     vdW  Elec       q    Type
REMARK                         _______ _______ _______ _____ _____    ______ ____
ROOT
ATOM      1  C   UNL     1      -0.535   1.827   3.626  0.00  0.00    +0.201 C 
ATOM      2  O   UNL     1      -1.407   2.660   3.496  0.00  0.00    -0.278 OA
ATOM      3  N   UNL     1       0.002   1.598   4.840  0.00  0.00    -0.281 N 
ATOM      4  H   UNL     1       0.700   0.932   4.945  0.00  0.00    +0.155 HD
ENDROOT
BRANCH   3   5
ATOM      5  C   UNL     1      -0.442   2.315   5.941  0.00  0.00    +0.084 A 
ATOM      6  C   UNL     1      -0.016   2.223   7.259  0.00  0.00    +0.068 A 
ATOM      7  C   UNL     1      -0.650   3.097   8.232  0.00  0.00    -0.023 A 
ATOM      8  C   UNL     1      -1.601   3.917   7.735  0.00  0.00    -0.004 A 
ATOM      9  S   UNL     1      -1.657   3.549   6.004  0.00  0.00    -0.077 S 
ATOM     10  C   UNL     1      -2.418   4.917   8.493  0.00  0.00    +0.043 C 
ATOM     11  C   UNL     1      -2.280   4.616   9.993  0.00  0.00    +0.005 C 
ATOM     12  C   UNL     1      -0.798   4.424  10.324  0.00  0.00    +0.005 C 
ATOM     13  C   UNL     1      -0.293   3.116   9.713  0.00  0.00    +0.037 C 
BRANCH   6  14
ATOM     14  C   UNL     1       1.034   1.279   7.655  0.00  0.00    +0.244 C 
ATOM     15  O   UNL     1       2.201   1.624   7.635  0.00  0.00    -0.270 OA
ATOM     16  N   UNL     1       0.707   0.030   8.041  0.00  0.00    -0.325 N 
ATOM     17  H   UNL     1      -0.224  -0.244   8.057  0.00  0.00    +0.145 HD
ATOM     18  H   UNL     1       1.401  -0.594   8.303  0.00  0.00    +0.145 HD
ENDBRANCH   6  14
ENDBRANCH   3   5
BRANCH   1  19
ATOM     19  C   UNL     1      -0.053   1.047   2.430  0.00  0.00    +0.019 C 
BRANCH  19  27
ATOM     20  C   UNL     1      -4.527   0.734   0.403  0.00  0.00    +0.036 C 
ATOM     21  C   UNL     1      -3.114   1.299   0.248  0.00  0.00    +0.099 C 
ATOM     22  C   UNL     1      -2.265   0.891   1.455  0.00  0.00    -0.046 C 
ATOM     23  C   UNL     1      -0.310   0.819   0.031  0.00  0.00    -0.046 C 
ATOM     24  C   UNL     1      -1.178   1.228  -1.161  0.00  0.00    +0.099 C 
ATOM     25  O   UNL     1      -2.519   0.780  -0.944  0.00  0.00    -0.378 OA
ATOM     26  C   UNL     1      -1.166   2.751  -1.305  0.00  0.00    +0.036 C 
ATOM     27  N   UNL     1      -0.890   1.398   1.262  0.00  0.00    +0.389 N 
ATOM     28  H   UNL     1      -0.921   2.420   1.168  0.00  0.00    -0.081 HD
ENDBRANCH  19  27
ENDBRANCH   1  19
TORSDOF 4
