REMARK  Name = ZINC05869716
REMARK  6 active torsions:
REMARK  status: ('A' for Active; 'I' for Inactive)
REMARK    1  A    between atoms: C_4  and  C_7
REMARK    2  A    between atoms: C_7  and  C_20
REMARK    3  A    between atoms: N_8  and  N_9
REMARK    4  A    between atoms: C_10  and  C_12
REMARK    5  A    between atoms: C_17  and  O_18
REMARK    6  A    between atoms: N_21  and  O_22
REMARK                            x       y       z     vdW  Elec       q    Type
REMARK                         _______ _______ _______ _____ _____    ______ ____
ROOT
ATOM      1  N   UNL     1      -0.814  -0.234  -4.060  0.00  0.00    -0.202 N 
ATOM      2  C   UNL     1      -1.687   0.543  -3.390  0.00  0.00    +0.267 C 
ATOM      3  O   UNL     1      -2.294   1.420  -3.975  0.00  0.00    -0.268 OA
ATOM      4  H   UNL     1      -0.334  -0.938  -3.594  0.00  0.00    +0.178 HD
ENDROOT
BRANCH   2   5
ATOM      5  C   UNL     1      -1.908   0.330  -1.947  0.00  0.00    +0.081 A 
ATOM      6  C   UNL     1      -1.407  -0.815  -1.321  0.00  0.00    +0.032 A 
ATOM      7  C   UNL     1      -1.623  -1.011   0.026  0.00  0.00    +0.019 A 
ATOM      8  C   UNL     1      -2.329  -0.074   0.765  0.00  0.00    +0.019 A 
ATOM      9  C   UNL     1      -2.823   1.064   0.160  0.00  0.00    +0.047 A 
ATOM     10  C   UNL     1      -2.616   1.277  -1.195  0.00  0.00    +0.129 A 
ATOM     11 BR   UNL     1      -0.952  -2.564   0.871  0.00  0.00    -0.050 Br
BRANCH  10  12
ATOM     12  O   UNL     1      -3.103   2.395  -1.791  0.00  0.00    -0.506 OA
ATOM     13  H   UNL     1      -2.491   3.143  -1.782  0.00  0.00    +0.292 HD
ENDBRANCH  10  12
ENDBRANCH   2   5
BRANCH   1  15
ATOM     14  C   UNL     1       0.160  -0.853  -6.104  0.00  0.00    +0.110 C 
ATOM     15  N   UNL     1      -0.598  -0.027  -5.428  0.00  0.00    -0.178 NA
BRANCH  14  19
ATOM     16  C   UNL     1       0.511  -0.449 -10.321  0.00  0.00    +0.000 A 
ATOM     17  C   UNL     1       0.472   0.679  -9.522  0.00  0.00    +0.001 A 
ATOM     18  C   UNL     1       0.358   0.555  -8.152  0.00  0.00    +0.010 A 
ATOM     19  C   UNL     1       0.282  -0.712  -7.574  0.00  0.00    +0.003 A 
ATOM     20  C   UNL     1       0.328  -1.846  -8.384  0.00  0.00    +0.010 A 
ATOM     21  C   UNL     1       0.436  -1.709  -9.753  0.00  0.00    +0.001 A 
ENDBRANCH  14  19
BRANCH  14  22
ATOM     22  C   UNL     1       0.892  -1.920  -5.404  0.00  0.00    +0.182 C 
ATOM     23  N   UNL     1       1.828  -2.574  -6.017  0.00  0.00    -0.093 NA
BRANCH  23  24
ATOM     24  O   UNL     1       2.342  -2.090  -7.244  0.00  0.00    -0.409 OA
ATOM     25  H   UNL     1       2.979  -2.683  -7.665  0.00  0.00    +0.328 HD
ENDBRANCH  23  24
ENDBRANCH  14  22
ENDBRANCH   1  15
TORSDOF 6
