REMARK  Name = ZINC44331269
REMARK  9 active torsions:
REMARK  status: ('A' for Active; 'I' for Inactive)
REMARK    1  A    between atoms: C_1  and  O_2
REMARK    2  A    between atoms: O_2  and  C_3
REMARK    3  A    between atoms: C_6  and  C_11
REMARK    4  A    between atoms: C_8  and  O_9
REMARK    5  A    between atoms: C_11  and  C_12
REMARK    6  A    between atoms: C_12  and  C_14
REMARK    7  A    between atoms: C_12  and  N_18
REMARK    8  A    between atoms: C_14  and  O_16
REMARK    9  A    between atoms: O_16  and  C_17
REMARK                            x       y       z     vdW  Elec       q    Type
REMARK                         _______ _______ _______ _____ _____    ______ ____
ROOT
ATOM      1  C   UNL     1      -1.201  -0.638   0.010  0.00  0.00    +0.162 A 
ATOM      2  C   UNL     1      -2.374   0.100   0.019  0.00  0.00    +0.050 A 
ATOM      3  C   UNL     1      -3.597  -0.546   0.028  0.00  0.00    +0.008 A 
ATOM      4  C   UNL     1      -3.652  -1.927   0.027  0.00  0.00    -0.032 A 
ATOM      5  C   UNL     1      -2.486  -2.669   0.018  0.00  0.00    +0.062 A 
ATOM      6  C   UNL     1      -1.257  -2.028   0.003  0.00  0.00    +0.172 A 
ATOM      7  I   UNL     1      -2.575  -4.763   0.018  0.00  0.00    -0.040 I 
ENDROOT
BRANCH   1   9
ATOM      8  C   UNL     1      -0.017   1.425   0.010  0.00  0.00    +0.277 C 
ATOM      9  O   UNL     1       0.002  -0.004   0.002  0.00  0.00    -0.491 OA
ENDBRANCH   1   9
BRANCH   6  10
ATOM     10  O   UNL     1      -0.108  -2.756  -0.012  0.00  0.00    -0.503 OA
ATOM     11  H   UNL     1       0.233  -2.971   0.867  0.00  0.00    +0.292 HD
ENDBRANCH   6  10
BRANCH   4  12
ATOM     12  C   UNL     1      -4.988  -2.626   0.037  0.00  0.00    +0.031 C 
BRANCH  12  13
ATOM     13  C   UNL     1      -5.370  -2.975   1.476  0.00  0.00    +0.040 C 
BRANCH  13  14
ATOM     14  N   UNL     1      -5.574  -1.738   2.243  0.00  0.00    +0.387 N 
ATOM     15  H   UNL     1      -6.313  -1.198   1.819  0.00  0.00    -0.089 HD
ATOM     16  H   UNL     1      -5.826  -1.968   3.192  0.00  0.00    -0.089 HD
ATOM     17  H   UNL     1      -4.721  -1.199   2.243  0.00  0.00    -0.089 HD
ENDBRANCH  13  14
BRANCH  13  18
ATOM     18  C   UNL     1      -6.644  -3.781   1.476  0.00  0.00    +0.292 C 
ATOM     19  O   UNL     1      -7.698  -3.244   1.722  0.00  0.00    -0.253 OA
BRANCH  18  20
ATOM     20  O   UNL     1      -6.607  -5.094   1.203  0.00  0.00    -0.469 OA
ATOM     21  C   UNL     1      -7.852  -5.796   1.221  0.00  0.00    +0.280 C 
ENDBRANCH  18  20
ENDBRANCH  13  18
ENDBRANCH  12  13
ENDBRANCH   4  12
TORSDOF 7
