REMARK  Name = ZINC14745214
REMARK  10 active torsions:
REMARK  status: ('A' for Active; 'I' for Inactive)
REMARK    1  A    between atoms: C_1  and  C_2
REMARK    2  A    between atoms: C_2  and  C_3
REMARK    3  A    between atoms: C_3  and  N_4
REMARK    4  A    between atoms: C_7  and  C_9
REMARK    5  A    between atoms: C_18  and  N_67
REMARK    6  A    between atoms: C_22  and  C_23
REMARK    7  A    between atoms: C_22  and  N_67
REMARK    8  A    between atoms: C_23  and  C_24
REMARK    9  A    between atoms: C_27  and  S_30
REMARK   10  A    between atoms: S_30  and  N_33
REMARK                            x       y       z     vdW  Elec       q    Type
REMARK                         _______ _______ _______ _____ _____    ______ ____
ROOT
ATOM      1  N   UNL     1       0.988   0.043  -6.197  0.00  0.00    -0.267 N 
ATOM      2  C   UNL     1       0.356   0.146  -5.016  0.00  0.00    +0.043 A 
ATOM      3  C   UNL     1      -0.084   1.425  -4.907  0.00  0.00    +0.004 A 
ATOM      4  C   UNL     1       0.319   2.073  -6.087  0.00  0.00    +0.151 A 
ATOM      5  N   UNL     1       0.960   1.174  -6.814  0.00  0.00    -0.166 NA
ATOM      6  C   UNL     1      -0.843   1.969  -3.729  0.00  0.00    +0.023 C 
ATOM      7  C   UNL     1      -0.672   0.996  -2.554  0.00  0.00    -0.067 C 
ATOM      8  C   UNL     1      -0.975  -0.429  -3.022  0.00  0.00    -0.009 C 
ATOM      9  C   UNL     1       0.135  -0.910  -3.965  0.00  0.00    +0.054 C 
ENDROOT
BRANCH   4  10
ATOM     10  C   UNL     1       0.073   3.485  -6.445  0.00  0.00    +0.267 C 
ATOM     11  O   UNL     1      -0.431   4.239  -5.635  0.00  0.00    -0.268 OA
ATOM     12  N   UNL     1       0.409   3.938  -7.669  0.00  0.00    -0.296 N 
ATOM     13  C   UNL     1       0.883   3.011  -8.706  0.00  0.00    +0.108 C 
ATOM     14  C   UNL     1       0.021   3.202  -9.963  0.00  0.00    +0.019 C 
ATOM     15  C   UNL     1       0.051   4.675 -10.376  0.00  0.00    +0.003 C 
ATOM     16  C   UNL     1      -0.537   5.534  -9.254  0.00  0.00    +0.019 C 
ATOM     17  C   UNL     1       0.313   5.368  -7.991  0.00  0.00    +0.108 C 
ENDBRANCH   4  10
BRANCH   7  18
ATOM     18  N   UNL     1      -1.607   1.370  -1.476  0.00  0.00    +0.381 N 
ATOM     19  H   UNL     1      -2.522   0.943  -1.659  0.00  0.00    -0.086 HD
ATOM     20  H   UNL     1      -1.704   2.392  -1.452  0.00  0.00    -0.086 HD
BRANCH  18  21
ATOM     21  C   UNL     1      -1.101   0.898  -0.173  0.00  0.00    -0.078 C 
BRANCH  21  22
ATOM     22  C   UNL     1      -2.089   1.299   0.923  0.00  0.00    +0.016 C 
BRANCH  22  23
ATOM     23  C   UNL     1      -1.580   0.820   2.258  0.00  0.00    -0.049 A 
ATOM     24  C   UNL     1      -1.935  -0.431   2.725  0.00  0.00    +0.005 A 
ATOM     25  C   UNL     1      -1.463  -0.873   3.947  0.00  0.00    +0.029 A 
ATOM     26  C   UNL     1      -0.645  -0.058   4.708  0.00  0.00    +0.105 A 
ATOM     27  C   UNL     1      -0.295   1.196   4.244  0.00  0.00    +0.029 A 
ATOM     28  C   UNL     1      -0.762   1.635   3.019  0.00  0.00    +0.005 A 
BRANCH  26  29
ATOM     29  S   UNL     1      -0.049  -0.618   6.268  0.00  0.00    +0.056 S 
ATOM     30  O   UNL     1      -0.077  -2.038   6.228  0.00  0.00    -0.153 OA
ATOM     31  O   UNL     1       1.139   0.114   6.536  0.00  0.00    -0.153 OA
BRANCH  29  32
ATOM     32  N   UNL     1      -1.156  -0.156   7.410  0.00  0.00    -0.204 NA
ATOM     33  H   UNL     1      -1.278  -0.688   8.212  0.00  0.00    +0.144 HD
ATOM     34  H   UNL     1      -1.684   0.647   7.277  0.00  0.00    +0.144 HD
ENDBRANCH  29  32
ENDBRANCH  26  29
ENDBRANCH  22  23
ENDBRANCH  21  22
ENDBRANCH  18  21
ENDBRANCH   7  18
BRANCH   1  35
ATOM     35  C   UNL     1       1.617  -1.177  -6.708  0.00  0.00    +0.143 C 
BRANCH  35  37
ATOM     36  C   UNL     1       1.252  -3.251  -8.053  0.00  0.00    +0.005 C 
ATOM     37  C   UNL     1       0.595  -1.977  -7.518  0.00  0.00    +0.020 C 
ENDBRANCH  35  37
ENDBRANCH   1  35
TORSDOF 9
