REMARK  Name = ZINC08962246
REMARK  8 active torsions:
REMARK  status: ('A' for Active; 'I' for Inactive)
REMARK    1  A    between atoms: C_1  and  C_2
REMARK    2  A    between atoms: C_2  and  C_3
REMARK    3  A    between atoms: C_10  and  N_16
REMARK    4  A    between atoms: N_16  and  S_17
REMARK    5  A    between atoms: S_17  and  C_20
REMARK    6  A    between atoms: C_20  and  C_21
REMARK    7  A    between atoms: C_26  and  O_27
REMARK    8  A    between atoms: O_27  and  C_28
REMARK                            x       y       z     vdW  Elec       q    Type
REMARK                         _______ _______ _______ _____ _____    ______ ____
ROOT
ATOM      1  C   UNL     1      -4.710   3.840   2.471  0.00  0.00    +0.110 C 
ATOM      2  C   UNL     1      -5.075   4.234   1.046  0.00  0.00    +0.251 C 
ATOM      3  O   UNL     1      -4.841   3.171   0.132  0.00  0.00    -0.489 OA
ATOM      4  C   UNL     1      -3.671   2.494   0.255  0.00  0.00    +0.133 A 
ATOM      5  C   UNL     1      -2.644   2.677  -0.655  0.00  0.00    +0.048 A 
ATOM      6  C   UNL     1      -1.458   1.984  -0.508  0.00  0.00    +0.028 A 
ATOM      7  C   UNL     1      -1.285   1.101   0.552  0.00  0.00    +0.049 A 
ATOM      8  C   UNL     1      -2.307   0.902   1.467  0.00  0.00    +0.041 A 
ATOM      9  C   UNL     1      -3.504   1.601   1.325  0.00  0.00    +0.080 A 
ATOM     10  C   UNL     1      -4.613   1.413   2.279  0.00  0.00    +0.248 C 
ATOM     11  O   UNL     1      -4.971   0.297   2.602  0.00  0.00    -0.270 OA
ATOM     12  N   UNL     1      -5.227   2.508   2.790  0.00  0.00    -0.305 N 
ATOM     13  H   UNL     1      -6.003   2.410   3.363  0.00  0.00    +0.149 HD
ENDROOT
BRANCH   1  15
ATOM     14  C   UNL     1      -2.812   3.382   4.030  0.00  0.00    +0.006 C 
ATOM     15  C   UNL     1      -3.187   3.837   2.618  0.00  0.00    +0.022 C 
ENDBRANCH   1  15
BRANCH   7  16
ATOM     16  N   UNL     1      -0.078   0.406   0.692  0.00  0.00    -0.220 N 
ATOM     17  H   UNL     1      -0.085  -0.542   0.896  0.00  0.00    +0.173 HD
BRANCH  16  18
ATOM     18  S   UNL     1       1.362   1.202   0.504  0.00  0.00    +0.047 S 
ATOM     19  O   UNL     1       2.355   0.201   0.681  0.00  0.00    -0.155 OA
ATOM     20  O   UNL     1       1.237   1.888  -0.734  0.00  0.00    -0.155 OA
BRANCH  18  21
ATOM     21  C   UNL     1       1.421   2.390   1.873  0.00  0.00    +0.227 C 
BRANCH  21  22
ATOM     22  C   UNL     1       2.703   3.178   1.800  0.00  0.00    +0.017 A 
ATOM     23  C   UNL     1       2.750   4.357   1.081  0.00  0.00    +0.009 A 
ATOM     24  C   UNL     1       3.926   5.080   1.013  0.00  0.00    +0.001 A 
ATOM     25  C   UNL     1       5.058   4.627   1.665  0.00  0.00    +0.004 A 
ATOM     26  C   UNL     1       5.016   3.449   2.386  0.00  0.00    +0.046 A 
ATOM     27  C   UNL     1       3.836   2.724   2.459  0.00  0.00    +0.125 A 
BRANCH  27  28
ATOM     28  O   UNL     1       3.790   1.567   3.172  0.00  0.00    -0.495 OA
ATOM     29  C   UNL     1       4.995   1.160   3.825  0.00  0.00    +0.277 C 
ENDBRANCH  27  28
ENDBRANCH  21  22
ENDBRANCH  18  21
ENDBRANCH  16  18
ENDBRANCH   7  16
TORSDOF 6
