REMARK  Name = ZINC44559097
REMARK  8 active torsions:
REMARK  status: ('A' for Active; 'I' for Inactive)
REMARK    1  A    between atoms: C_1  and  C_2
REMARK    2  A    between atoms: C_3  and  C_22
REMARK    3  A    between atoms: C_5  and  N_9
REMARK    4  A    between atoms: C_6  and  C_7
REMARK    5  A    between atoms: C_10  and  C_12
REMARK    6  A    between atoms: C_12  and  N_13
REMARK    7  A    between atoms: C_18  and  C_20
REMARK    8  A    between atoms: C_20  and  N_21
REMARK                            x       y       z     vdW  Elec       q    Type
REMARK                         _______ _______ _______ _____ _____    ______ ____
ROOT
ATOM      1  N   UNL     1      -0.203  -3.381   1.685  0.00  0.00    -0.257 N 
ATOM      2  C   UNL     1      -0.139  -4.530   0.984  0.00  0.00    +0.203 C 
ATOM      3  O   UNL     1      -0.201  -4.506  -0.227  0.00  0.00    -0.277 OA
ATOM      4  H   UNL     1      -0.153  -3.400   2.653  0.00  0.00    +0.158 HD
ENDROOT
BRANCH   1   9
ATOM      5  C   UNL     1      -0.679   1.527   0.600  0.00  0.00    +0.049 C 
ATOM      6  C   UNL     1      -0.556   0.028   0.501  0.00  0.00    +0.010 A 
ATOM      7  C   UNL     1      -0.548  -0.707  -0.620  0.00  0.00    +0.109 A 
ATOM      8  O   UNL     1      -0.421  -2.007  -0.305  0.00  0.00    -0.445 OA
ATOM      9  C   UNL     1      -0.340  -2.173   1.022  0.00  0.00    +0.210 A 
ATOM     10  C   UNL     1      -0.413  -0.923   1.614  0.00  0.00    +0.115 A 
ATOM     11  C   UNL     1      -0.666  -0.159  -2.019  0.00  0.00    +0.086 C 
BRANCH  10  12
ATOM     12  C   UNL     1      -0.362  -0.621   3.013  0.00  0.00    +0.105 C 
ATOM     13  N   UNL     1      -0.322  -0.381   4.123  0.00  0.00    -0.191 NA
ENDBRANCH  10  12
ENDBRANCH   1   9
BRANCH   2  14
ATOM     14  C   UNL     1       0.011  -5.845   1.705  0.00  0.00    +0.019 C 
BRANCH  14  15
ATOM     15  N   UNL     1       0.056  -6.939   0.725  0.00  0.00    +0.386 N 
ATOM     16  C   UNL     1      -1.244  -7.045   0.052  0.00  0.00    -0.078 C 
ATOM     17  C   UNL     1      -1.177  -8.129  -1.026  0.00  0.00    -0.019 C 
ATOM     18  C   UNL     1      -0.826  -9.470  -0.374  0.00  0.00    -0.003 C 
ATOM     19  C   UNL     1       0.495  -9.326   0.387  0.00  0.00    -0.017 C 
ATOM     20  C   UNL     1       0.366  -8.198   1.413  0.00  0.00    -0.086 C 
ATOM     21  H   UNL     1       0.772  -6.746   0.041  0.00  0.00    -0.081 HD
BRANCH  20  22
ATOM     22  C   UNL     1       1.684  -8.050   2.176  0.00  0.00    -0.102 C 
BRANCH  22  23
ATOM     23  N   UNL     1       2.733  -7.589   1.257  0.00  0.00    +0.377 N 
ATOM     24  H   UNL     1       2.791  -8.218   0.471  0.00  0.00    -0.090 HD
ATOM     25  H   UNL     1       2.510  -6.661   0.930  0.00  0.00    -0.090 HD
ATOM     26  H   UNL     1       3.619  -7.571   1.740  0.00  0.00    -0.090 HD
ENDBRANCH  22  23
ENDBRANCH  20  22
ENDBRANCH  14  15
ENDBRANCH   2  14
TORSDOF 6
