REMARK  Name = ZINC51752335
REMARK  8 active torsions:
REMARK  status: ('A' for Active; 'I' for Inactive)
REMARK    1  A    between atoms: C_1  and  C_2
REMARK    2  A    between atoms: C_7  and  C_10
REMARK    3  A    between atoms: C_11  and  C_13
REMARK    4  A    between atoms: C_14  and  N_22
REMARK    5  A    between atoms: C_17  and  C_19
REMARK    6  A    between atoms: C_19  and  C_20
REMARK    7  A    between atoms: C_19  and  C_21
REMARK    8  A    between atoms: N_22  and  N_23
REMARK                            x       y       z     vdW  Elec       q    Type
REMARK                         _______ _______ _______ _____ _____    ______ ____
ROOT
ATOM      1  C   UNL     1      -2.476  -3.889   1.869  0.00  0.00    +0.151 A 
ATOM      2  C   UNL     1      -3.439  -3.341   2.730  0.00  0.00    +0.090 A 
ATOM      3  C   UNL     1      -4.760  -3.779   2.602  0.00  0.00    +0.139 A 
ATOM      4  N   UNL     1      -5.050  -4.682   1.685  0.00  0.00    -0.238 NA
ATOM      5  C   UNL     1      -4.116  -5.175   0.892  0.00  0.00    +0.132 A 
ATOM      6  N   UNL     1      -2.861  -4.793   0.969  0.00  0.00    -0.225 NA
ENDROOT
BRANCH   1  15
ATOM      7  C   UNL     1       0.060   1.367  -0.304  0.00  0.00    +0.007 C 
ATOM      8  C   UNL     1       0.071  -0.160  -0.205  0.00  0.00    -0.011 C 
ATOM      9  C   UNL     1      -1.369  -0.680  -0.191  0.00  0.00    +0.022 C 
ATOM     10  C   UNL     1      -1.354  -2.210  -0.127  0.00  0.00    +0.108 C 
ATOM     11  N   UNL     1      -0.550  -2.627   1.031  0.00  0.00    -0.293 N 
ATOM     12  C   UNL     1       0.819  -2.112   1.162  0.00  0.00    +0.074 C 
ATOM     13  C   UNL     1       0.780  -0.582   1.084  0.00  0.00    +0.025 C 
ATOM     14  C   UNL     1       1.687  -2.665   0.030  0.00  0.00    +0.028 C 
ATOM     15  C   UNL     1      -1.060  -3.466   1.954  0.00  0.00    +0.267 C 
ATOM     16  O   UNL     1      -0.357  -3.876   2.857  0.00  0.00    -0.268 OA
ENDBRANCH   1  15
BRANCH   5  17
ATOM     17  C   UNL     1      -4.503  -6.205  -0.137  0.00  0.00    +0.051 C 
ATOM     18  C   UNL     1      -5.098  -7.428   0.564  0.00  0.00    +0.015 C 
ATOM     19  C   UNL     1      -5.541  -5.608  -1.090  0.00  0.00    +0.015 C 
ENDBRANCH   5  17
BRANCH   2  20
ATOM     20  N   UNL     1      -3.089  -2.392   3.682  0.00  0.00    -0.280 N 
ATOM     21  H   UNL     1      -2.184  -2.044   3.709  0.00  0.00    +0.166 HD
BRANCH  20  22
ATOM     22  N   UNL     1      -4.019  -1.950   4.579  0.00  0.00    -0.256 NA
ATOM     23  H   UNL     1      -4.420  -2.720   5.093  0.00  0.00    +0.140 HD
ATOM     24  H   UNL     1      -3.621  -1.266   5.205  0.00  0.00    +0.140 HD
ENDBRANCH  20  22
ENDBRANCH   2  20
TORSDOF 4
