REMARK  Name = ZINC11185756
REMARK  11 active torsions:
REMARK  status: ('A' for Active; 'I' for Inactive)
REMARK    1  A    between atoms: C_1  and  C_2
REMARK    2  A    between atoms: C_5  and  C_38
REMARK    3  A    between atoms: C_6  and  N_8
REMARK    4  A    between atoms: C_14  and  C_19
REMARK    5  A    between atoms: C_19  and  O_21
REMARK    6  A    between atoms: O_21  and  C_22
REMARK    7  A    between atoms: C_22  and  C_24
REMARK    8  A    between atoms: C_22  and  C_25
REMARK    9  A    between atoms: N_27  and  C_28
REMARK   10  A    between atoms: C_28  and  C_30
REMARK   11  A    between atoms: C_28  and  C_31
REMARK                            x       y       z     vdW  Elec       q    Type
REMARK                         _______ _______ _______ _____ _____    ______ ____
ROOT
ATOM      1  N   UNL     1       9.030  -0.887   1.500  0.00  0.00    -0.202 N 
ATOM      2  C   UNL     1       8.248  -1.752   0.830  0.00  0.00    +0.258 C 
ATOM      3  O   UNL     1       8.577  -2.858   0.451  0.00  0.00    -0.269 OA
ATOM      4  C   UNL     1       6.920  -1.130   0.631  0.00  0.00    +0.050 A 
ATOM      5  C   UNL     1       5.743  -1.541   0.024  0.00  0.00    +0.014 A 
ATOM      6  C   UNL     1       4.645  -0.698   0.007  0.00  0.00    +0.016 A 
ATOM      7  C   UNL     1       4.716   0.563   0.599  0.00  0.00    +0.060 A 
ATOM      8  C   UNL     1       5.901   0.987   1.208  0.00  0.00    +0.028 A 
ATOM      9  C   UNL     1       6.998   0.144   1.231  0.00  0.00    +0.051 A 
ATOM     10  C   UNL     1       8.369   0.252   1.773  0.00  0.00    +0.258 C 
ATOM     11  O   UNL     1       8.823   1.210   2.365  0.00  0.00    -0.269 OA
ENDROOT
BRANCH   1  17
ATOM     12  C   UNL     1      13.826  -0.674   0.433  0.00  0.00    +0.044 C 
ATOM     13  C   UNL     1      12.703  -1.045   1.367  0.00  0.00    -0.049 A 
ATOM     14  C   UNL     1      12.984  -1.634   2.586  0.00  0.00    +0.004 A 
ATOM     15  C   UNL     1      11.956  -1.977   3.445  0.00  0.00    +0.005 A 
ATOM     16  C   UNL     1      10.645  -1.725   3.090  0.00  0.00    -0.029 A 
ATOM     17  C   UNL     1      10.360  -1.139   1.865  0.00  0.00    +0.048 A 
ATOM     18  C   UNL     1      11.394  -0.796   1.004  0.00  0.00    +0.027 A 
ATOM     19  C   UNL     1       9.526  -2.093   4.029  0.00  0.00    +0.045 C 
ENDBRANCH   1  17
BRANCH   7  20
ATOM     20  C   UNL     1       3.537   1.456   0.576  0.00  0.00    +0.340 C 
ATOM     21  O   UNL     1       3.597   2.555   1.091  0.00  0.00    -0.245 OA
BRANCH  20  22
ATOM     22  O   UNL     1       2.397   1.051  -0.015  0.00  0.00    -0.449 OA
BRANCH  22  23
ATOM     23  C   UNL     1       1.280   1.980   0.001  0.00  0.00    +0.259 C 
ATOM     24  C   UNL     1       1.337   2.867  -1.245  0.00  0.00    +0.062 C 
BRANCH  23  25
ATOM     25  C   UNL     1      -0.014   1.209   0.009  0.00  0.00    +0.254 C 
ATOM     26  O   UNL     1       0.002  -0.004   0.002  0.00  0.00    -0.272 OA
ATOM     27  N   UNL     1      -1.191   1.867   0.018  0.00  0.00    -0.306 N 
ATOM     28  H   UNL     1      -1.204   2.837   0.023  0.00  0.00    +0.149 HD
BRANCH  27  29
ATOM     29  C   UNL     1      -2.449   1.117   0.020  0.00  0.00    +0.100 C 
ATOM     30  C   UNL     1      -2.830   0.756  -1.417  0.00  0.00    +0.033 C 
BRANCH  29  31
ATOM     31  C   UNL     1      -3.537   1.963   0.630  0.00  0.00    -0.027 A 
ATOM     32  C   UNL     1      -3.600   3.315   0.349  0.00  0.00    +0.008 A 
ATOM     33  C   UNL     1      -4.600   4.091   0.903  0.00  0.00    +0.038 A 
ATOM     34  C   UNL     1      -5.533   3.515   1.750  0.00  0.00    +0.123 A 
ATOM     35  C   UNL     1      -5.465   2.162   2.035  0.00  0.00    +0.038 A 
ATOM     36  C   UNL     1      -4.468   1.387   1.475  0.00  0.00    +0.008 A 
ATOM     37  F   UNL     1      -6.507   4.274   2.298  0.00  0.00    -0.205 F 
ENDBRANCH  29  31
ENDBRANCH  27  29
ENDBRANCH  23  25
ENDBRANCH  22  23
ENDBRANCH  20  22
ENDBRANCH   7  20
TORSDOF 7
