REMARK  Name = ZINC48722132
REMARK  10 active torsions:
REMARK  status: ('A' for Active; 'I' for Inactive)
REMARK    1  A    between atoms: C_1  and  C_2
REMARK    2  A    between atoms: C_3  and  C_24
REMARK    3  A    between atoms: C_7  and  N_8
REMARK    4  A    between atoms: C_9  and  C_11
REMARK    5  A    between atoms: N_13  and  C_14
REMARK    6  A    between atoms: C_14  and  C_15
REMARK    7  A    between atoms: C_15  and  N_21
REMARK    8  A    between atoms: N_21  and  C_22
REMARK    9  A    between atoms: N_21  and  C_23
REMARK   10  A    between atoms: N_26  and  C_27
REMARK                            x       y       z     vdW  Elec       q    Type
REMARK                         _______ _______ _______ _____ _____    ______ ____
ROOT
ATOM      1  N   UNL     1       1.065  -0.048   2.321  0.00  0.00    -0.277 N 
ATOM      2  C   UNL     1       1.228  -0.834   3.404  0.00  0.00    +0.303 C 
ATOM      3  O   UNL     1       1.344  -2.035   3.271  0.00  0.00    -0.265 OA
ATOM      4  H   UNL     1       0.900   0.901   2.431  0.00  0.00    +0.155 HD
ENDROOT
BRANCH   1  11
ATOM      5  C   UNL     1      -0.242   1.321   0.200  0.00  0.00    +0.046 C 
ATOM      6  C   UNL     1       0.508   0.033  -0.024  0.00  0.00    -0.017 A 
ATOM      7  C   UNL     1       0.583  -0.520  -1.302  0.00  0.00    +0.041 A 
ATOM      8  C   UNL     1       1.280  -1.713  -1.501  0.00  0.00    +0.013 A 
ATOM      9  C   UNL     1       1.893  -2.341  -0.435  0.00  0.00    +0.003 A 
ATOM     10  C   UNL     1       1.819  -1.793   0.832  0.00  0.00    +0.023 A 
ATOM     11  C   UNL     1       1.131  -0.602   1.040  0.00  0.00    +0.037 A 
BRANCH   7  12
ATOM     12  C   UNL     1      -0.075   0.153  -2.442  0.00  0.00    +0.244 C 
ATOM     13  O   UNL     1      -0.583   1.247  -2.290  0.00  0.00    -0.270 OA
ATOM     14  N   UNL     1      -0.111  -0.445  -3.649  0.00  0.00    -0.314 N 
ATOM     15  C   UNL     1      -0.762   0.222  -4.778  0.00  0.00    +0.128 C 
ATOM     16  H   UNL     1       0.295  -1.318  -3.770  0.00  0.00    +0.149 HD
ENDBRANCH   7  12
ENDBRANCH   1  11
BRANCH   2  17
ATOM     17  C   UNL     1       1.268  -0.227   4.768  0.00  0.00    +0.299 C 
ATOM     18  O   UNL     1       1.153   0.974   4.901  0.00  0.00    -0.265 OA
ATOM     19  N   UNL     1       1.431  -1.012   5.851  0.00  0.00    -0.309 N 
ATOM     20  H   UNL     1       1.524  -1.972   5.744  0.00  0.00    +0.149 HD
BRANCH  19  21
ATOM     21  C   UNL     1       1.470  -0.416   7.189  0.00  0.00    +0.093 C 
BRANCH  21  22
ATOM     22  C   UNL     1       1.785  -1.501   8.221  0.00  0.00    -0.050 C 
ATOM     23  C   UNL     1       1.794  -0.885   9.621  0.00  0.00    -0.010 C 
ATOM     24  C   UNL     1       2.861   0.209   9.690  0.00  0.00    -0.001 C 
ATOM     25  C   UNL     1       4.234  -0.398   9.390  0.00  0.00    -0.000 C 
ATOM     26  C   UNL     1       4.224  -1.014   7.990  0.00  0.00    -0.001 C 
ATOM     27  C   UNL     1       3.157  -2.108   7.921  0.00  0.00    -0.010 C 
BRANCH  22  28
ATOM     28  N   UNL     1       0.760  -2.552   8.155  0.00  0.00    +0.381 N 
ATOM     29  C   UNL     1       1.004  -3.541   9.213  0.00  0.00    -0.096 C 
ATOM     30  C   UNL     1      -0.568  -1.952   8.341  0.00  0.00    -0.096 C 
ATOM     31  H   UNL     1       0.801  -3.005   7.255  0.00  0.00    -0.082 HD
ENDBRANCH  22  28
ENDBRANCH  21  22
ENDBRANCH  19  21
ENDBRANCH   2  17
TORSDOF 6
