REMARK  Name = ZINC32380002
REMARK  9 active torsions:
REMARK  status: ('A' for Active; 'I' for Inactive)
REMARK    1  A    between atoms: C_1  and  C_2
REMARK    2  A    between atoms: C_2  and  C_3
REMARK    3  A    between atoms: C_2  and  C_4
REMARK    4  A    between atoms: C_2  and  C_5
REMARK    5  A    between atoms: N_13  and  C_17
REMARK    6  A    between atoms: C_17  and  C_18
REMARK    7  A    between atoms: N_20  and  C_21
REMARK    8  A    between atoms: C_21  and  C_23
REMARK    9  A    between atoms: C_21  and  C_29
REMARK                            x       y       z     vdW  Elec       q    Type
REMARK                         _______ _______ _______ _____ _____    ______ ____
ROOT
ATOM      1  C   UNL     1      -1.198  -0.844   0.009  0.00  0.00    +0.213 C 
ENDROOT
BRANCH   1  10
ATOM      2  C   UNL     1       1.282   4.683   0.015  0.00  0.00    -0.005 C 
ATOM      3  C   UNL     1       0.926   3.877  -1.236  0.00  0.00    +0.006 C 
ATOM      4  C   UNL     1       1.741   2.581  -1.255  0.00  0.00    +0.035 C 
ATOM      5  C   UNL     1       1.435   1.768  -0.002  0.00  0.00    +0.113 C 
ATOM      6  C   UNL     1       1.765   2.568   1.254  0.00  0.00    +0.035 C 
ATOM      7  C   UNL     1       0.951   3.864   1.264  0.00  0.00    +0.006 C 
ATOM      8  C   UNL     1      -0.016   1.345   0.009  0.00  0.00    +0.247 C 
ATOM      9  O   UNL     1      -0.991   2.066   0.018  0.00  0.00    -0.273 OA
ATOM     10  N   UNL     1       0.002  -0.004   0.002  0.00  0.00    -0.215 N 
ATOM     11  C   UNL     1       1.253  -0.480  -0.013  0.00  0.00    +0.310 C 
ATOM     12  O   UNL     1       1.526  -1.665  -0.021  0.00  0.00    -0.252 OA
ATOM     13  N   UNL     1       2.176   0.501  -0.016  0.00  0.00    -0.285 N 
ATOM     14  H   UNL     1       3.276   0.507  -0.026  0.00  0.00    +0.151 HD
BRANCH   2  16
ATOM     15  C   UNL     1      -1.018   5.657   0.041  0.00  0.00    +0.011 C 
ATOM     16  C   UNL     1       0.477   5.984   0.030  0.00  0.00    -0.035 C 
ATOM     17  C   UNL     1       0.833   6.790   1.280  0.00  0.00    +0.011 C 
ATOM     18  C   UNL     1       0.810   6.804  -1.218  0.00  0.00    +0.011 C 
ENDBRANCH   2  16
ENDBRANCH   1  10
BRANCH   1  19
ATOM     19  C   UNL     1      -1.624  -1.124  -1.409  0.00  0.00    +0.231 C 
ATOM     20  O   UNL     1      -0.987  -0.667  -2.334  0.00  0.00    -0.274 OA
ATOM     21  N   UNL     1      -2.712  -1.882  -1.648  0.00  0.00    -0.307 N 
ATOM     22  H   UNL     1      -3.290  -2.297  -0.809  0.00  0.00    +0.149 HD
BRANCH  21  23
ATOM     23  C   UNL     1      -3.126  -2.155  -3.027  0.00  0.00    +0.106 C 
BRANCH  23  24
ATOM     24  C   UNL     1      -3.914  -3.438  -3.071  0.00  0.00    -0.027 A 
ATOM     25  C   UNL     1      -4.816  -3.730  -2.064  0.00  0.00    +0.005 A 
ATOM     26  C   UNL     1      -5.543  -4.905  -2.107  0.00  0.00    +0.000 A 
ATOM     27  C   UNL     1      -5.360  -5.794  -3.150  0.00  0.00    +0.000 A 
ATOM     28  C   UNL     1      -4.454  -5.505  -4.153  0.00  0.00    +0.000 A 
ATOM     29  C   UNL     1      -3.731  -4.327  -4.113  0.00  0.00    +0.005 A 
ENDBRANCH  23  24
BRANCH  23  30
ATOM     30  C   UNL     1      -3.997  -1.004  -3.535  0.00  0.00    +0.014 C 
ATOM     31  C   UNL     1      -4.429  -1.289  -4.975  0.00  0.00    +0.006 C 
ATOM     32  C   UNL     1      -5.300  -0.138  -5.483  0.00  0.00    +0.000 C 
ATOM     33  C   UNL     1      -4.500   1.165  -5.439  0.00  0.00    +0.000 C 
ATOM     34  C   UNL     1      -4.068   1.450  -3.999  0.00  0.00    +0.000 C 
ATOM     35  C   UNL     1      -3.197   0.299  -3.491  0.00  0.00    +0.006 C 
ENDBRANCH  23  30
ENDBRANCH  21  23
ENDBRANCH   1  19
TORSDOF 6
