REMARK  Name = ZINC04236550
REMARK  15 active torsions:
REMARK  status: ('A' for Active; 'I' for Inactive)
REMARK    1  A    between atoms: C_1  and  C_2
REMARK    2  A    between atoms: C_2  and  N_3
REMARK    3  A    between atoms: C_4  and  O_6
REMARK    4  A    between atoms: O_6  and  C_7
REMARK    5  A    between atoms: C_11  and  C_38
REMARK    6  A    between atoms: C_14  and  C_15
REMARK    7  A    between atoms: C_14  and  C_16
REMARK    8  A    between atoms: C_16  and  O_17
REMARK    9  A    between atoms: C_20  and  O_37
REMARK   10  A    between atoms: C_22  and  C_24
REMARK   11  A    between atoms: C_24  and  C_25
REMARK   12  A    between atoms: N_27  and  C_28
REMARK   13  A    between atoms: C_28  and  C_29
REMARK   14  A    between atoms: C_34  and  O_35
REMARK   15  A    between atoms: O_35  and  C_36
REMARK                            x       y       z     vdW  Elec       q    Type
REMARK                         _______ _______ _______ _____ _____    ______ ____
ROOT
ATOM      1  C   UNL     1       3.876   1.676  -0.231  0.00  0.00    +0.186 C 
ATOM      2  C   UNL     1       3.780   0.150  -0.170  0.00  0.00    +0.046 C 
ATOM      3  C   UNL     1       2.309  -0.270  -0.204  0.00  0.00    +0.011 C 
ATOM      4  C   UNL     1       1.665   0.232  -1.499  0.00  0.00    -0.023 C 
ATOM      5  C   UNL     1       1.762   1.757  -1.559  0.00  0.00    +0.007 C 
ATOM      6  C   UNL     1       3.232   2.177  -1.525  0.00  0.00    +0.031 C 
ATOM      7  C   UNL     1       3.329   3.703  -1.585  0.00  0.00    +0.017 C 
ATOM      8  C   UNL     1       1.031   2.362  -0.359  0.00  0.00    +0.007 C 
ATOM      9  C   UNL     1      -0.440   1.942  -0.393  0.00  0.00    +0.032 C 
ATOM     10  C   UNL     1      -0.537   0.417  -0.333  0.00  0.00    +0.119 C 
ATOM     11  C   UNL     1       0.194  -0.188  -1.533  0.00  0.00    +0.032 C 
ATOM     12  C   UNL     1       2.396  -0.373  -2.699  0.00  0.00    +0.012 C 
ENDROOT
BRANCH  10  13
ATOM     13  O   UNL     1      -1.911   0.025  -0.365  0.00  0.00    -0.391 OA
ATOM     14  H   UNL     1      -2.436   0.373   0.368  0.00  0.00    +0.210 HD
ENDBRANCH  10  13
BRANCH   1  15
ATOM     15  O   UNL     1       5.272   2.074  -0.198  0.00  0.00    -0.446 OA
BRANCH  15  17
ATOM     16  N   UNL     1       7.109   2.664   1.114  0.00  0.00    -0.281 N 
ATOM     17  C   UNL     1       5.817   2.292   1.013  0.00  0.00    +0.401 C 
ATOM     18  O   UNL     1       5.146   2.153   2.016  0.00  0.00    -0.226 OA
ATOM     19  H   UNL     1       7.645   2.775   0.313  0.00  0.00    +0.152 HD
BRANCH  16  21
ATOM     20  C   UNL     1       9.168   3.309   2.266  0.00  0.00    +0.024 C 
ATOM     21  C   UNL     1       7.702   2.901   2.432  0.00  0.00    +0.104 C 
ENDBRANCH  16  21
ENDBRANCH  15  17
ENDBRANCH   1  15
BRANCH   6  22
ATOM     22  C   UNL     1       3.963   1.572  -2.725  0.00  0.00    +0.166 C 
BRANCH  22  23
ATOM     23  O   UNL     1       5.283   2.116  -2.803  0.00  0.00    -0.394 OA
ATOM     24  H   UNL     1       5.805   1.776  -3.542  0.00  0.00    +0.209 HD
ENDBRANCH  22  23
ENDBRANCH   6  22
BRANCH  11  25
ATOM     25  C   UNL     1      -0.449   0.313  -2.828  0.00  0.00    +0.102 C 
BRANCH  25  26
ATOM     26  C   UNL     1      -1.806  -0.323  -2.993  0.00  0.00    +0.214 C 
ATOM     27  O   UNL     1      -2.150  -1.220  -2.253  0.00  0.00    -0.276 OA
ATOM     28  N   UNL     1      -2.637   0.106  -3.963  0.00  0.00    -0.311 N 
ATOM     29  H   UNL     1      -2.362   0.824  -4.556  0.00  0.00    +0.149 HD
BRANCH  28  30
ATOM     30  C   UNL     1      -3.956  -0.511  -4.124  0.00  0.00    +0.143 C 
BRANCH  30  31
ATOM     31  C   UNL     1      -4.681   0.145  -5.271  0.00  0.00    +0.011 A 
ATOM     32  C   UNL     1      -5.637   1.110  -5.022  0.00  0.00    +0.009 A 
ATOM     33  C   UNL     1      -6.303   1.713  -6.073  0.00  0.00    +0.001 A 
ATOM     34  C   UNL     1      -6.013   1.351  -7.376  0.00  0.00    +0.004 A 
ATOM     35  C   UNL     1      -5.058   0.386  -7.630  0.00  0.00    +0.046 A 
ATOM     36  C   UNL     1      -4.386  -0.216  -6.577  0.00  0.00    +0.125 A 
BRANCH  36  37
ATOM     37  O   UNL     1      -3.441  -1.162  -6.824  0.00  0.00    -0.495 OA
ATOM     38  C   UNL     1      -3.189  -1.484  -8.194  0.00  0.00    +0.277 C 
ENDBRANCH  36  37
ENDBRANCH  30  31
ENDBRANCH  28  30
ENDBRANCH  25  26
ENDBRANCH  11  25
TORSDOF 11
