REMARK  Name = ZINC30514371
REMARK  10 active torsions:
REMARK  status: ('A' for Active; 'I' for Inactive)
REMARK    1  A    between atoms: C_1  and  C_2
REMARK    2  A    between atoms: C_2  and  C_4
REMARK    3  A    between atoms: C_2  and  N_14
REMARK    4  A    between atoms: N_9  and  C_10
REMARK    5  A    between atoms: C_10  and  C_11
REMARK    6  A    between atoms: C_10  and  C_12
REMARK    7  A    between atoms: C_10  and  C_13
REMARK    8  A    between atoms: N_14  and  C_15
REMARK    9  A    between atoms: C_15  and  C_16
REMARK   10  A    between atoms: C_16  and  N_21
REMARK                            x       y       z     vdW  Elec       q    Type
REMARK                         _______ _______ _______ _____ _____    ______ ____
ROOT
ATOM      1  N   UNL     1      -2.595   0.970   0.433  0.00  0.00    -0.307 NA
ATOM      2  H   UNL     1      -2.262   0.002   0.030  0.00  0.00    +0.123 HD
ENDROOT
BRANCH   1   4
ATOM      3  C   UNL     1      -1.722   2.930   1.613  0.00  0.00    +0.034 C 
ATOM      4  C   UNL     1      -1.446   1.879   0.536  0.00  0.00    +0.138 C 
BRANCH   4   5
ATOM      5  C   UNL     1      -0.215   1.092   0.906  0.00  0.00    +0.237 C 
ATOM      6  O   UNL     1      -0.288  -0.107   1.067  0.00  0.00    -0.274 OA
ATOM      7  N   UNL     1       0.968   1.721   1.052  0.00  0.00    -0.239 N 
ATOM      8  C   UNL     1       2.070   1.017   1.377  0.00  0.00    +0.306 C 
ATOM      9  O   UNL     1       1.997  -0.185   1.539  0.00  0.00    -0.252 OA
ATOM     10  N   UNL     1       3.253   1.646   1.523  0.00  0.00    -0.294 N 
ATOM     11  H   UNL     1       1.034   2.809   0.906  0.00  0.00    +0.159 HD
ATOM     12  H   UNL     1       3.320   2.734   1.377  0.00  0.00    +0.151 HD
BRANCH  10  13
ATOM     13  C   UNL     1       4.451   0.880   1.877  0.00  0.00    +0.028 C 
ATOM     14  C   UNL     1       4.722  -0.171   0.798  0.00  0.00    +0.031 C 
ATOM     15  C   UNL     1       5.649   1.826   1.979  0.00  0.00    +0.031 C 
ATOM     16  C   UNL     1       4.234   0.185   3.222  0.00  0.00    +0.031 C 
ENDBRANCH  10  13
ENDBRANCH   4   5
ENDBRANCH   1   4
BRANCH   1  17
ATOM     17  C   UNL     1      -3.624   1.522  -0.459  0.00  0.00    +0.069 C 
BRANCH  17  18
ATOM     18  C   UNL     1      -4.739   0.491  -0.650  0.00  0.00    -0.053 C 
ATOM     19  C   UNL     1      -5.894   1.108  -1.465  0.00  0.00    -0.011 C 
ATOM     20  C   UNL     1      -7.172   0.508  -0.827  0.00  0.00    -0.001 C 
ATOM     21  C   UNL     1      -6.820   0.481   0.681  0.00  0.00    -0.001 C 
ATOM     22  C   UNL     1      -5.328   0.092   0.715  0.00  0.00    -0.011 C 
BRANCH  18  23
ATOM     23  N   UNL     1      -4.214  -0.696  -1.338  0.00  0.00    +0.385 N 
ATOM     24  C   UNL     1      -3.266  -1.419  -0.487  0.00  0.00    -0.067 C 
ATOM     25  C   UNL     1      -3.088  -2.850  -1.007  0.00  0.00    +0.050 C 
ATOM     26  S   UNL     1      -2.412  -2.767  -2.695  0.00  0.00    -0.164 S 
ATOM     27  C   UNL     1      -3.531  -1.591  -3.518  0.00  0.00    +0.050 C 
ATOM     28  C   UNL     1      -3.646  -0.339  -2.640  0.00  0.00    -0.067 C 
ATOM     29  H   UNL     1      -5.048  -1.385  -1.537  0.00  0.00    -0.081 HD
ENDBRANCH  18  23
ENDBRANCH  17  18
ENDBRANCH   1  17
TORSDOF 6
