REMARK  Name = ZINC05894631
REMARK  6 active torsions:
REMARK  status: ('A' for Active; 'I' for Inactive)
REMARK    1  A    between atoms: C_4  and  N_11
REMARK    2  A    between atoms: C_5  and  C_7
REMARK    3  A    between atoms: N_11  and  C_12
REMARK    4  A    between atoms: C_12  and  N_14
REMARK    5  A    between atoms: N_14  and  N_15
REMARK    6  A    between atoms: C_16  and  C_18
REMARK                            x       y       z     vdW  Elec       q    Type
REMARK                         _______ _______ _______ _____ _____    ______ ____
ROOT
ATOM      1  N   UNL     1      -6.475   1.076   0.974  0.00  0.00    -0.246 N 
ATOM      2  H   UNL     1      -6.817   0.677   0.160  0.00  0.00    +0.172 HD
ENDROOT
BRANCH   1   3
ATOM      3  N   UNL     1      -5.103   1.329   1.107  0.00  0.00    -0.235 N 
ATOM      4  C   UNL     1      -4.260   1.017   0.103  0.00  0.00    +0.235 C 
ATOM      5  O   UNL     1      -4.689   0.518  -0.916  0.00  0.00    -0.274 OA
ATOM      6  H   UNL     1      -4.760   1.729   1.922  0.00  0.00    +0.173 HD
BRANCH   4   7
ATOM      7  C   UNL     1      -2.785   1.290   0.246  0.00  0.00    +0.049 C 
ATOM      8  C   UNL     1      -2.059   0.846  -1.026  0.00  0.00    +0.019 C 
ATOM      9  C   UNL     1      -0.561   1.122  -0.881  0.00  0.00    -0.009 C 
ATOM     10  C   UNL     1      -0.013   0.344   0.317  0.00  0.00    +0.007 C 
ATOM     11  C   UNL     1      -0.739   0.788   1.589  0.00  0.00    -0.009 C 
ATOM     12  C   UNL     1      -2.236   0.512   1.444  0.00  0.00    +0.019 C 
ATOM     13  C   UNL     1      -0.515   2.285   1.808  0.00  0.00    +0.007 C 
ATOM     14  C   UNL     1      -1.063   3.063   0.610  0.00  0.00    -0.009 C 
ATOM     15  C   UNL     1      -0.337   2.620  -0.662  0.00  0.00    +0.007 C 
ATOM     16  C   UNL     1      -2.561   2.787   0.465  0.00  0.00    +0.019 C 
ENDBRANCH   4   7
ENDBRANCH   1   3
BRANCH   1  17
ATOM     17  C   UNL     1      -7.318   1.388   1.978  0.00  0.00    +0.151 C 
ATOM     18  S   UNL     1      -8.994   1.079   1.816  0.00  0.00    -0.017 S 
BRANCH  17  19
ATOM     19  N   UNL     1      -6.841   1.943   3.111  0.00  0.00    -0.295 N 
ATOM     20  H   UNL     1      -5.886   2.060   3.228  0.00  0.00    +0.154 HD
BRANCH  19  24
ATOM     21  C   UNL     1      -9.473   3.155   6.104  0.00  0.00    +0.001 A 
ATOM     22  C   UNL     1      -9.608   1.902   5.532  0.00  0.00    +0.002 A 
ATOM     23  C   UNL     1      -8.740   1.500   4.536  0.00  0.00    +0.024 A 
ATOM     24  C   UNL     1      -7.725   2.350   4.115  0.00  0.00    +0.044 A 
ATOM     25  C   UNL     1      -7.594   3.607   4.691  0.00  0.00    +0.076 A 
ATOM     26  C   UNL     1      -8.468   4.006   5.683  0.00  0.00    +0.014 A 
BRANCH  25  27
ATOM     27  C   UNL     1      -6.498   4.535   4.233  0.00  0.00    +0.419 C 
ATOM     28  F   UNL     1      -6.569   5.732   4.954  0.00  0.00    -0.166 F 
ATOM     29  F   UNL     1      -5.255   3.932   4.450  0.00  0.00    -0.166 F 
ATOM     30  F   UNL     1      -6.654   4.803   2.869  0.00  0.00    -0.166 F 
ENDBRANCH  25  27
ENDBRANCH  19  24
ENDBRANCH  17  19
ENDBRANCH   1  17
TORSDOF 6
