REMARK  Name = ZINC64137198
REMARK  7 active torsions:
REMARK  status: ('A' for Active; 'I' for Inactive)
REMARK    1  A    between atoms: C_1  and  C_2
REMARK    2  A    between atoms: C_2  and  C_3
REMARK    3  A    between atoms: C_11  and  C_13
REMARK    4  A    between atoms: C_13  and  C_14
REMARK    5  A    between atoms: C_14  and  C_15
REMARK    6  A    between atoms: C_18  and  C_20
REMARK    7  A    between atoms: C_20  and  C_21
REMARK                            x       y       z     vdW  Elec       q    Type
REMARK                         _______ _______ _______ _____ _____    ______ ____
ROOT
ATOM      1  C   UNL     1      -5.218   2.731   3.773  0.00  0.00    +0.218 A 
ATOM      2  N   UNL     1      -4.770   3.582   4.652  0.00  0.00    -0.112 NA
ATOM      3  N   UNL     1      -5.578   3.629   5.651  0.00  0.00    -0.112 NA
ATOM      4  C   UNL     1      -6.570   2.810   5.444  0.00  0.00    +0.221 A 
ATOM      5  O   UNL     1      -6.369   2.227   4.251  0.00  0.00    -0.424 OA
ENDROOT
BRANCH   1   6
ATOM      6  C   UNL     1      -4.569   2.380   2.459  0.00  0.00    +0.107 C 
BRANCH   6   7
ATOM      7  C   UNL     1      -3.616   1.200   2.659  0.00  0.00    +0.105 C 
BRANCH   7  15
ATOM      8  C   UNL     1      -1.433  -0.534   0.013  0.00  0.00    +0.162 C 
ATOM      9  C   UNL     1      -1.418  -2.033  -0.113  0.00  0.00    +0.234 C 
ATOM     10  O   UNL     1      -1.138  -2.520  -1.188  0.00  0.00    -0.274 OA
ATOM     11  N   UNL     1      -1.698  -2.850   0.903  0.00  0.00    -0.312 N 
ATOM     12  C   UNL     1      -2.138  -2.412   2.220  0.00  0.00    +0.123 C 
ATOM     13  C   UNL     1      -1.730  -0.959   2.472  0.00  0.00    +0.127 C 
ATOM     14  N   UNL     1      -2.084  -0.166   1.279  0.00  0.00    -0.288 N 
ATOM     15  C   UNL     1      -2.967   0.850   1.345  0.00  0.00    +0.217 C 
ATOM     16  O   UNL     1      -3.240   1.482   0.347  0.00  0.00    -0.276 OA
ATOM     17  H   UNL     1      -1.603  -3.804   0.754  0.00  0.00    +0.149 HD
BRANCH   8  19
ATOM     18  C   UNL     1      -0.019   1.526   0.010  0.00  0.00    +0.006 C 
ATOM     19  C   UNL     1       0.002  -0.004   0.002  0.00  0.00    +0.028 C 
ENDBRANCH   8  19
ENDBRANCH   7  15
ENDBRANCH   6   7
ENDBRANCH   1   6
BRANCH   4  20
ATOM     20  C   UNL     1      -7.733   2.566   6.371  0.00  0.00    +0.130 C 
BRANCH  20  21
ATOM     21  C   UNL     1      -8.848   3.525   6.042  0.00  0.00    -0.033 C 
ATOM     22  C   UNL     1      -9.911   3.292   5.240  0.00  0.00    -0.001 A 
ATOM     23  C   UNL     1     -10.332   2.120   4.462  0.00  0.00    +0.010 A 
ATOM     24  C   UNL     1     -11.471   2.189   3.737  0.00  0.00    +0.001 A 
ATOM     25  C   UNL     1     -12.259   3.348   3.709  0.00  0.00    +0.002 A 
ATOM     26  C   UNL     1     -11.938   4.464   4.398  0.00  0.00    +0.026 A 
ATOM     27  C   UNL     1     -10.760   4.503   5.195  0.00  0.00    +0.043 A 
ATOM     28  N   UNL     1     -10.242   5.449   5.940  0.00  0.00    -0.380 N 
ATOM     29  C   UNL     1      -9.007   4.941   6.548  0.00  0.00    +0.145 C 
ATOM     30  H   UNL     1     -10.615   6.335   6.071  0.00  0.00    +0.160 HD
ENDBRANCH  20  21
ENDBRANCH   4  20
TORSDOF 6
