REMARK  Name = ZINC20697797
REMARK  6 active torsions:
REMARK  status: ('A' for Active; 'I' for Inactive)
REMARK    1  A    between atoms: C_1  and  C_2
REMARK    2  A    between atoms: C_4  and  N_27
REMARK    3  A    between atoms: C_9  and  C_18
REMARK    4  A    between atoms: C_21  and  C_24
REMARK    5  A    between atoms: C_24  and  C_25
REMARK    6  A    between atoms: C_24  and  C_26
REMARK                            x       y       z     vdW  Elec       q    Type
REMARK                         _______ _______ _______ _____ _____    ______ ____
ROOT
ATOM      1  C   UNL     1       1.596  -1.406   3.689  0.00  0.00    +0.046 C 
ATOM      2  C   UNL     1       2.113  -0.140   3.055  0.00  0.00    -0.027 A 
ATOM      3  C   UNL     1       3.135   0.556   3.662  0.00  0.00    +0.038 A 
ATOM      4  C   UNL     1       3.619   1.720   3.093  0.00  0.00    +0.127 A 
ATOM      5  C   UNL     1       3.077   2.177   1.906  0.00  0.00    +0.038 A 
ATOM      6  C   UNL     1       2.059   1.482   1.288  0.00  0.00    -0.017 A 
ATOM      7  C   UNL     1       1.551   0.312   1.860  0.00  0.00    +0.034 A 
ATOM      8  N   UNL     1       0.510  -0.436   1.314  0.00  0.00    -0.336 N 
ATOM      9  C   UNL     1       0.002  -0.004   0.002  0.00  0.00    +0.105 C 
ATOM     10  C   UNL     1      -0.018   1.510   0.010  0.00  0.00    +0.029 C 
ATOM     11  C   UNL     1       1.486   1.925  -0.002  0.00  0.00    +0.049 C 
ATOM     12  C   UNL     1       1.436   3.352  -0.406  0.00  0.00    -0.023 C 
ATOM     13  C   UNL     1       0.355   3.542  -1.155  0.00  0.00    -0.030 C 
ATOM     14  C   UNL     1      -0.431   2.233  -1.276  0.00  0.00    +0.033 C 
ATOM     15  H   UNL     1       0.068  -1.311   1.814  0.00  0.00    +0.147 HD
ENDROOT
BRANCH   9  16
ATOM     16  C   UNL     1      -1.392  -0.536  -0.210  0.00  0.00    -0.027 A 
ATOM     17  C   UNL     1      -2.276  -0.599   0.851  0.00  0.00    +0.006 A 
ATOM     18  C   UNL     1      -3.556  -1.083   0.656  0.00  0.00    +0.004 A 
ATOM     19  C   UNL     1      -3.949  -1.512  -0.598  0.00  0.00    -0.045 A 
ATOM     20  C   UNL     1      -3.064  -1.453  -1.658  0.00  0.00    +0.004 A 
ATOM     21  C   UNL     1      -1.785  -0.965  -1.464  0.00  0.00    +0.006 A 
BRANCH  19  22
ATOM     22  C   UNL     1      -5.343  -2.043  -0.810  0.00  0.00    +0.013 C 
ATOM     23  C   UNL     1      -5.565  -3.265   0.084  0.00  0.00    +0.012 C 
ATOM     24  C   UNL     1      -6.362  -0.959  -0.454  0.00  0.00    +0.012 C 
ENDBRANCH  19  22
ENDBRANCH   9  16
BRANCH   4  25
ATOM     25  N   UNL     1       4.712   2.471   3.750  0.00  0.00    +0.056 N 
ATOM     26  O   UNL     1       5.187   2.065   4.795  0.00  0.00    -0.126 OA
ATOM     27  O   UNL     1       5.136   3.495   3.245  0.00  0.00    -0.126 OA
ENDBRANCH   4  25
TORSDOF 3
