REMARK  Name = ZINC33959477
REMARK  11 active torsions:
REMARK  status: ('A' for Active; 'I' for Inactive)
REMARK    1  A    between atoms: C_4  and  C_7
REMARK    2  A    between atoms: N_9  and  C_10
REMARK    3  A    between atoms: C_10  and  C_11
REMARK    4  A    between atoms: C_11  and  C_12
REMARK    5  A    between atoms: C_12  and  C_13
REMARK    6  A    between atoms: C_13  and  C_14
REMARK    7  A    between atoms: C_14  and  C_16
REMARK    8  A    between atoms: C_14  and  N_33
REMARK    9  A    between atoms: N_18  and  N_19
REMARK   10  A    between atoms: C_20  and  C_21
REMARK   11  A    between atoms: C_24  and  C_26
REMARK                            x       y       z     vdW  Elec       q    Type
REMARK                         _______ _______ _______ _____ _____    ______ ____
ROOT
ATOM      1  C   UNL     1       7.161  -7.248  -0.107  0.00  0.00    +0.145 C 
ENDROOT
BRANCH   1   2
ATOM      2  N   UNL     1       7.899  -6.966  -1.345  0.00  0.00    -0.287 NA
ATOM      3  C   UNL     1       7.105  -7.330  -2.527  0.00  0.00    +0.113 C 
ATOM      4  C   UNL     1       7.885  -6.965  -3.792  0.00  0.00    +0.175 C 
ATOM      5  O   UNL     1       9.155  -7.623  -3.769  0.00  0.00    -0.377 OA
ATOM      6  C   UNL     1       9.956  -7.291  -2.632  0.00  0.00    +0.175 C 
ATOM      7  C   UNL     1       9.196  -7.659  -1.355  0.00  0.00    +0.113 C 
ENDBRANCH   1   2
BRANCH   1   8
ATOM      8  C   UNL     1       7.003  -8.738   0.055  0.00  0.00    +0.249 C 
ATOM      9  O   UNL     1       6.996  -9.457  -0.922  0.00  0.00    -0.272 OA
ATOM     10  N   UNL     1       6.868  -9.272   1.286  0.00  0.00    -0.206 N 
ATOM     11  H   UNL     1       6.874  -8.697   2.067  0.00  0.00    +0.177 HD
BRANCH  10  12
ATOM     12  N   UNL     1       6.721 -10.657   1.436  0.00  0.00    -0.185 NA
ATOM     13  C   UNL     1       6.591 -11.172   2.624  0.00  0.00    +0.176 C 
BRANCH  13  14
ATOM     14  C   UNL     1       6.437 -12.620   2.781  0.00  0.00    +0.148 A 
ATOM     15  C   UNL     1       6.286 -13.292   3.974  0.00  0.00    +0.051 A 
ATOM     16  C   UNL     1       6.174 -14.653   3.660  0.00  0.00    +0.050 A 
ATOM     17  C   UNL     1       6.259 -14.759   2.303  0.00  0.00    +0.136 A 
ATOM     18  O   UNL     1       6.413 -13.527   1.783  0.00  0.00    -0.454 OA
BRANCH  17  19
ATOM     19  C   UNL     1       6.189 -16.016   1.532  0.00  0.00    +0.017 A 
ATOM     20  C   UNL     1       6.016 -17.235   2.192  0.00  0.00    +0.013 A 
ATOM     21  C   UNL     1       5.951 -18.405   1.465  0.00  0.00    +0.021 A 
ATOM     22  C   UNL     1       6.058 -18.374   0.085  0.00  0.00    +0.041 A 
ATOM     23  C   UNL     1       6.229 -17.169  -0.575  0.00  0.00    +0.021 A 
ATOM     24  C   UNL     1       6.291 -15.991   0.139  0.00  0.00    +0.013 A 
ATOM     25 CL   UNL     1       5.975 -19.852  -0.822  0.00  0.00    -0.084 Cl
ENDBRANCH  17  19
ENDBRANCH  13  14
ENDBRANCH  10  12
ENDBRANCH   1   8
BRANCH   1  26
ATOM     26  C   UNL     1       5.780  -6.593  -0.175  0.00  0.00    +0.028 C 
BRANCH  26  27
ATOM     27  C   UNL     1       5.939  -5.072  -0.214  0.00  0.00    +0.004 C 
BRANCH  27  28
ATOM     28  C   UNL     1       4.558  -4.416  -0.283  0.00  0.00    +0.019 C 
BRANCH  28  29
ATOM     29  C   UNL     1       4.717  -2.895  -0.322  0.00  0.00    +0.104 C 
BRANCH  29  32
ATOM     30  C   UNL     1       3.288  -0.925  -0.431  0.00  0.00    +0.244 C 
ATOM     31  O   UNL     1       4.288  -0.234  -0.415  0.00  0.00    -0.270 OA
ATOM     32  N   UNL     1       3.395  -2.268  -0.388  0.00  0.00    -0.311 N 
ATOM     33  H   UNL     1       2.597  -2.818  -0.400  0.00  0.00    +0.149 HD
BRANCH  30  37
ATOM     34  C   UNL     1      -0.546   0.895  -0.623  0.00  0.00    +0.000 A 
ATOM     35  C   UNL     1       0.591   1.683  -0.605  0.00  0.00    +0.001 A 
ATOM     36  C   UNL     1       1.839   1.099  -0.542  0.00  0.00    +0.013 A 
ATOM     37  C   UNL     1       1.953  -0.291  -0.497  0.00  0.00    +0.037 A 
ATOM     38  C   UNL     1       0.803  -1.081  -0.516  0.00  0.00    +0.013 A 
ATOM     39  C   UNL     1      -0.439  -0.484  -0.579  0.00  0.00    +0.001 A 
ENDBRANCH  30  37
ENDBRANCH  29  32
ENDBRANCH  28  29
ENDBRANCH  27  28
ENDBRANCH  26  27
ENDBRANCH   1  26
TORSDOF 11
