REMARK  Name = ZINC54642865
REMARK  9 active torsions:
REMARK  status: ('A' for Active; 'I' for Inactive)
REMARK    1  A    between atoms: C_1  and  C_2
REMARK    2  A    between atoms: C_7  and  N_8
REMARK    3  A    between atoms: C_9  and  C_11
REMARK    4  A    between atoms: C_12  and  C_38
REMARK    5  A    between atoms: C_16  and  S_30
REMARK    6  A    between atoms: C_19  and  C_21
REMARK    7  A    between atoms: C_24  and  C_27
REMARK    8  A    between atoms: S_30  and  C_31
REMARK    9  A    between atoms: C_31  and  C_32
REMARK                            x       y       z     vdW  Elec       q    Type
REMARK                         _______ _______ _______ _____ _____    ______ ____
ROOT
ATOM      1  C   UNL     1       0.114   0.173   4.707  0.00  0.00    +0.060 C 
ATOM      2  C   UNL     1       0.202  -0.453   5.890  0.00  0.00    +0.018 C 
ATOM      3  N   UNL     1       0.226   0.232   7.080  0.00  0.00    -0.287 N 
ATOM      4  C   UNL     1      -0.107   1.580   7.048  0.00  0.00    +0.219 A 
ATOM      5  N   UNL     1      -0.377   2.401   8.026  0.00  0.00    -0.187 NA
ATOM      6  C   UNL     1      -0.652   3.616   7.527  0.00  0.00    +0.211 A 
ATOM      7  N   UNL     1      -0.555   3.572   6.215  0.00  0.00    -0.141 NA
ATOM      8  N   UNL     1      -0.201   2.266   5.883  0.00  0.00    -0.220 N 
ATOM      9  C   UNL     1       0.052   1.671   4.572  0.00  0.00    +0.177 C 
ATOM     10  C   UNL     1       0.277  -1.958   5.914  0.00  0.00    +0.061 C 
ATOM     11  H   UNL     1       0.466  -0.208   7.910  0.00  0.00    +0.155 HD
ENDROOT
BRANCH   9  12
ATOM     12  C   UNL     1       1.361   2.181   4.027  0.00  0.00    -0.018 A 
ATOM     13  C   UNL     1       2.534   1.950   4.724  0.00  0.00    +0.007 A 
ATOM     14  C   UNL     1       3.736   2.414   4.231  0.00  0.00    +0.015 A 
ATOM     15  C   UNL     1       3.767   3.119   3.025  0.00  0.00    +0.063 A 
ATOM     16  C   UNL     1       2.579   3.348   2.327  0.00  0.00    +0.015 A 
ATOM     17  C   UNL     1       1.385   2.873   2.829  0.00  0.00    +0.007 A 
BRANCH  15  18
ATOM     18  C   UNL     1       5.048   3.620   2.492  0.00  0.00    +0.387 C 
ATOM     19  O   UNL     1       6.087   3.418   3.106  0.00  0.00    -0.241 OA
ATOM     20  O   UNL     1       5.072   4.236   1.436  0.00  0.00    -0.241 OA
ENDBRANCH  15  18
ENDBRANCH   9  12
BRANCH   1  22
ATOM     21  N   UNL     1       1.198  -1.247   3.115  0.00  0.00    -0.281 N 
ATOM     22  C   UNL     1       0.085  -0.612   3.530  0.00  0.00    +0.248 C 
ATOM     23  O   UNL     1      -0.948  -0.713   2.891  0.00  0.00    -0.270 OA
ATOM     24  H   UNL     1       2.005  -1.213   3.653  0.00  0.00    +0.155 HD
BRANCH  21  31
ATOM     25  C   UNL     1       3.579  -1.271   1.556  0.00  0.00    +0.045 C 
ATOM     26  C   UNL     1       2.332  -1.994   1.118  0.00  0.00    -0.029 A 
ATOM     27  C   UNL     1       2.323  -2.700  -0.069  0.00  0.00    +0.005 A 
ATOM     28  C   UNL     1       1.179  -3.365  -0.472  0.00  0.00    +0.000 A 
ATOM     29  C   UNL     1       0.040  -3.324   0.311  0.00  0.00    +0.002 A 
ATOM     30  C   UNL     1       0.042  -2.620   1.499  0.00  0.00    +0.023 A 
ATOM     31  C   UNL     1       1.191  -1.956   1.910  0.00  0.00    +0.037 A 
ENDBRANCH  21  31
ENDBRANCH   1  22
BRANCH   6  32
ATOM     32  S   UNL     1      -1.075   5.039   8.475  0.00  0.00    -0.080 S 
BRANCH  32  33
ATOM     33  C   UNL     1      -1.038   4.451  10.191  0.00  0.00    +0.112 C 
BRANCH  33  34
ATOM     34  C   UNL     1      -1.387   5.586  11.119  0.00  0.00    -0.037 A 
ATOM     35  C   UNL     1      -0.390   6.403  11.616  0.00  0.00    +0.004 A 
ATOM     36  C   UNL     1      -0.709   7.444  12.467  0.00  0.00    +0.000 A 
ATOM     37  C   UNL     1      -2.027   7.668  12.821  0.00  0.00    +0.000 A 
ATOM     38  C   UNL     1      -3.024   6.851  12.323  0.00  0.00    +0.000 A 
ATOM     39  C   UNL     1      -2.705   5.812  11.469  0.00  0.00    +0.004 A 
ENDBRANCH  33  34
ENDBRANCH  32  33
ENDBRANCH   6  32
TORSDOF 7
