REMARK  Name = ZINC02692969
REMARK  8 active torsions:
REMARK  status: ('A' for Active; 'I' for Inactive)
REMARK    1  A    between atoms: C_1  and  N_2
REMARK    2  A    between atoms: C_8  and  C_20
REMARK    3  A    between atoms: N_9  and  C_16
REMARK    4  A    between atoms: C_16  and  C_17
REMARK    5  A    between atoms: C_17  and  N_62
REMARK    6  A    between atoms: C_18  and  N_62
REMARK    7  A    between atoms: C_19  and  N_62
REMARK    8  A    between atoms: N_28  and  C_31
REMARK                            x       y       z     vdW  Elec       q    Type
REMARK                         _______ _______ _______ _____ _____    ______ ____
ROOT
ATOM      1  C   UNL     1      -6.188  -1.717  -3.802  0.00  0.00    +0.143 C 
ATOM      2  N   UNL     1      -5.832  -0.420  -3.222  0.00  0.00    -0.224 N 
ATOM      3  C   UNL     1      -5.254  -0.370  -2.005  0.00  0.00    +0.259 C 
ATOM      4  O   UNL     1      -5.028  -1.396  -1.387  0.00  0.00    -0.269 OA
ATOM      5  C   UNL     1      -4.916   0.888  -1.455  0.00  0.00    +0.107 C 
ATOM      6  C   UNL     1      -4.287   0.986  -0.134  0.00  0.00    -0.001 C 
ATOM      7  C   UNL     1      -4.767   1.905   0.812  0.00  0.00    +0.033 C 
ATOM      8  C   UNL     1      -4.151   1.971   2.043  0.00  0.00    +0.041 C 
ATOM      9  N   UNL     1      -3.099   1.157   2.322  0.00  0.00    -0.305 N 
ATOM     10  C   UNL     1      -2.617   0.261   1.413  0.00  0.00    +0.015 C 
ATOM     11  C   UNL     1      -3.189   0.152   0.199  0.00  0.00    -0.022 C 
ATOM     12  C   UNL     1      -2.719  -0.826  -0.847  0.00  0.00    +0.037 C 
ATOM     13  C   UNL     1      -1.311  -1.324  -0.526  0.00  0.00    +0.005 C 
ATOM     14  C   UNL     1      -1.292  -1.800   0.932  0.00  0.00    +0.006 C 
ATOM     15  C   UNL     1      -1.437  -0.579   1.836  0.00  0.00    +0.051 C 
ATOM     16  C   UNL     1      -5.204   2.050  -2.208  0.00  0.00    +0.259 C 
ATOM     17  O   UNL     1      -4.933   3.154  -1.768  0.00  0.00    -0.269 OA
ATOM     18  N   UNL     1      -5.778   1.920  -3.421  0.00  0.00    -0.224 N 
ATOM     19  C   UNL     1      -6.086   0.707  -3.910  0.00  0.00    +0.317 C 
ATOM     20  O   UNL     1      -6.607   0.626  -5.006  0.00  0.00    -0.252 OA
ATOM     21  C   UNL     1      -6.077   3.116  -4.212  0.00  0.00    +0.143 C 
ENDROOT
BRANCH   8  22
ATOM     22  C   UNL     1      -4.635   2.928   3.060  0.00  0.00    -0.004 A 
ATOM     23  C   UNL     1      -5.960   2.879   3.494  0.00  0.00    +0.010 A 
ATOM     24  C   UNL     1      -6.404   3.771   4.449  0.00  0.00    +0.001 A 
ATOM     25  C   UNL     1      -5.541   4.721   4.967  0.00  0.00    +0.000 A 
ATOM     26  C   UNL     1      -4.227   4.778   4.537  0.00  0.00    +0.001 A 
ATOM     27  C   UNL     1      -3.769   3.888   3.587  0.00  0.00    +0.010 A 
ENDBRANCH   8  22
BRANCH   9  28
ATOM     28  C   UNL     1      -2.462   1.245   3.638  0.00  0.00    +0.092 C 
BRANCH  28  29
ATOM     29  C   UNL     1      -3.225   0.368   4.633  0.00  0.00    -0.060 C 
BRANCH  29  32
ATOM     30  C   UNL     1      -3.493  -0.120   6.990  0.00  0.00    -0.097 C 
ATOM     31  C   UNL     1      -1.275   0.091   6.041  0.00  0.00    -0.097 C 
ATOM     32  N   UNL     1      -2.668   0.583   5.985  0.00  0.00    +0.377 N 
ATOM     33  H   UNL     1      -2.675   1.589   6.192  0.00  0.00    -0.083 HD
ENDBRANCH  29  32
ENDBRANCH  28  29
ENDBRANCH   9  28
TORSDOF 4
