REMARK  Name = ZINC14075775
REMARK  10 active torsions:
REMARK  status: ('A' for Active; 'I' for Inactive)
REMARK    1  A    between atoms: C_1  and  C_2
REMARK    2  A    between atoms: C_2  and  C_3
REMARK    3  A    between atoms: C_6  and  C_9
REMARK    4  A    between atoms: C_13  and  S_15
REMARK    5  A    between atoms: S_15  and  C_16
REMARK    6  A    between atoms: C_16  and  C_17
REMARK    7  A    between atoms: N_19  and  C_20
REMARK    8  A    between atoms: C_20  and  C_21
REMARK    9  A    between atoms: N_23  and  C_24
REMARK   10  A    between atoms: C_29  and  C_30
REMARK                            x       y       z     vdW  Elec       q    Type
REMARK                         _______ _______ _______ _____ _____    ______ ____
ROOT
ATOM      1  C   UNL     1      -8.986  -3.303  -4.442  0.00  0.00    +0.224 C 
ATOM      2  O   UNL     1     -10.077  -3.697  -4.092  0.00  0.00    -0.275 OA
ATOM      3  N   UNL     1      -8.693  -3.207  -5.755  0.00  0.00    -0.306 N 
ATOM      4  H   UNL     1      -7.820  -2.891  -6.035  0.00  0.00    +0.149 HD
ENDROOT
BRANCH   1   5
ATOM      5  C   UNL     1      -7.956  -2.919  -3.411  0.00  0.00    +0.173 C 
BRANCH   5   6
ATOM      6  S   UNL     1      -8.646  -3.156  -1.750  0.00  0.00    -0.077 S 
BRANCH   6  11
ATOM      7  C   UNL     1      -5.415  -1.964   0.044  0.00  0.00    +0.182 A 
ATOM      8  N   UNL     1      -6.129  -2.215   1.118  0.00  0.00    -0.152 NA
ATOM      9  H   UNL     1      -8.129  -2.943   1.235  0.00  0.00    +0.191 HD
ATOM     10  N   UNL     1      -7.381  -2.675   0.678  0.00  0.00    -0.253 N 
ATOM     11  C   UNL     1      -7.339  -2.671  -0.672  0.00  0.00    +0.185 A 
ATOM     12  N   UNL     1      -6.154  -2.236  -1.042  0.00  0.00    -0.201 NA
BRANCH   7  16
ATOM     13  C   UNL     1      -1.420  -0.510   0.015  0.00  0.00    -0.048 A 
ATOM     14  C   UNL     1      -2.061  -0.740   1.219  0.00  0.00    +0.004 A 
ATOM     15  C   UNL     1      -3.357  -1.212   1.234  0.00  0.00    +0.012 A 
ATOM     16  C   UNL     1      -4.021  -1.456   0.034  0.00  0.00    +0.021 A 
ATOM     17  C   UNL     1      -3.371  -1.223  -1.176  0.00  0.00    +0.012 A 
ATOM     18  C   UNL     1      -2.076  -0.746  -1.180  0.00  0.00    +0.004 A 
BRANCH  13  20
ATOM     19  C   UNL     1      -0.017   1.534   0.004  0.00  0.00    +0.009 C 
ATOM     20  C   UNL     1      -0.003   0.004   0.004  0.00  0.00    +0.032 C 
ENDBRANCH  13  20
ENDBRANCH   7  16
ENDBRANCH   6  11
ENDBRANCH   5   6
ENDBRANCH   1   5
BRANCH   3  21
ATOM     21  C   UNL     1      -9.694  -3.580  -6.757  0.00  0.00    +0.200 C 
BRANCH  21  22
ATOM     22  C   UNL     1      -9.121  -3.383  -8.137  0.00  0.00    +0.234 C 
ATOM     23  O   UNL     1      -7.988  -2.971  -8.270  0.00  0.00    -0.274 OA
ATOM     24  N   UNL     1      -9.867  -3.664  -9.223  0.00  0.00    -0.284 N 
ATOM     25  H   UNL     1     -10.743  -4.068  -9.119  0.00  0.00    +0.155 HD
BRANCH  24  26
ATOM     26  C   UNL     1      -9.379  -3.373 -10.502  0.00  0.00    +0.036 A 
ATOM     27  C   UNL     1      -8.428  -2.375 -10.673  0.00  0.00    +0.024 A 
ATOM     28  C   UNL     1      -7.948  -2.090 -11.936  0.00  0.00    +0.017 A 
ATOM     29  C   UNL     1      -8.414  -2.797 -13.031  0.00  0.00    +0.018 A 
ATOM     30  C   UNL     1      -9.361  -3.791 -12.863  0.00  0.00    +0.020 A 
ATOM     31  C   UNL     1      -9.841  -4.084 -11.601  0.00  0.00    -0.028 A 
ATOM     32  C   UNL     1     -10.868  -5.172 -11.419  0.00  0.00    +0.046 C 
ATOM     33 BR   UNL     1      -7.755  -2.403 -14.759  0.00  0.00    -0.050 Br
ENDBRANCH  24  26
ENDBRANCH  21  22
ENDBRANCH   3  21
TORSDOF 8
