REMARK  Name = ZINC39657075
REMARK  5 active torsions:
REMARK  status: ('A' for Active; 'I' for Inactive)
REMARK    1  A    between atoms: C_1  and  C_2
REMARK    2  A    between atoms: C_2  and  C_4
REMARK    3  A    between atoms: C_2  and  N_11
REMARK    4  A    between atoms: C_12  and  C_14
REMARK    5  A    between atoms: C_25  and  C_27
REMARK                            x       y       z     vdW  Elec       q    Type
REMARK                         _______ _______ _______ _____ _____    ______ ____
ROOT
ATOM      1  C   UNL     1      -3.052  -0.864  -1.454  0.00  0.00    +0.100 C 
ATOM      2  C   UNL     1      -3.993  -0.157  -0.453  0.00  0.00    +0.121 C 
ATOM      3  N   UNL     1      -4.819   0.746  -1.289  0.00  0.00    -0.296 N 
ATOM      4  C   UNL     1      -5.100  -0.041  -2.514  0.00  0.00    +0.115 C 
ATOM      5  C   UNL     1      -3.784  -0.790  -2.804  0.00  0.00    -0.004 C 
ATOM      6  C   UNL     1      -4.078  -2.194  -3.324  0.00  0.00    -0.010 C 
ATOM      7  C   UNL     1      -4.753  -2.095  -4.695  0.00  0.00    -0.082 C 
ATOM      8  N   UNL     1      -3.871  -1.381  -5.626  0.00  0.00    +0.379 N 
ATOM      9  C   UNL     1      -3.669  -0.002  -5.167  0.00  0.00    -0.082 C 
ATOM     10  C   UNL     1      -2.948  -0.012  -3.816  0.00  0.00    -0.010 C 
ATOM     11  C   UNL     1      -5.223   1.999  -1.002  0.00  0.00    +0.249 C 
ATOM     12  O   UNL     1      -5.980   2.581  -1.754  0.00  0.00    -0.270 OA
ATOM     13  H   UNL     1      -2.981  -1.853  -5.673  0.00  0.00    -0.086 HD
ATOM     14  H   UNL     1      -4.292  -1.370  -6.543  0.00  0.00    -0.086 HD
ENDROOT
BRANCH  11  15
ATOM     15  C   UNL     1      -4.747   2.664   0.228  0.00  0.00    +0.073 A 
ATOM     16  C   UNL     1      -4.535   1.921   1.391  0.00  0.00    +0.036 A 
ATOM     17  C   UNL     1      -4.090   2.550   2.536  0.00  0.00    +0.042 A 
ATOM     18  C   UNL     1      -3.853   3.915   2.534  0.00  0.00    +0.023 A 
ATOM     19  C   UNL     1      -4.060   4.658   1.388  0.00  0.00    +0.040 A 
ATOM     20  C   UNL     1      -4.501   4.041   0.231  0.00  0.00    +0.136 A 
ATOM     21  F   UNL     1      -4.698   4.767  -0.891  0.00  0.00    -0.205 F 
ATOM     22 CL   UNL     1      -3.827   1.627   3.983  0.00  0.00    -0.084 Cl
ENDBRANCH  11  15
BRANCH   1  24
ATOM     23  N   UNL     1      -0.613  -0.817  -1.866  0.00  0.00    -0.308 N 
ATOM     24  C   UNL     1      -1.731  -0.142  -1.532  0.00  0.00    +0.219 C 
ATOM     25  O   UNL     1      -1.674   1.046  -1.295  0.00  0.00    -0.275 OA
ATOM     26  H   UNL     1      -0.659  -1.768  -2.055  0.00  0.00    +0.149 HD
BRANCH  23  28
ATOM     27  C   UNL     1       1.301  -0.052  -0.549  0.00  0.00    +0.033 C 
ATOM     28  C   UNL     1       0.671  -0.116  -1.942  0.00  0.00    +0.100 C 
BRANCH  28  29
ATOM     29  C   UNL     1       1.593  -0.856  -2.877  0.00  0.00    -0.027 A 
ATOM     30  C   UNL     1       1.620  -2.238  -2.870  0.00  0.00    +0.006 A 
ATOM     31  C   UNL     1       2.465  -2.917  -3.728  0.00  0.00    +0.015 A 
ATOM     32  C   UNL     1       3.283  -2.213  -4.593  0.00  0.00    +0.018 A 
ATOM     33  C   UNL     1       3.255  -0.830  -4.600  0.00  0.00    +0.015 A 
ATOM     34  C   UNL     1       2.406  -0.152  -3.746  0.00  0.00    +0.006 A 
ATOM     35 BR   UNL     1       4.439  -3.141  -5.767  0.00  0.00    -0.050 Br
ENDBRANCH  28  29
ENDBRANCH  23  28
ENDBRANCH   1  24
TORSDOF 4
