REMARK  Name = ZINC19320645
REMARK  8 active torsions:
REMARK  status: ('A' for Active; 'I' for Inactive)
REMARK    1  A    between atoms: C_4  and  O_28
REMARK    2  A    between atoms: C_5  and  C_7
REMARK    3  A    between atoms: C_7  and  N_8
REMARK    4  A    between atoms: N_11  and  C_20
REMARK    5  A    between atoms: C_12  and  C_13
REMARK    6  A    between atoms: C_18  and  O_19
REMARK    7  A    between atoms: C_20  and  C_21
REMARK    8  A    between atoms: C_26  and  O_27
REMARK                            x       y       z     vdW  Elec       q    Type
REMARK                         _______ _______ _______ _____ _____    ______ ____
ROOT
ATOM      1  N   UNL     1       1.526  -2.773   1.359  0.00  0.00    +0.376 N 
ATOM      2  C   UNL     1       0.367  -2.473   2.243  0.00  0.00    -0.099 C 
ATOM      3  C   UNL     1       0.489  -3.576   3.325  0.00  0.00    -0.099 C 
ATOM      4  N   UNL     1       0.962  -4.756   2.565  0.00  0.00    +0.376 N 
ATOM      5  C   UNL     1       1.604  -4.250   1.337  0.00  0.00    -0.096 C 
ATOM      6  H   UNL     1       2.373  -2.382   1.742  0.00  0.00    -0.083 HD
ATOM      7  H   UNL     1       0.180  -5.348   2.326  0.00  0.00    -0.083 HD
ENDROOT
BRANCH   5   8
ATOM      8  C   UNL     1       3.046  -4.684   1.299  0.00  0.00    -0.036 A 
ATOM      9  C   UNL     1       4.029  -3.866   1.823  0.00  0.00    +0.004 A 
ATOM     10  C   UNL     1       5.352  -4.263   1.788  0.00  0.00    +0.000 A 
ATOM     11  C   UNL     1       5.697  -5.480   1.229  0.00  0.00    +0.004 A 
ATOM     12  C   UNL     1       4.719  -6.302   0.704  0.00  0.00    +0.045 A 
ATOM     13  C   UNL     1       3.389  -5.908   0.743  0.00  0.00    +0.117 A 
BRANCH  13  14
ATOM     14  O   UNL     1       2.424  -6.717   0.231  0.00  0.00    -0.507 OA
ATOM     15  H   UNL     1       2.295  -6.622  -0.722  0.00  0.00    +0.292 HD
ENDBRANCH  13  14
ENDBRANCH   5   8
BRANCH   1  16
ATOM     16  C   UNL     1       1.286  -2.253   0.006  0.00  0.00    -0.041 C 
BRANCH  16  21
ATOM     17  C   UNL     1       0.200   1.362   0.080  0.00  0.00    +0.000 A 
ATOM     18  C   UNL     1       1.416   2.020   0.079  0.00  0.00    +0.004 A 
ATOM     19  C   UNL     1       2.593   1.297   0.055  0.00  0.00    +0.045 A 
ATOM     20  C   UNL     1       2.554  -0.090   0.031  0.00  0.00    +0.118 A 
ATOM     21  C   UNL     1       1.332  -0.747   0.032  0.00  0.00    -0.023 A 
ATOM     22  C   UNL     1       0.158  -0.019   0.057  0.00  0.00    +0.005 A 
BRANCH  20  23
ATOM     23  O   UNL     1       3.710  -0.803   0.007  0.00  0.00    -0.507 OA
ATOM     24  H   UNL     1       4.054  -1.025   0.883  0.00  0.00    +0.292 HD
ENDBRANCH  20  23
ENDBRANCH  16  21
ENDBRANCH   1  16
BRANCH   4  25
ATOM     25  C   UNL     1       1.938  -5.508   3.366  0.00  0.00    -0.041 C 
BRANCH  25  26
ATOM     26  C   UNL     1       1.256  -6.077   4.583  0.00  0.00    -0.023 A 
ATOM     27  C   UNL     1       1.378  -5.442   5.804  0.00  0.00    +0.005 A 
ATOM     28  C   UNL     1       0.752  -5.963   6.922  0.00  0.00    +0.000 A 
ATOM     29  C   UNL     1       0.004  -7.121   6.821  0.00  0.00    +0.004 A 
ATOM     30  C   UNL     1      -0.121  -7.760   5.603  0.00  0.00    +0.045 A 
ATOM     31  C   UNL     1       0.501  -7.236   4.479  0.00  0.00    +0.118 A 
BRANCH  31  32
ATOM     32  O   UNL     1       0.375  -7.860   3.278  0.00  0.00    -0.507 OA
ATOM     33  H   UNL     1       1.056  -8.524   3.106  0.00  0.00    +0.292 HD
ENDBRANCH  31  32
ENDBRANCH  25  26
ENDBRANCH   4  25
TORSDOF 8
