REMARK  Name = ZINC63744059
REMARK  15 active torsions:
REMARK  status: ('A' for Active; 'I' for Inactive)
REMARK    1  A    between atoms: C_1  and  C_2
REMARK    2  A    between atoms: C_2  and  C_3
REMARK    3  A    between atoms: C_3  and  C_4
REMARK    4  A    between atoms: C_4  and  C_5
REMARK    5  A    between atoms: C_5  and  C_7
REMARK    6  A    between atoms: C_5  and  C_9
REMARK    7  A    between atoms: C_7  and  C_8
REMARK    8  A    between atoms: C_9  and  N_11
REMARK    9  A    between atoms: N_13  and  C_14
REMARK   10  A    between atoms: C_14  and  C_15
REMARK   11  A    between atoms: C_15  and  C_16
REMARK   12  A    between atoms: C_20  and  O_25
REMARK   13  A    between atoms: O_25  and  C_26
REMARK   14  A    between atoms: C_30  and  C_35
REMARK   15  A    between atoms: C_32  and  C_34
REMARK                            x       y       z     vdW  Elec       q    Type
REMARK                         _______ _______ _______ _____ _____    ______ ____
ROOT
ATOM      1  N   UNL     1      -4.790  -4.329  -0.420  0.00  0.00    -0.147 NA
ATOM      2  C   UNL     1      -4.987  -5.599  -0.092  0.00  0.00    +0.196 C 
ATOM      3  N   UNL     1      -3.952  -6.351   0.376  0.00  0.00    -0.357 N 
ATOM      4  N   UNL     1      -6.229  -6.153  -0.223  0.00  0.00    -0.297 N 
ATOM      5  C   UNL     1      -7.303  -5.366  -0.619  0.00  0.00    +0.231 A 
ATOM      6  N   UNL     1      -7.099  -4.088  -0.897  0.00  0.00    -0.217 NA
ATOM      7  C   UNL     1      -8.099  -3.311  -1.278  0.00  0.00    +0.044 A 
ATOM      8  C   UNL     1      -9.371  -3.850  -1.383  0.00  0.00    +0.046 A 
ATOM      9  C   UNL     1      -9.549  -5.191  -1.085  0.00  0.00    +0.044 A 
ATOM     10  N   UNL     1      -8.505  -5.914  -0.715  0.00  0.00    -0.217 NA
ATOM     11  C   UNL     1     -10.915  -5.821  -1.185  0.00  0.00    +0.066 C 
ATOM     12  C   UNL     1      -7.858  -1.856  -1.592  0.00  0.00    +0.066 C 
ATOM     13  H   UNL     1      -6.361  -7.096  -0.039  0.00  0.00    +0.171 HD
ATOM     14  H   UNL     1      -3.096  -5.934   0.561  0.00  0.00    +0.162 HD
ENDROOT
BRANCH   1  15
ATOM     15  C   UNL     1      -3.551  -3.853  -0.523  0.00  0.00    +0.242 C 
ATOM     16  O   UNL     1      -2.603  -4.557  -0.235  0.00  0.00    -0.273 OA
BRANCH  15  17
ATOM     17  C   UNL     1      -3.323  -2.441  -0.999  0.00  0.00    +0.077 C 
BRANCH  17  18
ATOM     18  C   UNL     1      -3.459  -2.388  -2.522  0.00  0.00    +0.009 C 
ATOM     19  C   UNL     1      -4.862  -2.846  -2.925  0.00  0.00    +0.004 C 
ENDBRANCH  17  18
BRANCH  17  20
ATOM     20  C   UNL     1      -1.919  -1.988  -0.595  0.00  0.00    +0.013 C 
BRANCH  20  21
ATOM     21  C   UNL     1      -1.732  -0.515  -0.967  0.00  0.00    +0.000 C 
BRANCH  21  23
ATOM     22  C   UNL     1      -0.141   1.411  -0.935  0.00  0.00    +0.004 C 
ATOM     23  C   UNL     1      -0.328  -0.061  -0.564  0.00  0.00    -0.003 C 
ENDBRANCH  21  23
ENDBRANCH  20  21
ENDBRANCH  17  20
ENDBRANCH  15  17
ENDBRANCH   1  15
BRANCH   3  24
ATOM     24  C   UNL     1      -4.132  -7.787   0.600  0.00  0.00    +0.120 C 
BRANCH  24  25
ATOM     25  C   UNL     1      -2.866  -8.367   1.232  0.00  0.00    +0.054 C 
BRANCH  25  26
ATOM     26  C   UNL     1      -3.003  -9.863   1.351  0.00  0.00    -0.040 C 
ATOM     27  C   UNL     1      -2.628 -10.788   0.440  0.00  0.00    -0.001 A 
ATOM     28  C   UNL     1      -2.002 -10.680  -0.885  0.00  0.00    +0.013 A 
ATOM     29  C   UNL     1      -1.739 -11.807  -1.581  0.00  0.00    +0.046 A 
ATOM     30  C   UNL     1      -2.049 -13.080  -1.068  0.00  0.00    +0.122 A 
ATOM     31  C   UNL     1      -2.628 -13.257   0.148  0.00  0.00    +0.071 A 
ATOM     32  C   UNL     1      -2.945 -12.138   0.958  0.00  0.00    +0.046 A 
ATOM     33  N   UNL     1      -3.497 -12.050   2.147  0.00  0.00    -0.380 N 
ATOM     34  C   UNL     1      -3.584 -10.633   2.516  0.00  0.00    +0.144 C 
ATOM     35  H   UNL     1      -3.793 -12.796   2.691  0.00  0.00    +0.160 HD
BRANCH  30  36
ATOM     36  O   UNL     1      -1.760 -14.173  -1.817  0.00  0.00    -0.495 OA
ATOM     37  C   UNL     1      -1.152 -13.945  -3.090  0.00  0.00    +0.277 C 
ENDBRANCH  30  36
ENDBRANCH  25  26
ENDBRANCH  24  25
ENDBRANCH   3  24
TORSDOF 10
