REMARK  Name = ZINC09599099
REMARK  9 active torsions:
REMARK  status: ('A' for Active; 'I' for Inactive)
REMARK    1  A    between atoms: C_1  and  C_2
REMARK    2  A    between atoms: C_2  and  C_3
REMARK    3  A    between atoms: C_3  and  C_5
REMARK    4  A    between atoms: C_3  and  N_6
REMARK    5  A    between atoms: C_7  and  C_9
REMARK    6  A    between atoms: C_9  and  N_10
REMARK    7  A    between atoms: C_13  and  C_17
REMARK    8  A    between atoms: C_14  and  C_16
REMARK    9  A    between atoms: N_20  and  C_23
REMARK                            x       y       z     vdW  Elec       q    Type
REMARK                         _______ _______ _______ _____ _____    ______ ____
ROOT
ATOM      1  N   UNL     1      -1.743   3.837  -0.071  0.00  0.00    -0.278 N 
ATOM      2  C   UNL     1      -1.015   4.218  -1.166  0.00  0.00    +0.097 A 
ATOM      3  C   UNL     1      -0.103   5.273  -1.098  0.00  0.00    +0.074 A 
ATOM      4  C   UNL     1       0.595   5.562  -2.341  0.00  0.00    -0.026 A 
ATOM      5  C   UNL     1       0.306   4.808  -3.413  0.00  0.00    -0.008 A 
ATOM      6  S   UNL     1      -0.920   3.673  -2.797  0.00  0.00    -0.075 S 
ATOM      7  C   UNL     1       0.882   4.900  -4.803  0.00  0.00    +0.052 C 
ATOM      8  C   UNL     1       1.610   6.673  -2.422  0.00  0.00    +0.045 C 
ATOM      9  C   UNL     1       0.016   5.934   0.219  0.00  0.00    +0.270 A 
ATOM     10  O   UNL     1       0.787   6.864   0.374  0.00  0.00    -0.266 OA
ATOM     11  N   UNL     1      -0.737   5.497   1.244  0.00  0.00    -0.228 N 
ATOM     12  C   UNL     1      -1.600   4.478   1.105  0.00  0.00    +0.338 A 
ATOM     13  O   UNL     1      -2.262   4.123   2.061  0.00  0.00    -0.246 OA
ENDROOT
BRANCH  11  14
ATOM     14  C   UNL     1      -0.622   6.127   2.491  0.00  0.00    +0.056 A 
ATOM     15  C   UNL     1       0.300   5.665   3.421  0.00  0.00    +0.028 A 
ATOM     16  C   UNL     1       0.416   6.290   4.647  0.00  0.00    +0.023 A 
ATOM     17  C   UNL     1      -0.393   7.370   4.954  0.00  0.00    +0.059 A 
ATOM     18  C   UNL     1      -1.317   7.830   4.031  0.00  0.00    +0.061 A 
ATOM     19  C   UNL     1      -1.433   7.210   2.800  0.00  0.00    +0.048 A 
ATOM     20 CL   UNL     1      -2.331   9.184   4.419  0.00  0.00    -0.082 Cl
ATOM     21 CL   UNL     1      -0.250   8.149   6.498  0.00  0.00    -0.082 Cl
ENDBRANCH  11  14
BRANCH   1  22
ATOM     22  C   UNL     1      -2.691   2.725  -0.181  0.00  0.00    +0.223 C 
BRANCH  22  24
ATOM     23  N   UNL     1      -2.669   0.269   0.111  0.00  0.00    -0.311 N 
ATOM     24  C   UNL     1      -1.989   1.432   0.147  0.00  0.00    +0.233 C 
ATOM     25  O   UNL     1      -0.812   1.438   0.438  0.00  0.00    -0.274 OA
ATOM     26  H   UNL     1      -3.736   0.264  -0.154  0.00  0.00    +0.149 HD
BRANCH  23  27
ATOM     27  C   UNL     1      -1.985  -0.988   0.423  0.00  0.00    +0.070 C 
ATOM     28  C   UNL     1      -1.296  -1.521  -0.835  0.00  0.00    +0.028 C 
BRANCH  27  30
ATOM     29  C   UNL     1      -3.605  -1.539   2.244  0.00  0.00    +0.005 C 
ATOM     30  C   UNL     1      -3.006  -2.015   0.919  0.00  0.00    +0.018 C 
ENDBRANCH  27  30
ENDBRANCH  23  27
ENDBRANCH  22  24
ENDBRANCH   1  22
TORSDOF 5
