REMARK  Name = ZINC20992449
REMARK  9 active torsions:
REMARK  status: ('A' for Active; 'I' for Inactive)
REMARK    1  A    between atoms: C_1  and  C_2
REMARK    2  A    between atoms: C_7  and  C_8
REMARK    3  A    between atoms: C_11  and  S_14
REMARK    4  A    between atoms: N_12  and  C_13
REMARK    5  A    between atoms: S_14  and  C_15
REMARK    6  A    between atoms: C_15  and  C_17
REMARK    7  A    between atoms: C_15  and  C_18
REMARK    8  A    between atoms: N_20  and  C_21
REMARK    9  A    between atoms: C_23  and  N_28
REMARK                            x       y       z     vdW  Elec       q    Type
REMARK                         _______ _______ _______ _____ _____    ______ ____
ROOT
ATOM      1  C   UNL     1      -6.207  -0.892  -0.166  0.00  0.00    +0.137 C 
ATOM      2  C   UNL     1      -6.498  -1.062  -1.658  0.00  0.00    +0.029 C 
ENDROOT
BRANCH   1   3
ATOM      3  C   UNL     1      -4.943  -0.090   0.012  0.00  0.00    +0.230 C 
ATOM      4  O   UNL     1      -3.882  -0.657   0.165  0.00  0.00    -0.274 OA
ATOM      5  N   UNL     1      -4.992   1.256  -0.000  0.00  0.00    -0.283 N 
ATOM      6  H   UNL     1      -5.963   1.771  -0.053  0.00  0.00    +0.155 HD
BRANCH   5   7
ATOM      7  C   UNL     1      -3.808   2.000   0.055  0.00  0.00    +0.054 A 
ATOM      8  C   UNL     1      -2.598   1.409  -0.285  0.00  0.00    +0.057 A 
ATOM      9  C   UNL     1      -1.431   2.146  -0.230  0.00  0.00    +0.128 A 
ATOM     10  C   UNL     1      -1.465   3.470   0.169  0.00  0.00    +0.034 A 
ATOM     11  C   UNL     1      -2.668   4.064   0.503  0.00  0.00    +0.024 A 
ATOM     12  C   UNL     1      -3.840   3.332   0.450  0.00  0.00    +0.062 A 
ATOM     13 CL   UNL     1      -5.349   4.077   0.876  0.00  0.00    -0.082 Cl
BRANCH   9  14
ATOM     14  N   UNL     1      -0.142   1.516  -0.592  0.00  0.00    +0.056 N 
ATOM     15  O   UNL     1      -0.110   0.349  -0.938  0.00  0.00    -0.126 OA
ATOM     16  O   UNL     1       0.887   2.166  -0.548  0.00  0.00    -0.126 OA
ENDBRANCH   9  14
ENDBRANCH   5   7
ENDBRANCH   1   3
BRANCH   1  17
ATOM     17  S   UNL     1      -6.001  -2.520   0.598  0.00  0.00    -0.074 S 
BRANCH  17  21
ATOM     18  C   UNL     1      -9.390  -4.455   0.405  0.00  0.00    +0.165 A 
ATOM     19  N   UNL     1      -9.677  -3.312  -0.174  0.00  0.00    -0.128 NA
ATOM     20  N   UNL     1      -8.640  -2.554  -0.187  0.00  0.00    -0.122 NA
ATOM     21  C   UNL     1      -7.626  -3.166   0.384  0.00  0.00    +0.192 A 
ATOM     22  N   UNL     1      -8.066  -4.398   0.775  0.00  0.00    -0.305 N 
ATOM     23  C   UNL     1      -7.291  -5.442   1.450  0.00  0.00    +0.153 C 
BRANCH  18  30
ATOM     24  C   UNL     1     -12.016  -3.976   1.522  0.00  0.00    +0.044 C 
ATOM     25  C   UNL     1     -11.582  -5.371   1.153  0.00  0.00    -0.040 A 
ATOM     26  C   UNL     1     -12.441  -6.434   1.342  0.00  0.00    +0.004 A 
ATOM     27  C   UNL     1     -12.043  -7.717   1.009  0.00  0.00    +0.000 A 
ATOM     28  C   UNL     1     -10.784  -7.941   0.480  0.00  0.00    +0.001 A 
ATOM     29  C   UNL     1      -9.918  -6.886   0.281  0.00  0.00    +0.012 A 
ATOM     30  C   UNL     1     -10.313  -5.590   0.615  0.00  0.00    +0.022 A 
ENDBRANCH  18  30
ENDBRANCH  17  21
ENDBRANCH   1  17
TORSDOF 6
