REMARK  Name = ZINC37593838
REMARK  9 active torsions:
REMARK  status: ('A' for Active; 'I' for Inactive)
REMARK    1  A    between atoms: C_1  and  C_2
REMARK    2  A    between atoms: C_7  and  N_8
REMARK    3  A    between atoms: N_8  and  C_9
REMARK    4  A    between atoms: N_8  and  N_10
REMARK    5  A    between atoms: C_11  and  O_13
REMARK    6  A    between atoms: O_13  and  C_14
REMARK    7  A    between atoms: C_14  and  C_15
REMARK    8  A    between atoms: C_14  and  C_16
REMARK    9  A    between atoms: C_14  and  C_17
REMARK                            x       y       z     vdW  Elec       q    Type
REMARK                         _______ _______ _______ _____ _____    ______ ____
ROOT
ATOM      1  N   UNL     1       0.025  -0.016   2.415  0.00  0.00    -0.251 N 
ATOM      2  C   UNL     1       1.292   0.266   3.095  0.00  0.00    +0.154 C 
ENDROOT
BRANCH   1   9
ATOM      3  C   UNL     1      -0.018   1.503   0.010  0.00  0.00    +0.046 C 
ATOM      4  C   UNL     1       0.002  -0.004   0.002  0.00  0.00    -0.028 A 
ATOM      5  C   UNL     1       0.006  -0.689  -1.198  0.00  0.00    +0.005 A 
ATOM      6  C   UNL     1       0.024  -2.071  -1.206  0.00  0.00    +0.000 A 
ATOM      7  C   UNL     1       0.039  -2.773  -0.014  0.00  0.00    +0.002 A 
ATOM      8  C   UNL     1       0.036  -2.095   1.188  0.00  0.00    +0.025 A 
ATOM      9  C   UNL     1       0.023  -0.706   1.200  0.00  0.00    +0.050 A 
ENDBRANCH   1   9
BRANCH   1  10
ATOM     10  N   UNL     1      -1.184   0.405   2.984  0.00  0.00    -0.199 N 
ATOM     11  C   UNL     1      -1.694  -0.251   4.045  0.00  0.00    +0.417 C 
ATOM     12  O   UNL     1      -2.743   0.115   4.538  0.00  0.00    -0.225 OA
ATOM     13  H   UNL     1      -1.654   1.169   2.614  0.00  0.00    +0.176 HD
BRANCH  11  14
ATOM     14  O   UNL     1      -1.042  -1.310   4.559  0.00  0.00    -0.444 OA
BRANCH  14  15
ATOM     15  C   UNL     1      -1.641  -1.958   5.684  0.00  0.00    +0.107 C 
ATOM     16  C   UNL     1      -3.026  -2.477   5.295  0.00  0.00    +0.055 C 
ATOM     17  C   UNL     1      -0.762  -3.130   6.124  0.00  0.00    +0.055 C 
ATOM     18  C   UNL     1      -1.774  -0.959   6.835  0.00  0.00    +0.055 C 
ENDBRANCH  14  15
ENDBRANCH  11  14
ENDBRANCH   1  10
TORSDOF 4
