REMARK  Name = ZINC21082065
REMARK  8 active torsions:
REMARK  status: ('A' for Active; 'I' for Inactive)
REMARK    1  A    between atoms: C_1  and  C_2
REMARK    2  A    between atoms: C_2  and  C_23
REMARK    3  A    between atoms: N_3  and  N_4
REMARK    4  A    between atoms: C_7  and  S_10
REMARK    5  A    between atoms: S_10  and  C_11
REMARK    6  A    between atoms: C_11  and  C_12
REMARK    7  A    between atoms: C_12  and  C_13
REMARK    8  A    between atoms: N_15  and  C_16
REMARK                            x       y       z     vdW  Elec       q    Type
REMARK                         _______ _______ _______ _____ _____    ______ ____
ROOT
ATOM      1  N   UNL     1       1.758  -1.720  -0.084  0.00  0.00    -0.205 N 
ATOM      2  C   UNL     1       1.311  -0.407  -0.064  0.00  0.00    +0.232 A 
ATOM      3  N   UNL     1       0.005  -0.003  -0.049  0.00  0.00    -0.186 NA
ATOM      4  C   UNL     1      -0.014   1.363  -0.032  0.00  0.00    +0.210 A 
ATOM      5  N   UNL     1       1.227   1.786  -0.035  0.00  0.00    -0.144 NA
ATOM      6  N   UNL     1       2.067   0.664  -0.056  0.00  0.00    -0.245 N 
ATOM      7  H   UNL     1       1.033  -2.548  -0.090  0.00  0.00    +0.177 HD
ATOM      8  H   UNL     1       3.162   0.564  -0.066  0.00  0.00    +0.192 HD
ENDROOT
BRANCH   1  11
ATOM      9  C   UNL     1       2.557  -4.356  -0.124  0.00  0.00    +0.068 C 
ATOM     10  C   UNL     1       3.550  -3.222  -0.117  0.00  0.00    +0.063 C 
ATOM     11  N   UNL     1       3.132  -1.993  -0.098  0.00  0.00    -0.184 NA
BRANCH  10  12
ATOM     12  C   UNL     1       4.996  -3.508  -0.132  0.00  0.00    -0.002 A 
ATOM     13  C   UNL     1       5.449  -4.830  -0.146  0.00  0.00    +0.012 A 
ATOM     14  C   UNL     1       6.803  -5.091  -0.166  0.00  0.00    +0.039 A 
ATOM     15  C   UNL     1       7.714  -4.046  -0.159  0.00  0.00    +0.123 A 
ATOM     16  C   UNL     1       7.270  -2.733  -0.139  0.00  0.00    +0.039 A 
ATOM     17  C   UNL     1       5.919  -2.459  -0.125  0.00  0.00    +0.012 A 
ATOM     18  F   UNL     1       9.039  -4.309  -0.173  0.00  0.00    -0.205 F 
ENDBRANCH  10  12
ENDBRANCH   1  11
BRANCH   4  19
ATOM     19  S   UNL     1      -1.454   2.378  -0.015  0.00  0.00    -0.084 S 
BRANCH  19  20
ATOM     20  C   UNL     1      -0.798   4.070   0.005  0.00  0.00    +0.086 C 
BRANCH  20  21
ATOM     21  C   UNL     1      -1.958   5.067   0.022  0.00  0.00    +0.107 C 
BRANCH  21  22
ATOM     22  C   UNL     1      -1.413   6.472   0.038  0.00  0.00    +0.218 C 
ATOM     23  O   UNL     1      -0.215   6.657   0.037  0.00  0.00    -0.275 OA
ATOM     24  N   UNL     1      -2.258   7.522   0.054  0.00  0.00    -0.285 N 
ATOM     25  H   UNL     1      -3.343   7.356  -0.020  0.00  0.00    +0.155 HD
BRANCH  24  26
ATOM     26  C   UNL     1      -1.754   8.823   0.164  0.00  0.00    +0.047 A 
ATOM     27  C   UNL     1      -0.544   9.154  -0.431  0.00  0.00    +0.024 A 
ATOM     28  C   UNL     1      -0.052  10.440  -0.324  0.00  0.00    +0.002 A 
ATOM     29  C   UNL     1      -0.758  11.396   0.383  0.00  0.00    +0.001 A 
ATOM     30  C   UNL     1      -1.961  11.069   0.982  0.00  0.00    +0.017 A 
ATOM     31  C   UNL     1      -2.462   9.785   0.875  0.00  0.00    +0.039 A 
ATOM     32 BR   UNL     1      -4.106   9.339   1.694  0.00  0.00    -0.048 Br
ENDBRANCH  24  26
ENDBRANCH  21  22
ENDBRANCH  20  21
ENDBRANCH  19  20
ENDBRANCH   4  19
TORSDOF 7
