REMARK  Name = ZINC07466085
REMARK  6 active torsions:
REMARK  status: ('A' for Active; 'I' for Inactive)
REMARK    1  A    between atoms: C_1  and  C_2
REMARK    2  A    between atoms: C_5  and  C_8
REMARK    3  A    between atoms: C_11  and  S_13
REMARK    4  A    between atoms: S_13  and  C_14
REMARK    5  A    between atoms: C_14  and  C_15
REMARK    6  A    between atoms: C_21  and  C_24
REMARK                            x       y       z     vdW  Elec       q    Type
REMARK                         _______ _______ _______ _____ _____    ______ ____
ROOT
ATOM      1  C   UNL     1      -0.827   2.757  -3.349  0.00  0.00    +0.172 C 
ENDROOT
BRANCH   1   2
ATOM      2  C   UNL     1      -0.078   2.261  -2.138  0.00  0.00    +0.226 C 
ATOM      3  O   UNL     1       1.110   2.480  -2.029  0.00  0.00    -0.275 OA
ATOM      4  N   UNL     1      -0.729   1.575  -1.178  0.00  0.00    -0.300 N 
ATOM      5  C   UNL     1      -2.168   1.303  -1.297  0.00  0.00    +0.108 C 
ATOM      6  C   UNL     1      -2.869   1.797  -0.028  0.00  0.00    +0.020 C 
ATOM      7  C   UNL     1      -2.208   1.161   1.197  0.00  0.00    +0.016 C 
ATOM      8  C   UNL     1      -0.736   1.583   1.264  0.00  0.00    +0.092 C 
ATOM      9  C   UNL     1      -0.013   1.086   0.008  0.00  0.00    +0.120 C 
BRANCH   8  10
ATOM     10  C   UNL     1      -0.091   0.982   2.486  0.00  0.00    +0.215 C 
ATOM     11  O   UNL     1      -0.743   0.287   3.236  0.00  0.00    -0.276 OA
ATOM     12  N   UNL     1       1.211   1.216   2.746  0.00  0.00    -0.329 N 
ATOM     13  H   UNL     1       1.733   1.772   2.146  0.00  0.00    +0.145 HD
ATOM     14  H   UNL     1       1.626   0.830   3.533  0.00  0.00    +0.145 HD
ENDBRANCH   8  10
ENDBRANCH   1   2
BRANCH   1  15
ATOM     15  S   UNL     1       0.314   3.634  -4.446  0.00  0.00    -0.089 S 
BRANCH  15  19
ATOM     16  C   UNL     1      -1.520   5.021  -7.723  0.00  0.00    +0.079 A 
ATOM     17  C   UNL     1      -2.787   4.580  -7.466  0.00  0.00    +0.076 A 
ATOM     18  S   UNL     1      -2.544   3.765  -5.893  0.00  0.00    -0.069 S 
ATOM     19  C   UNL     1      -0.794   4.090  -5.738  0.00  0.00    +0.136 A 
ATOM     20  N   UNL     1      -0.551   4.768  -6.846  0.00  0.00    -0.233 NA
BRANCH  16  25
ATOM     21  C   UNL     1      -0.385   7.958 -12.545  0.00  0.00    +0.044 C 
ATOM     22  C   UNL     1      -0.682   7.190 -11.283  0.00  0.00    -0.050 A 
ATOM     23  C   UNL     1       0.333   6.929 -10.380  0.00  0.00    +0.004 A 
ATOM     24  C   UNL     1       0.067   6.225  -9.223  0.00  0.00    +0.010 A 
ATOM     25  C   UNL     1      -1.228   5.778  -8.964  0.00  0.00    +0.001 A 
ATOM     26  C   UNL     1      -2.246   6.040  -9.880  0.00  0.00    +0.010 A 
ATOM     27  C   UNL     1      -1.969   6.748 -11.032  0.00  0.00    +0.004 A 
ENDBRANCH  16  25
ENDBRANCH  15  19
ENDBRANCH   1  15
TORSDOF 5
