REMARK  Name = ZINC43221482
REMARK  9 active torsions:
REMARK  status: ('A' for Active; 'I' for Inactive)
REMARK    1  A    between atoms: C_1  and  C_2
REMARK    2  A    between atoms: C_7  and  N_8
REMARK    3  A    between atoms: C_13  and  C_35
REMARK    4  A    between atoms: C_16  and  C_21
REMARK    5  A    between atoms: C_16  and  C_32
REMARK    6  A    between atoms: C_21  and  C_22
REMARK    7  A    between atoms: C_37  and  C_43
REMARK    8  A    between atoms: C_38  and  O_42
REMARK    9  A    between atoms: C_39  and  C_41
REMARK                            x       y       z     vdW  Elec       q    Type
REMARK                         _______ _______ _______ _____ _____    ______ ____
ROOT
ATOM      1  N   UNL     1       0.025  -0.013   2.419  0.00  0.00    -0.210 N 
ATOM      2  C   UNL     1      -1.117   0.342   3.094  0.00  0.00    +0.229 C 
ATOM      3  O   UNL     1      -2.246  -0.051   2.895  0.00  0.00    -0.275 OA
ATOM      4  C   UNL     1      -0.676   1.285   4.092  0.00  0.00    +0.077 C 
ATOM      5  C   UNL     1      -1.103   1.863   5.378  0.00  0.00    -0.027 C 
ATOM      6  N   UNL     1       0.133   2.595   5.820  0.00  0.00    +0.396 N 
ATOM      7  C   UNL     1       1.304   1.972   5.134  0.00  0.00    +0.052 C 
ATOM      8  C   UNL     1       0.744   0.704   4.472  0.00  0.00    +0.086 C 
ATOM      9  C   UNL     1       1.163   0.376   3.066  0.00  0.00    +0.229 C 
ATOM     10  O   UNL     1       2.281   0.446   2.603  0.00  0.00    -0.275 OA
ATOM     11  H   UNL     1       0.064   3.569   5.562  0.00  0.00    -0.083 HD
ATOM     12  H   UNL     1       0.239   2.513   6.820  0.00  0.00    -0.083 HD
ENDROOT
BRANCH   5  13
ATOM     13  C   UNL     1      -2.254   2.817   5.183  0.00  0.00    -0.060 A 
ATOM     14  C   UNL     1      -2.015   4.104   4.737  0.00  0.00    +0.009 A 
ATOM     15  C   UNL     1      -3.068   4.980   4.558  0.00  0.00    -0.009 A 
ATOM     16  C   UNL     1      -4.366   4.568   4.825  0.00  0.00    +0.123 A 
ATOM     17  C   UNL     1      -4.602   3.276   5.272  0.00  0.00    -0.009 A 
ATOM     18  C   UNL     1      -3.546   2.401   5.444  0.00  0.00    +0.009 A 
ATOM     19  C   UNL     1      -6.010   2.825   5.563  0.00  0.00    +0.047 C 
ATOM     20  C   UNL     1      -2.808   6.383   4.073  0.00  0.00    +0.047 C 
BRANCH  16  21
ATOM     21  O   UNL     1      -5.403   5.428   4.650  0.00  0.00    -0.506 OA
ATOM     22  H   UNL     1      -5.788   5.404   3.763  0.00  0.00    +0.292 HD
ENDBRANCH  16  21
ENDBRANCH   5  13
BRANCH   1  29
ATOM     23  C   UNL     1      -0.018   1.503   0.010  0.00  0.00    +0.045 C 
ATOM     24  C   UNL     1       0.002  -0.004   0.002  0.00  0.00    -0.029 A 
ATOM     25  C   UNL     1       0.006  -0.689  -1.198  0.00  0.00    +0.005 A 
ATOM     26  C   UNL     1       0.025  -2.071  -1.206  0.00  0.00    +0.000 A 
ATOM     27  C   UNL     1       0.041  -2.773  -0.014  0.00  0.00    +0.002 A 
ATOM     28  C   UNL     1       0.037  -2.094   1.188  0.00  0.00    +0.024 A 
ATOM     29  C   UNL     1       0.023  -0.705   1.200  0.00  0.00    +0.047 A 
ENDBRANCH   1  29
BRANCH   7  30
ATOM     30  C   UNL     1       2.360   1.598   6.141  0.00  0.00    +0.347 C 
ATOM     31  O   UNL     1       2.190   1.844   7.323  0.00  0.00    -0.248 OA
ATOM     32  O   UNL     1       3.385   1.050   5.774  0.00  0.00    -0.248 OA
ENDBRANCH   7  30
BRANCH   7  33
ATOM     33  C   UNL     1       1.880   2.933   4.092  0.00  0.00    +0.037 C 
BRANCH  33  34
ATOM     34  C   UNL     1       2.358   4.188   4.776  0.00  0.00    -0.023 A 
ATOM     35  C   UNL     1       1.665   5.327   4.930  0.00  0.00    +0.087 A 
ATOM     36  N   UNL     1       2.424   6.247   5.600  0.00  0.00    -0.360 N 
ATOM     37  H   UNL     1       2.137   7.145   5.829  0.00  0.00    +0.165 HD
ATOM     38  C   UNL     1       3.655   5.709   5.902  0.00  0.00    +0.047 A 
ATOM     39  C   UNL     1       3.666   4.393   5.404  0.00  0.00    +0.003 A 
ATOM     40  C   UNL     1       4.798   3.594   5.572  0.00  0.00    +0.010 A 
ATOM     41  C   UNL     1       5.891   4.094   6.223  0.00  0.00    +0.001 A 
ATOM     42  C   UNL     1       5.883   5.390   6.719  0.00  0.00    +0.002 A 
ATOM     43  C   UNL     1       4.780   6.199   6.557  0.00  0.00    +0.026 A 
ENDBRANCH  33  34
ENDBRANCH   7  33
TORSDOF 6
