REMARK  Name = ZINC00673764
REMARK  6 active torsions:
REMARK  status: ('A' for Active; 'I' for Inactive)
REMARK    1  A    between atoms: C_1  and  C_2
REMARK    2  A    between atoms: C_2  and  C_3
REMARK    3  A    between atoms: C_8  and  N_9
REMARK    4  A    between atoms: C_10  and  C_12
REMARK    5  A    between atoms: C_17  and  C_28
REMARK    6  A    between atoms: C_20  and  C_23
REMARK                            x       y       z     vdW  Elec       q    Type
REMARK                         _______ _______ _______ _____ _____    ______ ____
ROOT
ATOM      1  C   UNL     1       4.931  -0.225   1.145  0.00  0.00    +0.167 A 
ATOM      2  C   UNL     1       6.325  -0.393   1.306  0.00  0.00    +0.112 A 
ATOM      3  C   UNL     1       6.631  -0.061   2.576  0.00  0.00    +0.137 A 
ATOM      4  N   UNL     1       5.478   0.304   3.211  0.00  0.00    -0.237 N 
ATOM      5  N   UNL     1       4.432   0.200   2.294  0.00  0.00    -0.163 NA
ATOM      6  C   UNL     1       5.420   0.726   4.613  0.00  0.00    +0.215 C 
ATOM      7  C   UNL     1       6.682   0.236   5.331  0.00  0.00    +0.063 C 
ATOM      8  C   UNL     1       7.926   0.626   4.526  0.00  0.00    +0.111 C 
ATOM      9  N   UNL     1       7.874  -0.059   3.219  0.00  0.00    -0.321 N 
ATOM     10 CL   UNL     1       7.440  -0.930   0.089  0.00  0.00    -0.078 Cl
ATOM     11  H   UNL     1       8.654  -0.483   2.830  0.00  0.00    +0.148 HD
ENDROOT
BRANCH   8  12
ATOM     12  C   UNL     1       9.165   0.206   5.273  0.00  0.00    +0.010 A 
ATOM     13  C   UNL     1       9.991   0.954   6.046  0.00  0.00    +0.013 A 
ATOM     14  C   UNL     1      11.082   0.348   6.641  0.00  0.00    +0.008 A 
ATOM     15  C   UNL     1      11.294  -0.974   6.435  0.00  0.00    +0.045 A 
ATOM     16  S   UNL     1       9.923  -1.407   5.376  0.00  0.00    -0.100 S 
ENDBRANCH   8  12
BRANCH   1  18
ATOM     17  N   UNL     1       2.833  -0.269  -0.113  0.00  0.00    -0.280 N 
ATOM     18  C   UNL     1       4.165  -0.475  -0.092  0.00  0.00    +0.270 C 
ATOM     19  O   UNL     1       4.735  -0.867  -1.091  0.00  0.00    -0.268 OA
ATOM     20  H   UNL     1       2.387   0.105   0.663  0.00  0.00    +0.155 HD
BRANCH  17  26
ATOM     21  C   UNL     1       0.800  -1.086  -1.129  0.00  0.00    -0.026 A 
ATOM     22  C   UNL     1       0.070  -1.401  -2.259  0.00  0.00    +0.005 A 
ATOM     23  C   UNL     1       0.627  -1.234  -3.513  0.00  0.00    +0.000 A 
ATOM     24  C   UNL     1       1.917  -0.750  -3.641  0.00  0.00    +0.002 A 
ATOM     25  C   UNL     1       2.652  -0.433  -2.516  0.00  0.00    +0.023 A 
ATOM     26  C   UNL     1       2.093  -0.594  -1.254  0.00  0.00    +0.037 A 
BRANCH  21  28
ATOM     27  C   UNL     1      -0.422   0.053   0.703  0.00  0.00    +0.009 C 
ATOM     28  C   UNL     1       0.192  -1.268   0.238  0.00  0.00    +0.033 C 
ENDBRANCH  21  28
ENDBRANCH  17  26
ENDBRANCH   1  18
BRANCH   6  29
ATOM     29  C   UNL     1       4.181   0.123   5.279  0.00  0.00    +0.412 C 
ATOM     30  F   UNL     1       4.251  -1.273   5.216  0.00  0.00    -0.168 F 
ATOM     31  F   UNL     1       4.128   0.527   6.617  0.00  0.00    -0.168 F 
ATOM     32  F   UNL     1       3.033   0.563   4.613  0.00  0.00    -0.168 F 
ENDBRANCH   6  29
TORSDOF 5
