REMARK  Name = ZINC49964361
REMARK  6 active torsions:
REMARK  status: ('A' for Active; 'I' for Inactive)
REMARK    1  A    between atoms: C_4  and  C_7
REMARK    2  A    between atoms: C_7  and  C_9
REMARK    3  A    between atoms: C_7  and  O_21
REMARK    4  A    between atoms: C_9  and  C_10
REMARK    5  A    between atoms: C_10  and  C_11
REMARK    6  A    between atoms: C_14  and  N_18
REMARK                            x       y       z     vdW  Elec       q    Type
REMARK                         _______ _______ _______ _____ _____    ______ ____
ROOT
ATOM      1  C   UNL     1       5.440  -1.819   1.383  0.00  0.00    +0.039 C 
ENDROOT
BRANCH   1   2
ATOM      2  C   UNL     1       5.773  -2.286   2.777  0.00  0.00    -0.029 A 
ATOM      3  C   UNL     1       6.498  -1.470   3.625  0.00  0.00    +0.007 A 
ATOM      4  C   UNL     1       6.804  -1.899   4.903  0.00  0.00    +0.033 A 
ATOM      5  C   UNL     1       6.384  -3.144   5.333  0.00  0.00    +0.128 A 
ATOM      6  C   UNL     1       5.658  -3.960   4.487  0.00  0.00    +0.053 A 
ATOM      7  C   UNL     1       5.347  -3.529   3.209  0.00  0.00    +0.046 A 
ATOM      8 CL   UNL     1       4.430  -4.551   2.147  0.00  0.00    -0.083 Cl
BRANCH   5   9
ATOM      9  N   UNL     1       6.712  -3.603   6.702  0.00  0.00    +0.056 N 
ATOM     10  O   UNL     1       7.348  -2.889   7.443  0.00  0.00    -0.126 OA
ATOM     11  O   UNL     1       6.346  -4.692   7.079  0.00  0.00    -0.126 OA
ENDBRANCH   5   9
ENDBRANCH   1   2
BRANCH   1  12
ATOM     12  C   UNL     1       4.049  -1.182   1.377  0.00  0.00    +0.041 C 
BRANCH  12  13
ATOM     13  C   UNL     1       3.711  -0.707  -0.038  0.00  0.00    +0.145 C 
BRANCH  13  17
ATOM     14  C   UNL     1      -0.017   1.378   0.010  0.00  0.00    +0.000 A 
ATOM     15  C   UNL     1       1.171   2.086   0.002  0.00  0.00    +0.000 A 
ATOM     16  C   UNL     1       2.377   1.411  -0.013  0.00  0.00    +0.006 A 
ATOM     17  C   UNL     1       2.396   0.029  -0.020  0.00  0.00    -0.019 A 
ATOM     18  C   UNL     1       1.208  -0.679  -0.012  0.00  0.00    +0.006 A 
ATOM     19  C   UNL     1       0.002  -0.004   0.002  0.00  0.00    +0.000 A 
ENDBRANCH  13  17
BRANCH  13  20
ATOM     20  O   UNL     1       3.614  -1.836  -0.908  0.00  0.00    -0.387 OA
ATOM     21  H   UNL     1       2.934  -2.474  -0.651  0.00  0.00    +0.210 HD
ENDBRANCH  13  20
ENDBRANCH  12  13
ENDBRANCH   1  12
TORSDOF 6
