REMARK  Name = ZINC40317368
REMARK  11 active torsions:
REMARK  status: ('A' for Active; 'I' for Inactive)
REMARK    1  A    between atoms: C_1  and  C_2
REMARK    2  A    between atoms: C_4  and  O_9
REMARK    3  A    between atoms: O_9  and  C_10
REMARK    4  A    between atoms: C_10  and  C_11
REMARK    5  A    between atoms: C_11  and  C_13
REMARK    6  A    between atoms: C_11  and  O_30
REMARK    7  A    between atoms: C_13  and  N_14
REMARK    8  A    between atoms: N_14  and  C_15
REMARK    9  A    between atoms: N_14  and  C_24
REMARK   10  A    between atoms: C_15  and  C_16
REMARK   11  A    between atoms: C_24  and  C_25
REMARK                            x       y       z     vdW  Elec       q    Type
REMARK                         _______ _______ _______ _____ _____    ______ ____
ROOT
ATOM      1  N   UNL     1      -0.319  -6.973  -5.290  0.00  0.00    +0.389 N 
ATOM      2  H   UNL     1      -0.947  -6.624  -5.999  0.00  0.00    -0.081 HD
ENDROOT
BRANCH   1   3
ATOM      3  C   UNL     1      -0.470  -6.173  -4.067  0.00  0.00    -0.043 C 
BRANCH   3   4
ATOM      4  C   UNL     1      -0.328  -4.688  -4.407  0.00  0.00    +0.135 C 
BRANCH   4   5
ATOM      5  O   UNL     1       1.020  -4.415  -4.793  0.00  0.00    -0.390 OA
ATOM      6  H   UNL     1       1.674  -4.615  -4.108  0.00  0.00    +0.210 HD
ENDBRANCH   4   5
BRANCH   4   7
ATOM      7  C   UNL     1      -0.687  -3.848  -3.180  0.00  0.00    +0.258 C 
BRANCH   7   8
ATOM      8  O   UNL     1      -0.667  -2.462  -3.530  0.00  0.00    -0.489 OA
BRANCH   8  12
ATOM      9  C   UNL     1      -1.270   2.168  -2.108  0.00  0.00    +0.045 C 
ATOM     10  C   UNL     1      -1.271   0.690  -1.815  0.00  0.00    -0.029 A 
ATOM     11  C   UNL     1      -0.966  -0.213  -2.816  0.00  0.00    +0.050 A 
ATOM     12  C   UNL     1      -0.967  -1.573  -2.546  0.00  0.00    +0.121 A 
ATOM     13  C   UNL     1      -1.274  -2.025  -1.271  0.00  0.00    +0.047 A 
ATOM     14  C   UNL     1      -1.578  -1.120  -0.273  0.00  0.00    +0.024 A 
ATOM     15  C   UNL     1      -1.571   0.237  -0.542  0.00  0.00    +0.044 A 
ATOM     16 CL   UNL     1      -1.947   1.373   0.715  0.00  0.00    -0.083 Cl
ENDBRANCH   8  12
ENDBRANCH   7   8
ENDBRANCH   4   7
ENDBRANCH   3   4
ENDBRANCH   1   3
BRANCH   1  17
ATOM     17  C   UNL     1      -0.640  -8.377  -5.000  0.00  0.00    -0.041 C 
BRANCH  17  18
ATOM     18  C   UNL     1      -2.097  -8.494  -4.633  0.00  0.00    -0.046 A 
ATOM     19  C   UNL     1      -2.467  -8.625  -3.308  0.00  0.00    +0.004 A 
ATOM     20  C   UNL     1      -3.803  -8.733  -2.970  0.00  0.00    +0.020 A 
ATOM     21  C   UNL     1      -4.771  -8.708  -3.959  0.00  0.00    +0.042 A 
ATOM     22  C   UNL     1      -4.401  -8.576  -5.285  0.00  0.00    +0.040 A 
ATOM     23  C   UNL     1      -3.064  -8.464  -5.622  0.00  0.00    +0.044 A 
ATOM     24 CL   UNL     1      -2.599  -8.292  -7.286  0.00  0.00    -0.083 Cl
ATOM     25 CL   UNL     1      -6.449  -8.844  -3.535  0.00  0.00    -0.083 Cl
ENDBRANCH  17  18
ENDBRANCH   1  17
BRANCH   1  26
ATOM     26  C   UNL     1       1.065  -6.875  -5.770  0.00  0.00    -0.003 C 
BRANCH  26  27
ATOM     27  C   UNL     1       1.206  -7.647  -7.057  0.00  0.00    +0.089 A 
ATOM     28  C   UNL     1       1.095  -7.138  -8.297  0.00  0.00    +0.042 A 
ATOM     29  C   UNL     1       1.297  -8.207  -9.199  0.00  0.00    +0.041 A 
ATOM     30  C   UNL     1       1.520  -9.306  -8.457  0.00  0.00    +0.195 A 
ATOM     31  O   UNL     1       1.470  -8.960  -7.160  0.00  0.00    -0.470 OA
ENDBRANCH  26  27
ENDBRANCH   1  26
TORSDOF 10
