REMARK  Name = ZINC19716970
REMARK  8 active torsions:
REMARK  status: ('A' for Active; 'I' for Inactive)
REMARK    1  A    between atoms: C_1  and  C_2
REMARK    2  A    between atoms: C_2  and  N_3
REMARK    3  A    between atoms: C_12  and  C_14
REMARK    4  A    between atoms: C_14  and  C_16
REMARK    5  A    between atoms: C_14  and  C_17
REMARK    6  A    between atoms: N_19  and  C_20
REMARK    7  A    between atoms: C_20  and  C_26
REMARK    8  A    between atoms: C_26  and  N_27
REMARK                            x       y       z     vdW  Elec       q    Type
REMARK                         _______ _______ _______ _____ _____    ______ ____
ROOT
ATOM      1  C   UNL     1       1.872   5.517   3.719  0.00  0.00    +0.222 C 
ATOM      2  O   UNL     1       2.999   5.623   4.156  0.00  0.00    -0.275 OA
ATOM      3  N   UNL     1       1.537   6.128   2.565  0.00  0.00    -0.311 N 
ATOM      4  H   UNL     1       0.541   5.966   2.127  0.00  0.00    +0.149 HD
ENDROOT
BRANCH   3   5
ATOM      5  C   UNL     1       2.499   7.006   1.895  0.00  0.00    +0.020 C 
ATOM      6  C   UNL     1       1.882   7.546   0.603  0.00  0.00    +0.024 C 
ATOM      7  C   UNL     1       1.530   6.378  -0.320  0.00  0.00    +0.002 C 
ATOM      8  C   UNL     1       2.798   5.588  -0.651  0.00  0.00    +0.000 C 
ATOM      9  C   UNL     1       3.414   5.049   0.642  0.00  0.00    +0.002 C 
ATOM     10  C   UNL     1       3.767   6.217   1.565  0.00  0.00    +0.024 C 
BRANCH   5  11
ATOM     11  C   UNL     1       2.851   8.175   2.818  0.00  0.00    -0.053 C 
BRANCH  11  12
ATOM     12  N   UNL     1       1.662   9.012   3.024  0.00  0.00    +0.381 N 
ATOM     13  C   UNL     1       2.040  10.368   3.443  0.00  0.00    -0.079 C 
ATOM     14  C   UNL     1       0.791  11.250   3.507  0.00  0.00    -0.019 C 
ATOM     15  C   UNL     1      -0.204  10.647   4.501  0.00  0.00    -0.004 C 
ATOM     16  C   UNL     1      -0.544   9.218   4.068  0.00  0.00    -0.019 C 
ATOM     17  C   UNL     1       0.744   8.395   3.989  0.00  0.00    -0.079 C 
ATOM     18  H   UNL     1       1.134   9.094   2.062  0.00  0.00    -0.082 HD
ENDBRANCH  11  12
ENDBRANCH   5  11
ENDBRANCH   3   5
BRANCH   1  19
ATOM     19  C   UNL     1       0.848   4.702   4.466  0.00  0.00    +0.123 C 
ATOM     20  C   UNL     1       0.355   3.561   3.574  0.00  0.00    +0.024 C 
BRANCH  19  30
ATOM     21  N   UNL     1       3.377   3.793   7.074  0.00  0.00    -0.229 N 
ATOM     22  C   UNL     1       2.706   3.091   8.010  0.00  0.00    +0.275 A 
ATOM     23  O   UNL     1       3.283   2.656   8.991  0.00  0.00    -0.266 OA
ATOM     24  C   UNL     1       1.267   2.865   7.828  0.00  0.00    +0.050 A 
ATOM     25  C   UNL     1       0.507   2.154   8.755  0.00  0.00    +0.014 A 
ATOM     26  C   UNL     1      -0.839   1.969   8.526  0.00  0.00    +0.001 A 
ATOM     27  C   UNL     1      -1.442   2.485   7.385  0.00  0.00    +0.001 A 
ATOM     28  C   UNL     1      -0.716   3.186   6.463  0.00  0.00    +0.010 A 
ATOM     29  C   UNL     1       0.650   3.388   6.668  0.00  0.00    +0.011 A 
ATOM     30  C   UNL     1       1.472   4.131   5.713  0.00  0.00    +0.081 A 
ATOM     31  N   UNL     1       2.741   4.297   5.939  0.00  0.00    -0.172 NA
BRANCH  21  33
ATOM     32  C   UNL     1       5.599   2.883   6.606  0.00  0.00    +0.029 C 
ATOM     33  C   UNL     1       4.813   4.027   7.250  0.00  0.00    +0.144 C 
ENDBRANCH  21  33
ENDBRANCH  19  30
ENDBRANCH   1  19
TORSDOF 6
