REMARK  Name = ZINC42798048
REMARK  9 active torsions:
REMARK  status: ('A' for Active; 'I' for Inactive)
REMARK    1  A    between atoms: C_1  and  C_2
REMARK    2  A    between atoms: C_7  and  C_8
REMARK    3  A    between atoms: C_8  and  C_10
REMARK    4  A    between atoms: C_8  and  N_11
REMARK    5  A    between atoms: N_14  and  C_15
REMARK    6  A    between atoms: C_15  and  C_16
REMARK    7  A    between atoms: C_19  and  S_22
REMARK    8  A    between atoms: S_22  and  N_25
REMARK    9  A    between atoms: N_25  and  C_26
REMARK                            x       y       z     vdW  Elec       q    Type
REMARK                         _______ _______ _______ _____ _____    ______ ____
ROOT
ATOM      1  N   UNL     1      -0.537  -0.808   3.554  0.00  0.00    -0.293 N 
ATOM      2  C   UNL     1      -1.190  -0.255   4.595  0.00  0.00    +0.300 C 
ATOM      3  O   UNL     1      -1.312   0.953   4.663  0.00  0.00    -0.253 OA
ATOM      4  N   UNL     1      -1.707  -1.040   5.561  0.00  0.00    -0.295 N 
ATOM      5  H   UNL     1      -0.440  -1.772   3.500  0.00  0.00    +0.151 HD
ATOM      6  H   UNL     1      -1.609  -2.003   5.506  0.00  0.00    +0.151 HD
ENDROOT
BRANCH   1   7
ATOM      7  C   UNL     1       0.025   0.045   2.504  0.00  0.00    +0.102 C 
ATOM      8  C   UNL     1       1.455   0.440   2.880  0.00  0.00    +0.033 C 
BRANCH   7  15
ATOM      9  C   UNL     1      -0.099   1.488   0.004  0.00  0.00    +0.044 C 
ATOM     10  C   UNL     1      -0.021  -0.017   0.003  0.00  0.00    -0.046 A 
ATOM     11  C   UNL     1      -0.003  -0.707  -1.195  0.00  0.00    +0.004 A 
ATOM     12  C   UNL     1       0.069  -2.088  -1.197  0.00  0.00    +0.000 A 
ATOM     13  C   UNL     1       0.123  -2.778  -0.000  0.00  0.00    +0.000 A 
ATOM     14  C   UNL     1       0.106  -2.088   1.197  0.00  0.00    +0.006 A 
ATOM     15  C   UNL     1       0.039  -0.708   1.199  0.00  0.00    -0.025 A 
ENDBRANCH   7  15
ENDBRANCH   1   7
BRANCH   4  16
ATOM     16  C   UNL     1      -2.417  -0.438   6.692  0.00  0.00    +0.141 C 
BRANCH  16  17
ATOM     17  C   UNL     1      -2.892  -1.524   7.622  0.00  0.00    -0.030 A 
ATOM     18  C   UNL     1      -4.137  -2.096   7.437  0.00  0.00    +0.007 A 
ATOM     19  C   UNL     1      -4.573  -3.093   8.290  0.00  0.00    +0.029 A 
ATOM     20  C   UNL     1      -3.765  -3.518   9.328  0.00  0.00    +0.105 A 
ATOM     21  C   UNL     1      -2.519  -2.946   9.512  0.00  0.00    +0.029 A 
ATOM     22  C   UNL     1      -2.081  -1.953   8.657  0.00  0.00    +0.007 A 
BRANCH  20  23
ATOM     23  S   UNL     1      -4.321  -4.787  10.416  0.00  0.00    +0.059 S 
ATOM     24  O   UNL     1      -3.604  -4.623  11.632  0.00  0.00    -0.153 OA
ATOM     25  O   UNL     1      -5.741  -4.775  10.361  0.00  0.00    -0.153 OA
BRANCH  23  26
ATOM     26  N   UNL     1      -3.835  -6.232   9.771  0.00  0.00    -0.187 NA
ATOM     27  H   UNL     1      -4.495  -6.874   9.466  0.00  0.00    +0.148 HD
BRANCH  26  28
ATOM     28  C   UNL     1      -2.407  -6.542   9.661  0.00  0.00    +0.077 C 
ATOM     29  C   UNL     1      -1.956  -7.383   8.465  0.00  0.00    +0.022 C 
ATOM     30  C   UNL     1      -1.982  -7.998   9.866  0.00  0.00    +0.022 C 
ENDBRANCH  26  28
ENDBRANCH  23  26
ENDBRANCH  20  23
ENDBRANCH  16  17
ENDBRANCH   4  16
TORSDOF 7
