REMARK  Name = ZINC12844349
REMARK  7 active torsions:
REMARK  status: ('A' for Active; 'I' for Inactive)
REMARK    1  A    between atoms: C_6  and  C_7
REMARK    2  A    between atoms: C_10  and  C_30
REMARK    3  A    between atoms: C_15  and  C_17
REMARK    4  A    between atoms: N_19  and  C_20
REMARK    5  A    between atoms: C_20  and  C_21
REMARK    6  A    between atoms: C_21  and  C_22
REMARK    7  A    between atoms: C_22  and  N_23
REMARK                            x       y       z     vdW  Elec       q    Type
REMARK                         _______ _______ _______ _____ _____    ______ ____
ROOT
ATOM      1  C   UNL     1      -1.293  -0.775   0.011  0.00  0.00    +0.104 C 
ATOM      2  C   UNL     1      -1.588  -1.269   1.431  0.00  0.00    +0.063 C 
ATOM      3  C   UNL     1      -0.417  -2.115   1.944  0.00  0.00    +0.215 C 
ATOM      4  N   UNL     1      -0.080  -3.122   0.933  0.00  0.00    -0.237 N 
ATOM      5  C   UNL     1      -0.446  -3.029  -0.380  0.00  0.00    +0.137 A 
ATOM      6  C   UNL     1       0.021  -4.117  -1.024  0.00  0.00    +0.112 A 
ATOM      7  C   UNL     1       0.703  -4.914  -0.076  0.00  0.00    +0.167 A 
ATOM      8  N   UNL     1       0.637  -4.306   1.096  0.00  0.00    -0.163 NA
ATOM      9 CL   UNL     1      -0.179  -4.476  -2.711  0.00  0.00    -0.078 Cl
ATOM     10  N   UNL     1      -1.180  -1.944  -0.883  0.00  0.00    -0.321 N 
ATOM     11  H   UNL     1      -1.590  -1.960  -1.762  0.00  0.00    +0.148 HD
ENDROOT
BRANCH   1  17
ATOM     12  C   UNL     1      -0.017   1.378   0.010  0.00  0.00    +0.007 A 
ATOM     13  C   UNL     1       1.171   2.086   0.002  0.00  0.00    +0.020 A 
ATOM     14  C   UNL     1       2.378   1.410  -0.013  0.00  0.00    +0.041 A 
ATOM     15  C   UNL     1       2.396   0.027  -0.021  0.00  0.00    +0.020 A 
ATOM     16  C   UNL     1       1.208  -0.679  -0.013  0.00  0.00    +0.007 A 
ATOM     17  C   UNL     1       0.002  -0.004   0.002  0.00  0.00    -0.027 A 
ATOM     18 CL   UNL     1       3.870   2.298  -0.023  0.00  0.00    -0.084 Cl
ENDBRANCH   1  17
BRANCH   7  19
ATOM     19  C   UNL     1       1.373  -6.202  -0.348  0.00  0.00    +0.266 C 
ATOM     20  O   UNL     1       1.367  -6.664  -1.472  0.00  0.00    -0.268 OA
ATOM     21  N   UNL     1       1.990  -6.864   0.650  0.00  0.00    -0.310 N 
ATOM     22  H   UNL     1       1.995  -6.495   1.547  0.00  0.00    +0.149 HD
BRANCH  21  23
ATOM     23  C   UNL     1       2.655  -8.142   0.381  0.00  0.00    +0.106 C 
BRANCH  23  24
ATOM     24  C   UNL     1       3.272  -8.679   1.674  0.00  0.00    +0.040 C 
BRANCH  24  25
ATOM     25  C   UNL     1       3.965 -10.013   1.392  0.00  0.00    +0.124 C 
BRANCH  25  26
ATOM     26  N   UNL     1       4.556 -10.527   2.630  0.00  0.00    -0.338 N 
ATOM     27  C   UNL     1       5.818 -10.273   3.095  0.00  0.00    +0.104 A 
ATOM     28  C   UNL     1       5.946 -10.938   4.258  0.00  0.00    +0.101 A 
ATOM     29  N   UNL     1       4.794 -11.582   4.498  0.00  0.00    -0.352 N 
ATOM     30  C   UNL     1       3.955 -11.336   3.529  0.00  0.00    +0.173 A 
ATOM     31  H   UNL     1       4.612 -12.139   5.271  0.00  0.00    +0.166 HD
ENDBRANCH  25  26
ENDBRANCH  24  25
ENDBRANCH  23  24
ENDBRANCH  21  23
ENDBRANCH   7  19
BRANCH   3  32
ATOM     32  C   UNL     1      -0.818  -2.808   3.248  0.00  0.00    +0.412 C 
ATOM     33  F   UNL     1      -1.922  -3.635   3.016  0.00  0.00    -0.168 F 
ATOM     34  F   UNL     1       0.253  -3.579   3.714  0.00  0.00    -0.168 F 
ATOM     35  F   UNL     1      -1.150  -1.844   4.205  0.00  0.00    -0.168 F 
ENDBRANCH   3  32
TORSDOF 7
