REMARK  Name = ZINC39794979
REMARK  2 active torsions:
REMARK  status: ('A' for Active; 'I' for Inactive)
REMARK    1  A    between atoms: C_3  and  C_8
REMARK    2  A    between atoms: C_11  and  C_13
REMARK                            x       y       z     vdW  Elec       q    Type
REMARK                         _______ _______ _______ _____ _____    ______ ____
ROOT
ATOM      1  C   UNL     1       5.634   5.234  -0.019  0.00  0.00    +0.128 C 
ATOM      2  C   UNL     1       5.157   5.956  -1.245  0.00  0.00    +0.070 A 
ATOM      3  C   UNL     1       4.143   6.862  -1.173  0.00  0.00    +0.111 A 
ATOM      4  N   UNL     1       3.723   7.503  -2.313  0.00  0.00    -0.323 N 
ATOM      5  C   UNL     1       4.310   7.240  -3.496  0.00  0.00    +0.159 A 
ATOM      6  S   UNL     1       3.770   8.049  -4.904  0.00  0.00    -0.013 S 
ATOM      7  N   UNL     1       5.316   6.351  -3.587  0.00  0.00    -0.302 N 
ATOM      8  C   UNL     1       5.757   5.700  -2.492  0.00  0.00    +0.258 A 
ATOM      9  O   UNL     1       6.669   4.897  -2.581  0.00  0.00    -0.267 OA
ATOM     10  N   UNL     1       3.546   7.136   0.033  0.00  0.00    -0.304 N 
ATOM     11  C   UNL     1       4.177   6.832   1.209  0.00  0.00    +0.017 C 
ATOM     12  C   UNL     1       5.185   5.936   1.237  0.00  0.00    +0.027 C 
ATOM     13  C   UNL     1       5.847   5.631   2.439  0.00  0.00    +0.162 C 
ATOM     14  O   UNL     1       6.747   4.814   2.433  0.00  0.00    -0.292 OA
ATOM     15  C   UNL     1       5.463   6.296   3.732  0.00  0.00    +0.080 C 
ATOM     16  C   UNL     1       4.890   7.684   3.429  0.00  0.00    +0.014 C 
ATOM     17  C   UNL     1       3.714   7.521   2.469  0.00  0.00    +0.051 C 
ATOM     18  H   UNL     1       5.727   6.176  -4.448  0.00  0.00    +0.171 HD
ATOM     19  H   UNL     1       2.669   7.548   0.051  0.00  0.00    +0.153 HD
ATOM     20  H   UNL     1       3.000   8.148  -2.267  0.00  0.00    +0.169 HD
ENDROOT
BRANCH   1  24
ATOM     21  C   UNL     1       3.656   2.162  -0.022  0.00  0.00    +0.135 A 
ATOM     22  C   UNL     1       4.904   1.622  -0.042  0.00  0.00    +0.050 A 
ATOM     23  C   UNL     1       5.812   2.700  -0.044  0.00  0.00    +0.046 A 
ATOM     24  C   UNL     1       5.082   3.832  -0.025  0.00  0.00    +0.118 A 
ATOM     25  O   UNL     1       3.780   3.503  -0.017  0.00  0.00    -0.459 OA
BRANCH  21  28
ATOM     26  C   UNL     1      -0.017   1.379   0.010  0.00  0.00    +0.002 A 
ATOM     27  C   UNL     1       1.167   2.088   0.002  0.00  0.00    +0.011 A 
ATOM     28  C   UNL     1       2.385   1.408  -0.013  0.00  0.00    +0.019 A 
ATOM     29  C   UNL     1       2.398   0.012  -0.021  0.00  0.00    +0.031 A 
ATOM     30  C   UNL     1       1.207  -0.686  -0.013  0.00  0.00    +0.042 A 
ATOM     31  C   UNL     1       0.002  -0.004   0.002  0.00  0.00    +0.020 A 
ATOM     32 CL   UNL     1       1.220  -2.422  -0.023  0.00  0.00    -0.084 Cl
ENDBRANCH  21  28
ENDBRANCH   1  24
TORSDOF 2
