REMARK  Name = ZINC20133542
REMARK  10 active torsions:
REMARK  status: ('A' for Active; 'I' for Inactive)
REMARK    1  A    between atoms: C_1  and  C_2
REMARK    2  A    between atoms: C_5  and  N_9
REMARK    3  A    between atoms: C_6  and  C_8
REMARK    4  A    between atoms: C_10  and  C_12
REMARK    5  A    between atoms: C_13  and  C_34
REMARK    6  A    between atoms: C_20  and  C_22
REMARK    7  A    between atoms: C_25  and  O_30
REMARK    8  A    between atoms: C_26  and  O_28
REMARK    9  A    between atoms: O_28  and  C_29
REMARK   10  A    between atoms: O_30  and  C_31
REMARK                            x       y       z     vdW  Elec       q    Type
REMARK                         _______ _______ _______ _____ _____    ______ ____
ROOT
ATOM      1  C   UNL     1       2.522  -0.379   1.704  0.00  0.00    +0.060 C 
ATOM      2  C   UNL     1       3.519   0.497   1.513  0.00  0.00    +0.018 C 
ATOM      3  N   UNL     1       3.330   1.855   1.601  0.00  0.00    -0.286 N 
ATOM      4  C   UNL     1       2.134   2.299   2.145  0.00  0.00    +0.240 A 
ATOM      5  N   UNL     1       1.765   3.481   2.547  0.00  0.00    -0.092 NA
ATOM      6  N   UNL     1       0.558   3.444   2.998  0.00  0.00    -0.021 NA
ATOM      7  N   UNL     1       0.080   2.245   2.908  0.00  0.00    -0.042 NA
ATOM      8  N   UNL     1       1.086   1.458   2.351  0.00  0.00    -0.201 N 
ATOM      9  C   UNL     1       1.109   0.039   2.018  0.00  0.00    +0.179 C 
ATOM     10  C   UNL     1       4.895  -0.027   1.191  0.00  0.00    +0.061 C 
ATOM     11  H   UNL     1       4.112   2.543   1.246  0.00  0.00    +0.155 HD
ENDROOT
BRANCH   9  12
ATOM     12  C   UNL     1       0.233  -0.209   0.817  0.00  0.00    -0.015 A 
ATOM     13  C   UNL     1       0.438   0.508  -0.346  0.00  0.00    +0.010 A 
ATOM     14  C   UNL     1      -0.360   0.280  -1.452  0.00  0.00    +0.050 A 
ATOM     15  C   UNL     1      -1.374  -0.662  -1.392  0.00  0.00    +0.168 A 
ATOM     16  C   UNL     1      -1.584  -1.380  -0.219  0.00  0.00    +0.162 A 
ATOM     17  C   UNL     1      -0.778  -1.150   0.884  0.00  0.00    +0.055 A 
BRANCH  16  18
ATOM     18  O   UNL     1      -2.579  -2.305  -0.155  0.00  0.00    -0.491 OA
ATOM     19  C   UNL     1      -2.816  -2.916   1.115  0.00  0.00    +0.277 C 
ENDBRANCH  16  18
BRANCH  15  20
ATOM     20  O   UNL     1      -2.164  -0.883  -2.478  0.00  0.00    -0.431 OA
BRANCH  20  21
ATOM     21  C   UNL     1      -1.890  -0.109  -3.647  0.00  0.00    +0.541 C 
ATOM     22  F   UNL     1      -2.032   1.251  -3.350  0.00  0.00    -0.166 F 
ATOM     23  F   UNL     1      -0.582  -0.359  -4.077  0.00  0.00    -0.166 F 
ENDBRANCH  20  21
ENDBRANCH  15  20
ENDBRANCH   9  12
BRANCH   1  25
ATOM     24  N   UNL     1       2.976  -2.330   0.396  0.00  0.00    -0.281 N 
ATOM     25  C   UNL     1       2.810  -1.760   1.606  0.00  0.00    +0.248 C 
ATOM     26  O   UNL     1       2.908  -2.435   2.615  0.00  0.00    -0.270 OA
ATOM     27  H   UNL     1       2.845  -1.730  -0.517  0.00  0.00    +0.155 HD
BRANCH  24  32
ATOM     28  C   UNL     1       4.354  -7.819   0.012  0.00  0.00    +0.044 C 
ATOM     29  C   UNL     1       3.988  -6.361   0.114  0.00  0.00    -0.050 A 
ATOM     30  C   UNL     1       3.267  -5.905   1.203  0.00  0.00    +0.005 A 
ATOM     31  C   UNL     1       2.934  -4.568   1.302  0.00  0.00    +0.024 A 
ATOM     32  C   UNL     1       3.316  -3.683   0.301  0.00  0.00    +0.037 A 
ATOM     33  C   UNL     1       4.039  -4.144  -0.791  0.00  0.00    -0.029 A 
ATOM     34  C   UNL     1       4.373  -5.481  -0.881  0.00  0.00    +0.008 A 
ATOM     35  C   UNL     1       4.460  -3.186  -1.875  0.00  0.00    +0.045 C 
ENDBRANCH  24  32
ENDBRANCH   1  25
TORSDOF 6
