REMARK  Name = ZINC13995374
REMARK  8 active torsions:
REMARK  status: ('A' for Active; 'I' for Inactive)
REMARK    1  A    between atoms: C_1  and  C_2
REMARK    2  A    between atoms: C_2  and  O_3
REMARK    3  A    between atoms: O_3  and  C_4
REMARK    4  A    between atoms: C_6  and  C_11
REMARK    5  A    between atoms: C_9  and  O_10
REMARK    6  A    between atoms: C_14  and  C_32
REMARK    7  A    between atoms: N_16  and  C_25
REMARK    8  A    between atoms: C_21  and  C_24
REMARK                            x       y       z     vdW  Elec       q    Type
REMARK                         _______ _______ _______ _____ _____    ______ ____
ROOT
ATOM      1  C   UNL     1       0.035  -5.175   0.138  0.00  0.00    +0.112 C 
ATOM      2  C   UNL     1      -1.252  -5.808  -0.290  0.00  0.00    +0.033 A 
ATOM      3  C   UNL     1      -2.100  -5.206  -1.244  0.00  0.00    +0.067 A 
ATOM      4  N   UNL     1      -3.138  -5.971  -1.427  0.00  0.00    -0.170 NA
ATOM      5  N   UNL     1      -3.004  -7.090  -0.605  0.00  0.00    -0.218 N 
ATOM      6  C   UNL     1      -1.825  -6.969   0.097  0.00  0.00    +0.133 A 
ATOM      7  N   UNL     1      -1.432  -7.929   0.998  0.00  0.00    -0.269 N 
ATOM      8  C   UNL     1      -0.388  -8.112   1.748  0.00  0.00    +0.231 C 
ATOM      9  O   UNL     1      -0.366  -9.167   2.345  0.00  0.00    -0.274 OA
ATOM     10  C   UNL     1       0.780  -7.238   1.990  0.00  0.00    +0.130 C 
ATOM     11  S   UNL     1       1.321  -6.370   0.510  0.00  0.00    -0.135 S 
ATOM     12  C   UNL     1       0.410  -6.207   3.058  0.00  0.00    +0.029 C 
ATOM     13  C   UNL     1      -1.845  -3.893  -1.938  0.00  0.00    +0.068 C 
ATOM     14  H   UNL     1      -2.089  -8.637   1.097  0.00  0.00    +0.156 HD
ENDROOT
BRANCH   5  15
ATOM     15  C   UNL     1      -3.912  -8.154  -0.509  0.00  0.00    +0.068 A 
ATOM     16  C   UNL     1      -4.463  -8.702  -1.659  0.00  0.00    +0.030 A 
ATOM     17  C   UNL     1      -5.358  -9.750  -1.563  0.00  0.00    +0.040 A 
ATOM     18  C   UNL     1      -5.705 -10.253  -0.321  0.00  0.00    +0.124 A 
ATOM     19  C   UNL     1      -5.157  -9.707   0.828  0.00  0.00    +0.040 A 
ATOM     20  C   UNL     1      -4.257  -8.664   0.735  0.00  0.00    +0.030 A 
ATOM     21  F   UNL     1      -6.581 -11.278  -0.229  0.00  0.00    -0.205 F 
ENDBRANCH   5  15
BRANCH   1  24
ATOM     22  C   UNL     1       1.126  -2.084  -1.741  0.00  0.00    +0.162 A 
ATOM     23  C   UNL     1       0.680  -2.918  -0.728  0.00  0.00    +0.054 A 
ATOM     24  C   UNL     1       0.520  -4.270  -0.965  0.00  0.00    -0.026 A 
ATOM     25  C   UNL     1       0.804  -4.795  -2.212  0.00  0.00    +0.009 A 
ATOM     26  C   UNL     1       1.250  -3.969  -3.227  0.00  0.00    +0.049 A 
ATOM     27  C   UNL     1       1.407  -2.611  -2.998  0.00  0.00    +0.158 A 
BRANCH  27  28
ATOM     28  O   UNL     1       1.839  -1.796  -3.997  0.00  0.00    -0.503 OA
ATOM     29  H   UNL     1       2.800  -1.703  -4.040  0.00  0.00    +0.292 HD
ENDBRANCH  27  28
BRANCH  22  30
ATOM     30  O   UNL     1       1.283  -0.754  -1.509  0.00  0.00    -0.489 OA
BRANCH  30  32
ATOM     31  C   UNL     1       1.211   1.227  -0.126  0.00  0.00    +0.048 C 
ATOM     32  C   UNL     1       0.976  -0.283  -0.195  0.00  0.00    +0.226 C 
ENDBRANCH  30  32
ENDBRANCH  22  30
ENDBRANCH   1  24
TORSDOF 5
