REMARK  Name = ZINC39352719
REMARK  12 active torsions:
REMARK  status: ('A' for Active; 'I' for Inactive)
REMARK    1  A    between atoms: C_1  and  C_2
REMARK    2  A    between atoms: C_2  and  C_3
REMARK    3  A    between atoms: C_2  and  N_4
REMARK    4  A    between atoms: N_4  and  C_5
REMARK    5  A    between atoms: N_11  and  C_24
REMARK    6  A    between atoms: C_12  and  C_20
REMARK    7  A    between atoms: C_14  and  N_16
REMARK    8  A    between atoms: C_17  and  C_19
REMARK    9  A    between atoms: C_20  and  O_22
REMARK   10  A    between atoms: O_22  and  C_23
REMARK   11  A    between atoms: C_24  and  C_25
REMARK   12  A    between atoms: C_25  and  C_26
REMARK                            x       y       z     vdW  Elec       q    Type
REMARK                         _______ _______ _______ _____ _____    ______ ____
ROOT
ATOM      1  C   UNL     1      -1.239  -1.736  -1.027  0.00  0.00    +0.044 A 
ATOM      2  C   UNL     1      -2.551  -2.157  -0.815  0.00  0.00    +0.033 A 
ATOM      3  C   UNL     1      -2.898  -3.443  -1.183  0.00  0.00    +0.015 A 
ATOM      4  C   UNL     1      -1.950  -4.284  -1.748  0.00  0.00    +0.105 A 
ATOM      5  N   UNL     1      -0.707  -3.842  -1.933  0.00  0.00    -0.348 N 
ATOM      6  C   UNL     1      -0.340  -2.622  -1.601  0.00  0.00    +0.107 A 
ATOM      7  N   UNL     1      -2.490  -5.533  -2.049  0.00  0.00    -0.301 N 
ATOM      8  C   UNL     1      -3.905  -5.576  -1.673  0.00  0.00    +0.208 C 
ATOM      9  C   UNL     1      -4.210  -4.187  -1.088  0.00  0.00    +0.138 C 
ATOM     10  H   UNL     1      -0.051  -4.437  -2.329  0.00  0.00    +0.167 HD
ENDROOT
BRANCH   9  11
ATOM     11  N   UNL     1      -5.240  -3.512  -1.881  0.00  0.00    -0.306 N 
ATOM     12  C   UNL     1      -5.961  -2.512  -1.338  0.00  0.00    +0.210 C 
ATOM     13  O   UNL     1      -5.758  -2.170  -0.193  0.00  0.00    -0.276 OA
ATOM     14  C   UNL     1      -7.021  -1.817  -2.155  0.00  0.00    +0.109 C 
ATOM     15  H   UNL     1      -5.402  -3.785  -2.798  0.00  0.00    +0.149 HD
ENDBRANCH   9  11
BRANCH   1  16
ATOM     16  N   UNL     1      -0.838  -0.443  -0.671  0.00  0.00    -0.340 N 
ATOM     17  H   UNL     1      -1.475   0.169  -0.270  0.00  0.00    +0.146 HD
BRANCH  16  19
ATOM     18  C   UNL     1       0.587   1.511  -1.037  0.00  0.00    +0.027 C 
ATOM     19  C   UNL     1       0.542  -0.013  -0.905  0.00  0.00    +0.064 C 
ATOM     20  C   UNL     1       1.419  -0.449   0.271  0.00  0.00    +0.027 C 
ENDBRANCH  16  19
ENDBRANCH   1  16
BRANCH   8  21
ATOM     21  C   UNL     1      -4.138  -6.645  -0.636  0.00  0.00    +0.330 C 
ATOM     22  O   UNL     1      -3.238  -6.983   0.096  0.00  0.00    -0.249 OA
BRANCH  21  23
ATOM     23  O   UNL     1      -5.345  -7.222  -0.526  0.00  0.00    -0.467 OA
ATOM     24  C   UNL     1      -5.494  -8.227   0.478  0.00  0.00    +0.280 C 
ENDBRANCH  21  23
ENDBRANCH   8  21
BRANCH   7  25
ATOM     25  C   UNL     1      -1.749  -6.642  -2.655  0.00  0.00    +0.112 C 
BRANCH  25  26
ATOM     26  C   UNL     1      -1.802  -6.519  -4.179  0.00  0.00    +0.056 C 
BRANCH  26  27
ATOM     27  C   UNL     1      -1.074  -7.681  -4.803  0.00  0.00    -0.021 A 
ATOM     28  C   UNL     1      -1.630  -9.007  -5.085  0.00  0.00    +0.003 A 
ATOM     29  C   UNL     1      -2.883  -9.593  -4.900  0.00  0.00    +0.010 A 
ATOM     30  C   UNL     1      -3.088 -10.889  -5.281  0.00  0.00    +0.001 A 
ATOM     31  C   UNL     1      -2.061 -11.628  -5.851  0.00  0.00    +0.002 A 
ATOM     32  C   UNL     1      -0.817 -11.069  -6.044  0.00  0.00    +0.026 A 
ATOM     33  C   UNL     1      -0.585  -9.751  -5.664  0.00  0.00    +0.047 A 
ATOM     34  N   UNL     1       0.517  -8.927  -5.722  0.00  0.00    -0.360 N 
ATOM     35  C   UNL     1       0.205  -7.697  -5.210  0.00  0.00    +0.087 A 
ATOM     36  H   UNL     1       1.383  -9.180  -6.076  0.00  0.00    +0.165 HD
ENDBRANCH  26  27
ENDBRANCH  25  26
ENDBRANCH   7  25
TORSDOF 8
