REMARK  Name = ZINC67614345
REMARK  10 active torsions:
REMARK  status: ('A' for Active; 'I' for Inactive)
REMARK    1  A    between atoms: C_1  and  C_2
REMARK    2  A    between atoms: C_2  and  C_3
REMARK    3  A    between atoms: C_3  and  N_4
REMARK    4  A    between atoms: C_7  and  C_10
REMARK    5  A    between atoms: C_10  and  N_11
REMARK    6  A    between atoms: C_12  and  C_14
REMARK    7  A    between atoms: C_14  and  C_15
REMARK    8  A    between atoms: C_15  and  C_16
REMARK    9  A    between atoms: C_16  and  C_17
REMARK   10  A    between atoms: C_17  and  C_18
REMARK                            x       y       z     vdW  Elec       q    Type
REMARK                         _______ _______ _______ _____ _____    ______ ____
ROOT
ATOM      1  C   UNL     1       5.349  -7.245  -3.010  0.00  0.00    +0.096 C 
ENDROOT
BRANCH   1   3
ATOM      2  N   UNL     1       3.840  -5.308  -2.716  0.00  0.00    -0.315 N 
ATOM      3  C   UNL     1       4.130  -6.441  -3.384  0.00  0.00    +0.213 C 
ATOM      4  O   UNL     1       3.412  -6.814  -4.287  0.00  0.00    -0.276 OA
ATOM      5  H   UNL     1       4.415  -5.009  -1.993  0.00  0.00    +0.149 HD
BRANCH   2   6
ATOM      6  C   UNL     1       2.655  -4.526  -3.079  0.00  0.00    +0.105 C 
BRANCH   6  10
ATOM      7  N   UNL     1       0.738  -1.966  -1.265  0.00  0.00    +0.380 N 
ATOM      8  C   UNL     1       1.571  -2.459  -0.147  0.00  0.00    -0.079 C 
ATOM      9  C   UNL     1       2.278  -3.719  -0.706  0.00  0.00    -0.016 C 
ATOM     10  C   UNL     1       2.557  -3.297  -2.173  0.00  0.00    -0.012 C 
ATOM     11  C   UNL     1       1.319  -2.448  -2.531  0.00  0.00    -0.074 C 
ATOM     12  H   UNL     1      -0.202  -2.320  -1.167  0.00  0.00    -0.082 HD
BRANCH   7  13
ATOM     13  C   UNL     1       0.718  -0.497  -1.257  0.00  0.00    -0.079 C 
BRANCH  13  15
ATOM     14  C   UNL     1      -0.019   1.526   0.010  0.00  0.00    +0.002 C 
ATOM     15  C   UNL     1       0.002  -0.004   0.002  0.00  0.00    -0.022 C 
ENDBRANCH  13  15
ENDBRANCH   7  13
ENDBRANCH   6  10
ENDBRANCH   2   6
ENDBRANCH   1   3
BRANCH   1  16
ATOM     16  C   UNL     1       5.447  -8.474  -3.916  0.00  0.00    +0.009 C 
BRANCH  16  17
ATOM     17  C   UNL     1       6.684  -9.290  -3.537  0.00  0.00    +0.002 C 
BRANCH  17  18
ATOM     18  C   UNL     1       6.783 -10.519  -4.443  0.00  0.00    +0.016 C 
BRANCH  18  19
ATOM     19  C   UNL     1       8.020 -11.335  -4.063  0.00  0.00    +0.069 C 
ATOM     20  C   UNL     1       8.172 -12.540  -4.956  0.00  0.00    +0.108 C 
ATOM     21  C   UNL     1       8.956 -13.640  -4.175  0.00  0.00    +0.105 C 
ATOM     22  C   UNL     1       8.121 -13.927  -2.930  0.00  0.00    +0.093 C 
ATOM     23  S   UNL     1       7.801 -12.155  -2.415  0.00  0.00    -0.154 S 
ATOM     24  N   UNL     1       9.098 -14.618  -5.230  0.00  0.00    -0.294 N 
ATOM     25  C   UNL     1       9.203 -13.895  -6.386  0.00  0.00    +0.300 C 
ATOM     26  O   UNL     1       9.580 -14.364  -7.442  0.00  0.00    -0.253 OA
ATOM     27  N   UNL     1       8.853 -12.591  -6.216  0.00  0.00    -0.294 N 
ATOM     28  H   UNL     1       9.116 -15.584  -5.138  0.00  0.00    +0.151 HD
ATOM     29  H   UNL     1       9.024 -11.855  -6.824  0.00  0.00    +0.151 HD
ENDBRANCH  18  19
ENDBRANCH  17  18
ENDBRANCH  16  17
ENDBRANCH   1  16
TORSDOF 9
