REMARK  Name = ZINC01984258
REMARK  8 active torsions:
REMARK  status: ('A' for Active; 'I' for Inactive)
REMARK    1  A    between atoms: C_1  and  C_2
REMARK    2  A    between atoms: C_2  and  C_3
REMARK    3  A    between atoms: C_8  and  O_9
REMARK    4  A    between atoms: O_9  and  C_10
REMARK    5  A    between atoms: C_10  and  C_11
REMARK    6  A    between atoms: N_13  and  C_14
REMARK    7  A    between atoms: C_15  and  C_25
REMARK    8  A    between atoms: C_20  and  C_24
REMARK                            x       y       z     vdW  Elec       q    Type
REMARK                         _______ _______ _______ _____ _____    ______ ____
ROOT
ATOM      1  C   UNL     1      -1.487  -0.069  -4.739  0.00  0.00    +0.255 C 
ATOM      2  O   UNL     1      -0.353   0.333  -4.591  0.00  0.00    -0.272 OA
ATOM      3  N   UNL     1      -2.021  -0.139  -5.974  0.00  0.00    -0.277 N 
ATOM      4  H   UNL     1      -2.929  -0.461  -6.093  0.00  0.00    +0.155 HD
ENDROOT
BRANCH   3   5
ATOM      5  C   UNL     1      -1.274   0.248  -7.076  0.00  0.00    +0.084 A 
ATOM      6  C   UNL     1      -1.656   0.249  -8.408  0.00  0.00    +0.068 A 
ATOM      7  C   UNL     1      -0.679   0.706  -9.380  0.00  0.00    -0.023 A 
ATOM      8  C   UNL     1       0.502   1.079  -8.841  0.00  0.00    -0.004 A 
ATOM      9  S   UNL     1       0.301   0.830  -7.102  0.00  0.00    -0.077 S 
ATOM     10  C   UNL     1       1.703   1.594  -9.574  0.00  0.00    +0.046 C 
ATOM     11  C   UNL     1       1.267   1.993 -10.992  0.00  0.00    -0.009 C 
ATOM     12  C   UNL     1       0.432   0.859 -11.592  0.00  0.00    +0.008 C 
ATOM     13  C   UNL     1      -0.921   0.775 -10.880  0.00  0.00    +0.037 C 
ATOM     14  C   UNL     1       2.504   2.236 -11.859  0.00  0.00    +0.008 C 
BRANCH   6  15
ATOM     15  C   UNL     1      -2.993  -0.194  -8.819  0.00  0.00    +0.244 C 
ATOM     16  O   UNL     1      -3.905   0.609  -8.886  0.00  0.00    -0.270 OA
ATOM     17  N   UNL     1      -3.210  -1.489  -9.122  0.00  0.00    -0.325 N 
ATOM     18  H   UNL     1      -2.482  -2.128  -9.069  0.00  0.00    +0.145 HD
ATOM     19  H   UNL     1      -4.093  -1.782  -9.394  0.00  0.00    +0.145 HD
ENDBRANCH   6  15
ENDBRANCH   3   5
BRANCH   1  20
ATOM     20  C   UNL     1      -2.300  -0.490  -3.542  0.00  0.00    +0.324 C 
BRANCH  20  21
ATOM     21  O   UNL     1      -1.521  -0.324  -2.355  0.00  0.00    -0.482 OA
BRANCH  21  27
ATOM     22  C   UNL     1      -1.412  -0.526   0.013  0.00  0.00    -0.005 A 
ATOM     23  C   UNL     1      -2.015  -0.864   1.209  0.00  0.00    +0.022 A 
ATOM     24  C   UNL     1      -3.312  -1.343   1.219  0.00  0.00    +0.018 A 
ATOM     25  C   UNL     1      -4.009  -1.484   0.032  0.00  0.00    +0.019 A 
ATOM     26  C   UNL     1      -3.410  -1.147  -1.166  0.00  0.00    +0.047 A 
ATOM     27  C   UNL     1      -2.111  -0.661  -1.178  0.00  0.00    +0.124 A 
ATOM     28 BR   UNL     1      -4.135  -1.805   2.858  0.00  0.00    -0.050 Br
BRANCH  22  30
ATOM     29  C   UNL     1      -0.019   1.526   0.010  0.00  0.00    +0.009 C 
ATOM     30  C   UNL     1       0.002  -0.004   0.002  0.00  0.00    +0.035 C 
ENDBRANCH  22  30
ENDBRANCH  21  27
ENDBRANCH  20  21
ENDBRANCH   1  20
TORSDOF 6
