REMARK  Name = ZINC59117908
REMARK  8 active torsions:
REMARK  status: ('A' for Active; 'I' for Inactive)
REMARK    1  A    between atoms: C_3  and  C_15
REMARK    2  A    between atoms: C_4  and  O_11
REMARK    3  A    between atoms: C_6  and  O_7
REMARK    4  A    between atoms: O_7  and  C_8
REMARK    5  A    between atoms: O_11  and  C_12
REMARK    6  A    between atoms: C_16  and  C_17
REMARK    7  A    between atoms: N_19  and  C_20
REMARK    8  A    between atoms: C_20  and  C_21
REMARK                            x       y       z     vdW  Elec       q    Type
REMARK                         _______ _______ _______ _____ _____    ______ ____
ROOT
ATOM      1  C   UNL     1       4.837   4.262  -0.348  0.00  0.00    +0.237 C 
ATOM      2  O   UNL     1       5.878   3.655  -0.179  0.00  0.00    -0.271 OA
ATOM      3  N   UNL     1       4.824   5.609  -0.292  0.00  0.00    -0.308 N 
ATOM      4  H   UNL     1       3.995   6.092  -0.427  0.00  0.00    +0.149 HD
ENDROOT
BRANCH   1   6
ATOM      5  C   UNL     1       3.648   2.202  -0.663  0.00  0.00    +0.016 C 
ATOM      6  C   UNL     1       3.636   3.552  -0.606  0.00  0.00    +0.068 C 
BRANCH   5   9
ATOM      7  C   UNL     1       0.045   1.469  -1.375  0.00  0.00    +0.046 A 
ATOM      8  C   UNL     1       1.206   2.162  -1.125  0.00  0.00    +0.015 A 
ATOM      9  C   UNL     1       2.406   1.468  -0.929  0.00  0.00    +0.017 A 
ATOM     10  C   UNL     1       2.415   0.063  -0.989  0.00  0.00    +0.137 A 
ATOM     11  C   UNL     1       1.239  -0.620  -1.242  0.00  0.00    +0.092 A 
ATOM     12  C   UNL     1       0.056   0.079  -1.434  0.00  0.00    +0.130 A 
BRANCH  12  13
ATOM     13  O   UNL     1      -1.095  -0.596  -1.681  0.00  0.00    -0.434 OA
BRANCH  13  14
ATOM     14  C   UNL     1      -2.277   0.184  -1.869  0.00  0.00    +0.541 C 
ATOM     15  F   UNL     1      -2.524   0.941  -0.718  0.00  0.00    -0.166 F 
ATOM     16  F   UNL     1      -2.102   1.040  -2.961  0.00  0.00    -0.166 F 
ENDBRANCH  13  14
ENDBRANCH  12  13
BRANCH  10  17
ATOM     17  O   UNL     1       3.573  -0.619  -0.801  0.00  0.00    -0.434 OA
BRANCH  17  18
ATOM     18  C   UNL     1       3.505  -2.045  -0.877  0.00  0.00    +0.541 C 
ATOM     19  F   UNL     1       2.625  -2.522   0.099  0.00  0.00    -0.166 F 
ATOM     20  F   UNL     1       3.047  -2.423  -2.144  0.00  0.00    -0.166 F 
ENDBRANCH  17  18
ENDBRANCH  10  17
ENDBRANCH   5   9
ENDBRANCH   1   6
BRANCH   3  21
ATOM     21  C   UNL     1       6.065   6.342  -0.026  0.00  0.00    +0.141 C 
BRANCH  21  22
ATOM     22  C   UNL     1       5.781   7.822  -0.014  0.00  0.00    -0.014 A 
ATOM     23  C   UNL     1       5.865   8.561  -1.187  0.00  0.00    +0.010 A 
ATOM     24  C   UNL     1       5.596   9.917  -1.133  0.00  0.00    +0.042 A 
ATOM     25  C   UNL     1       5.253  10.491   0.087  0.00  0.00    +0.099 A 
ATOM     26  N   UNL     1       5.184   9.752   1.183  0.00  0.00    -0.349 N 
ATOM     27  C   UNL     1       5.429   8.455   1.161  0.00  0.00    +0.089 A 
ATOM     28  N   UNL     1       4.981  11.852   0.156  0.00  0.00    -0.317 N 
ATOM     29  C   UNL     1       4.920  12.609  -1.074  0.00  0.00    +0.106 C 
ATOM     30  C   UNL     1       6.330  13.146  -1.425  0.00  0.00    +0.019 C 
ATOM     31  C   UNL     1       6.714  14.219  -0.495  0.00  0.00    +0.002 C 
ATOM     32  C   UNL     1       6.829  13.777   0.961  0.00  0.00    +0.002 C 
ATOM     33  C   UNL     1       5.468  13.830   1.609  0.00  0.00    +0.019 C 
ATOM     34  C   UNL     1       4.761  12.464   1.481  0.00  0.00    +0.106 C 
ATOM     35  H   UNL     1       4.943  10.173   2.023  0.00  0.00    +0.167 HD
ENDBRANCH  21  22
ENDBRANCH   3  21
TORSDOF 8
