REMARK  Name = ZINC12469209
REMARK  2 active torsions:
REMARK  status: ('A' for Active; 'I' for Inactive)
REMARK    1  A    between atoms: C_3  and  C_6
REMARK    2  A    between atoms: C_9  and  C_18
REMARK                            x       y       z     vdW  Elec       q    Type
REMARK                         _______ _______ _______ _____ _____    ______ ____
ROOT
ATOM      1  C   UNL     1       3.599   0.625  -0.029  0.00  0.00    +0.178 C 
ATOM      2  C   UNL     1       4.083  -0.109  -1.286  0.00  0.00    +0.062 C 
ATOM      3  C   UNL     1       3.773  -1.605  -1.164  0.00  0.00    +0.107 C 
ATOM      4  N   UNL     1       4.517  -2.148  -0.011  0.00  0.00    -0.307 N 
ATOM      5  C   UNL     1       4.509  -1.376   1.143  0.00  0.00    +0.216 A 
ATOM      6  N   UNL     1       4.085  -0.087   1.153  0.00  0.00    -0.221 N 
ATOM      7  N   UNL     1       4.212   0.370   2.465  0.00  0.00    -0.132 NA
ATOM      8  C   UNL     1       4.695  -0.629   3.169  0.00  0.00    +0.233 A 
ATOM      9  N   UNL     1       4.874  -1.692   2.357  0.00  0.00    -0.180 NA
ATOM     10  N   UNL     1       4.977  -0.596   4.535  0.00  0.00    -0.326 N 
ATOM     11  H   UNL     1       4.985  -2.996  -0.057  0.00  0.00    +0.149 HD
ATOM     12  H   UNL     1       4.817   0.214   5.044  0.00  0.00    +0.145 HD
ATOM     13  H   UNL     1       5.333  -1.383   4.976  0.00  0.00    +0.145 HD
ENDROOT
BRANCH   3  14
ATOM     14  C   UNL     1       4.197  -2.314  -2.424  0.00  0.00    -0.009 A 
ATOM     15  C   UNL     1       5.392  -3.009  -2.457  0.00  0.00    +0.008 A 
ATOM     16  C   UNL     1       5.782  -3.659  -3.612  0.00  0.00    +0.020 A 
ATOM     17  C   UNL     1       4.977  -3.616  -4.737  0.00  0.00    +0.042 A 
ATOM     18  C   UNL     1       3.781  -2.922  -4.704  0.00  0.00    +0.040 A 
ATOM     19  C   UNL     1       3.389  -2.275  -3.546  0.00  0.00    +0.047 A 
ATOM     20 CL   UNL     1       1.885  -1.408  -3.502  0.00  0.00    -0.083 Cl
ATOM     21 CL   UNL     1       5.467  -4.433  -6.188  0.00  0.00    -0.083 Cl
ENDBRANCH   3  14
BRANCH   1  24
ATOM     22  C   UNL     1      -0.016   1.341   0.009  0.00  0.00    +0.041 A 
ATOM     23  C   UNL     1       1.331   1.769  -0.001  0.00  0.00    +0.047 A 
ATOM     24  C   UNL     1       2.092   0.660  -0.014  0.00  0.00    +0.129 A 
ATOM     25  O   UNL     1       1.282  -0.411  -0.012  0.00  0.00    -0.466 OA
ATOM     26  C   UNL     1       0.002  -0.004   0.002  0.00  0.00    +0.195 A 
ENDBRANCH   1  24
TORSDOF 2
