REMARK  Name = ZINC24925797
REMARK  10 active torsions:
REMARK  status: ('A' for Active; 'I' for Inactive)
REMARK    1  A    between atoms: C_1  and  C_2
REMARK    2  A    between atoms: C_2  and  N_3
REMARK    3  A    between atoms: C_12  and  C_14
REMARK    4  A    between atoms: N_16  and  N_17
REMARK    5  A    between atoms: C_18  and  C_20
REMARK    6  A    between atoms: C_20  and  S_21
REMARK    7  A    between atoms: S_21  and  C_22
REMARK    8  A    between atoms: N_26  and  C_27
REMARK    9  A    between atoms: C_31  and  C_34
REMARK   10  A    between atoms: C_32  and  C_33
REMARK                            x       y       z     vdW  Elec       q    Type
REMARK                         _______ _______ _______ _____ _____    ______ ____
ROOT
ATOM      1  N   UNL     1       6.061   1.940   5.337  0.00  0.00    -0.233 N 
ATOM      2  C   UNL     1       4.957   2.153   4.594  0.00  0.00    +0.239 C 
ATOM      3  O   UNL     1       4.070   2.865   5.015  0.00  0.00    -0.273 OA
ATOM      4  H   UNL     1       6.865   1.294   4.955  0.00  0.00    +0.173 HD
ENDROOT
BRANCH   1   7
ATOM      5  C   UNL     1       7.289   2.330   7.339  0.00  0.00    +0.281 C 
ATOM      6  O   UNL     1       8.177   1.615   6.916  0.00  0.00    -0.267 OA
ATOM      7  N   UNL     1       6.184   2.542   6.596  0.00  0.00    -0.229 N 
ATOM      8  H   UNL     1       5.380   3.188   6.978  0.00  0.00    +0.173 HD
BRANCH   5  18
ATOM      9  N   UNL     1       6.501   4.321  10.265  0.00  0.00    -0.229 N 
ATOM     10  C   UNL     1       7.533   4.212  11.127  0.00  0.00    +0.275 A 
ATOM     11  O   UNL     1       7.514   4.792  12.197  0.00  0.00    -0.266 OA
ATOM     12  C   UNL     1       8.680   3.377  10.745  0.00  0.00    +0.050 A 
ATOM     13  C   UNL     1       9.791   3.199  11.562  0.00  0.00    +0.014 A 
ATOM     14  C   UNL     1      10.827   2.398  11.129  0.00  0.00    +0.001 A 
ATOM     15  C   UNL     1      10.769   1.770   9.891  0.00  0.00    +0.001 A 
ATOM     16  C   UNL     1       9.676   1.934   9.067  0.00  0.00    +0.011 A 
ATOM     17  C   UNL     1       8.618   2.733   9.487  0.00  0.00    +0.020 A 
ATOM     18  C   UNL     1       7.419   2.964   8.665  0.00  0.00    +0.155 A 
ATOM     19  N   UNL     1       6.465   3.736   9.128  0.00  0.00    -0.163 NA
BRANCH   9  21
ATOM     20  C   UNL     1       5.593   6.590  10.177  0.00  0.00    +0.029 C 
ATOM     21  C   UNL     1       5.360   5.154  10.652  0.00  0.00    +0.144 C 
ENDBRANCH   9  21
ENDBRANCH   5  18
ENDBRANCH   1   7
BRANCH   2  22
ATOM     22  C   UNL     1       4.824   1.505   3.239  0.00  0.00    +0.174 C 
BRANCH  22  23
ATOM     23  S   UNL     1       3.243   1.980   2.496  0.00  0.00    -0.078 S 
BRANCH  23  24
ATOM     24  C   UNL     1       3.349   1.109   0.969  0.00  0.00    +0.174 A 
ATOM     25  N   UNL     1       4.350   0.352   0.584  0.00  0.00    -0.230 NA
ATOM     26  C   UNL     1       4.086  -0.151  -0.634  0.00  0.00    +0.131 A 
ATOM     27  C   UNL     1       2.881   0.297  -1.026  0.00  0.00    +0.113 A 
ATOM     28  N   UNL     1       2.405   1.105  -0.015  0.00  0.00    -0.294 N 
BRANCH  28  29
ATOM     29  C   UNL     1       1.180   1.787   0.000  0.00  0.00    +0.052 A 
ATOM     30  C   UNL     1      -0.013   1.076   0.008  0.00  0.00    +0.026 A 
ATOM     31  C   UNL     1      -1.217   1.751   0.017  0.00  0.00    +0.002 A 
ATOM     32  C   UNL     1      -1.237   3.134   0.031  0.00  0.00    +0.004 A 
ATOM     33  C   UNL     1      -0.051   3.844   0.023  0.00  0.00    -0.046 A 
ATOM     34  C   UNL     1       1.157   3.175   0.008  0.00  0.00    -0.024 A 
ATOM     35  C   UNL     1       2.449   3.950  -0.001  0.00  0.00    +0.046 C 
ATOM     36  C   UNL     1      -0.077   5.351   0.032  0.00  0.00    +0.044 C 
ENDBRANCH  28  29
ENDBRANCH  23  24
ENDBRANCH  22  23
ENDBRANCH   2  22
TORSDOF 7
