REMARK  Name = ZINC39528326
REMARK  8 active torsions:
REMARK  status: ('A' for Active; 'I' for Inactive)
REMARK    1  A    between atoms: C_4  and  C_7
REMARK    2  A    between atoms: C_7  and  C_8
REMARK    3  A    between atoms: C_10  and  S_28
REMARK    4  A    between atoms: C_13  and  N_14
REMARK    5  A    between atoms: C_18  and  C_21
REMARK    6  A    between atoms: C_21  and  C_22
REMARK    7  A    between atoms: S_28  and  O_31
REMARK    8  A    between atoms: O_31  and  C_32
REMARK                            x       y       z     vdW  Elec       q    Type
REMARK                         _______ _______ _______ _____ _____    ______ ____
ROOT
ATOM      1  C   UNL     1       3.416  -0.637   1.282  0.00  0.00    -0.020 A 
ATOM      2  C   UNL     1       4.136   0.472   1.684  0.00  0.00    +0.036 A 
ATOM      3  C   UNL     1       5.022   0.377   2.741  0.00  0.00    +0.128 A 
ATOM      4  C   UNL     1       5.191  -0.828   3.400  0.00  0.00    +0.032 A 
ATOM      5  C   UNL     1       4.474  -1.940   3.003  0.00  0.00    +0.025 A 
ATOM      6  C   UNL     1       3.579  -1.846   1.944  0.00  0.00    +0.033 A 
ENDROOT
BRANCH   6   7
ATOM      7  N   UNL     1       2.849  -2.968   1.544  0.00  0.00    -0.333 N 
ATOM      8  C   UNL     1       1.645  -3.388   2.277  0.00  0.00    +0.086 C 
ATOM      9  C   UNL     1       1.767  -4.882   2.596  0.00  0.00    -0.063 C 
ATOM     10  N   UNL     1       2.012  -5.628   1.355  0.00  0.00    +0.383 N 
ATOM     11  C   UNL     1       3.308  -5.238   0.785  0.00  0.00    -0.050 C 
ATOM     12  C   UNL     1       3.259  -3.759   0.373  0.00  0.00    +0.089 C 
ATOM     13  H   UNL     1       2.017  -6.617   1.554  0.00  0.00    -0.085 HD
ATOM     14  H   UNL     1       1.279  -5.424   0.692  0.00  0.00    -0.085 HD
BRANCH  11  15
ATOM     15  C   UNL     1       3.603  -6.099  -0.445  0.00  0.00    +0.021 C 
BRANCH  15  16
ATOM     16  C   UNL     1       3.622  -7.553  -0.048  0.00  0.00    -0.049 A 
ATOM     17  C   UNL     1       4.767  -8.107   0.491  0.00  0.00    +0.003 A 
ATOM     18  C   UNL     1       4.784  -9.441   0.855  0.00  0.00    +0.000 A 
ATOM     19  C   UNL     1       3.655 -10.219   0.680  0.00  0.00    +0.000 A 
ATOM     20  C   UNL     1       2.509  -9.664   0.142  0.00  0.00    +0.000 A 
ATOM     21  C   UNL     1       2.491  -8.330  -0.218  0.00  0.00    +0.003 A 
ENDBRANCH  15  16
ENDBRANCH  11  15
ENDBRANCH   6   7
BRANCH   3  22
ATOM     22  S   UNL     1       5.938   1.793   3.250  0.00  0.00    +0.151 S 
ATOM     23  O   UNL     1       7.101   1.309   3.909  0.00  0.00    -0.131 OA
ATOM     24  O   UNL     1       6.005   2.659   2.126  0.00  0.00    -0.131 OA
BRANCH  22  25
ATOM     25  O   UNL     1       5.108   2.511   4.304  0.00  0.00    -0.342 OA
BRANCH  25  26
ATOM     26  C   UNL     1       5.105   1.898   5.517  0.00  0.00    +0.157 A 
ATOM     27  C   UNL     1       4.143   0.943   5.811  0.00  0.00    +0.048 A 
ATOM     28  C   UNL     1       4.142   0.322   7.045  0.00  0.00    +0.004 A 
ATOM     29  C   UNL     1       5.099   0.651   7.987  0.00  0.00    +0.000 A 
ATOM     30  C   UNL     1       6.059   1.603   7.697  0.00  0.00    +0.004 A 
ATOM     31  C   UNL     1       6.067   2.223   6.462  0.00  0.00    +0.048 A 
ENDBRANCH  25  26
ENDBRANCH  22  25
ENDBRANCH   3  22
BRANCH   1  32
ATOM     32  C   UNL     1       2.451  -0.532   0.129  0.00  0.00    +0.072 C 
BRANCH  32  36
ATOM     33  C   UNL     1      -1.245   1.106   1.508  0.00  0.00    +0.000 A 
ATOM     34  C   UNL     1      -0.195   1.945   1.185  0.00  0.00    +0.000 A 
ATOM     35  C   UNL     1       1.001   1.415   0.739  0.00  0.00    +0.004 A 
ATOM     36  C   UNL     1       1.147   0.046   0.616  0.00  0.00    -0.043 A 
ATOM     37  C   UNL     1       0.098  -0.793   0.940  0.00  0.00    +0.004 A 
ATOM     38  C   UNL     1      -1.099  -0.263   1.385  0.00  0.00    +0.000 A 
ENDBRANCH  32  36
ENDBRANCH   1  32
TORSDOF 8
