REMARK  Name = ZINC24337349
REMARK  11 active torsions:
REMARK  status: ('A' for Active; 'I' for Inactive)
REMARK    1  A    between atoms: C_1  and  C_2
REMARK    2  A    between atoms: C_3  and  C_34
REMARK    3  A    between atoms: N_4  and  C_27
REMARK    4  A    between atoms: C_5  and  N_9
REMARK    5  A    between atoms: C_6  and  C_7
REMARK    6  A    between atoms: C_10  and  C_12
REMARK    7  A    between atoms: C_12  and  N_13
REMARK    8  A    between atoms: N_13  and  C_14
REMARK    9  A    between atoms: N_13  and  C_15
REMARK   10  A    between atoms: C_15  and  C_17
REMARK   11  A    between atoms: C_15  and  C_18
REMARK                            x       y       z     vdW  Elec       q    Type
REMARK                         _______ _______ _______ _____ _____    ______ ____
ROOT
ATOM      1  N   UNL     1      -0.923   2.424  -0.103  0.00  0.00    -0.272 N 
ATOM      2  C   UNL     1      -2.210   2.030  -0.185  0.00  0.00    +0.202 C 
ATOM      3  O   UNL     1      -2.488   0.851  -0.124  0.00  0.00    -0.278 OA
ATOM      4  H   UNL     1      -0.672   3.494  -0.142  0.00  0.00    +0.156 HD
ENDROOT
BRANCH   1   9
ATOM      5  C   UNL     1       3.310   0.017   1.249  0.00  0.00    +0.047 C 
ATOM      6  C   UNL     1       1.987   0.366   0.618  0.00  0.00    -0.010 A 
ATOM      7  C   UNL     1       1.273  -0.400  -0.223  0.00  0.00    +0.027 A 
ATOM      8  N   UNL     1       0.128   0.264  -0.580  0.00  0.00    -0.300 N 
ATOM      9  C   UNL     1       0.084   1.480   0.029  0.00  0.00    +0.128 A 
ATOM     10  C   UNL     1       1.229   1.610   0.803  0.00  0.00    +0.095 A 
ATOM     11  C   UNL     1       1.669  -1.774  -0.700  0.00  0.00    +0.064 C 
BRANCH   8  12
ATOM     12  C   UNL     1      -0.853  -0.235  -1.447  0.00  0.00    +0.051 A 
ATOM     13  C   UNL     1      -1.117   0.413  -2.646  0.00  0.00    +0.026 A 
ATOM     14  C   UNL     1      -2.084  -0.081  -3.500  0.00  0.00    +0.005 A 
ATOM     15  C   UNL     1      -2.790  -1.221  -3.162  0.00  0.00    +0.038 A 
ATOM     16  C   UNL     1      -2.530  -1.871  -1.966  0.00  0.00    +0.125 A 
ATOM     17  C   UNL     1      -1.559  -1.382  -1.110  0.00  0.00    +0.064 A 
ATOM     18  F   UNL     1      -3.221  -2.984  -1.639  0.00  0.00    -0.205 F 
ENDBRANCH   8  12
BRANCH  10  19
ATOM     19  C   UNL     1       1.597   2.730   1.616  0.00  0.00    +0.103 C 
ATOM     20  N   UNL     1       1.889   3.619   2.260  0.00  0.00    -0.191 NA
ENDBRANCH  10  19
ENDBRANCH   1   9
BRANCH   2  21
ATOM     21  C   UNL     1      -3.302   3.054  -0.353  0.00  0.00    +0.019 C 
BRANCH  21  22
ATOM     22  N   UNL     1      -4.604   2.376  -0.416  0.00  0.00    +0.389 N 
ATOM     23  C   UNL     1      -4.709   1.551  -1.627  0.00  0.00    -0.095 C 
ATOM     24  H   UNL     1      -4.680   1.709   0.455  0.00  0.00    -0.081 HD
BRANCH  22  25
ATOM     25  C   UNL     1      -5.706   3.344  -0.341  0.00  0.00    -0.014 C 
ATOM     26  C   UNL     1      -5.756   4.161  -1.633  0.00  0.00    -0.006 C 
BRANCH  25  27
ATOM     27  C   UNL     1      -7.009   2.608  -0.161  0.00  0.00    +0.066 A 
ATOM     28  N   UNL     1      -7.436   1.552  -0.795  0.00  0.00    -0.246 NA
ATOM     29  C   UNL     1      -8.631   0.984  -0.533  0.00  0.00    +0.078 A 
ATOM     30  C   UNL     1      -9.225  -0.153  -1.125  0.00  0.00    +0.029 A 
ATOM     31  C   UNL     1     -10.455  -0.579  -0.731  0.00  0.00    +0.002 A 
ATOM     32  C   UNL     1     -11.170   0.079   0.260  0.00  0.00    +0.001 A 
ATOM     33  C   UNL     1     -10.624   1.196   0.864  0.00  0.00    +0.017 A 
ATOM     34  C   UNL     1      -9.382   1.634   0.472  0.00  0.00    +0.039 A 
ATOM     35  S   UNL     1      -8.307   2.968   0.935  0.00  0.00    -0.074 S 
ENDBRANCH  25  27
ENDBRANCH  22  25
ENDBRANCH  21  22
ENDBRANCH   2  21
TORSDOF 7
