REMARK  Name = ZINC20926693
REMARK  6 active torsions:
REMARK  status: ('A' for Active; 'I' for Inactive)
REMARK    1  A    between atoms: C_1  and  C_2
REMARK    2  A    between atoms: C_3  and  C_18
REMARK    3  A    between atoms: C_4  and  N_13
REMARK    4  A    between atoms: N_5  and  C_7
REMARK    5  A    between atoms: N_19  and  N_20
REMARK    6  A    between atoms: C_21  and  C_23
REMARK                            x       y       z     vdW  Elec       q    Type
REMARK                         _______ _______ _______ _____ _____    ______ ____
ROOT
ATOM      1  C   UNL     1       0.016   0.001   0.181  0.00  0.00    +0.068 C 
ATOM      2  C   UNL     1      -0.012   1.505   0.086  0.00  0.00    +0.071 A 
ATOM      3  C   UNL     1      -1.163   2.318   0.190  0.00  0.00    +0.057 A 
ATOM      4  C   UNL     1      -0.747   3.636   0.051  0.00  0.00    +0.134 A 
ATOM      5  N   UNL     1       0.599   3.611  -0.138  0.00  0.00    -0.218 N 
ATOM      6  N   UNL     1       1.021   2.277  -0.111  0.00  0.00    -0.169 NA
ENDROOT
BRANCH   5   7
ATOM      7  C   UNL     1       1.423   4.729  -0.329  0.00  0.00    +0.067 A 
ATOM      8  C   UNL     1       1.002   5.772  -1.143  0.00  0.00    +0.028 A 
ATOM      9  C   UNL     1       1.814   6.875  -1.325  0.00  0.00    +0.002 A 
ATOM     10  C   UNL     1       3.049   6.935  -0.706  0.00  0.00    +0.000 A 
ATOM     11  C   UNL     1       3.473   5.896   0.101  0.00  0.00    +0.002 A 
ATOM     12  C   UNL     1       2.663   4.793   0.291  0.00  0.00    +0.028 A 
ENDBRANCH   5   7
BRANCH   4  13
ATOM     13  N   UNL     1      -1.552   4.763   0.091  0.00  0.00    -0.315 N 
ATOM     14  C   UNL     1      -2.651   4.667  -0.903  0.00  0.00    +0.106 C 
ATOM     15  C   UNL     1      -3.696   5.682  -0.375  0.00  0.00    +0.020 C 
ATOM     16  C   UNL     1      -3.601   5.510   1.158  0.00  0.00    +0.020 C 
ATOM     17  C   UNL     1      -2.211   4.897   1.409  0.00  0.00    +0.106 C 
ENDBRANCH   4  13
BRANCH   3  18
ATOM     18  C   UNL     1      -2.543   1.855   0.409  0.00  0.00    +0.143 C 
ATOM     19  N   UNL     1      -2.791   0.585   0.526  0.00  0.00    -0.187 NA
BRANCH  19  20
ATOM     20  N   UNL     1      -4.105   0.145   0.735  0.00  0.00    -0.202 N 
ATOM     21  C   UNL     1      -4.363  -1.173   0.856  0.00  0.00    +0.282 C 
ATOM     22  O   UNL     1      -3.455  -1.979   0.786  0.00  0.00    -0.267 OA
ATOM     23  H   UNL     1      -4.926   0.874   0.798  0.00  0.00    +0.178 HD
BRANCH  21  24
ATOM     24  C   UNL     1      -5.752  -1.638   1.076  0.00  0.00    +0.128 A 
ATOM     25  C   UNL     1      -6.003  -3.014   1.201  0.00  0.00    +0.034 A 
ATOM     26  C   UNL     1      -7.278  -3.455   1.404  0.00  0.00    +0.012 A 
ATOM     27  C   UNL     1      -8.309  -2.500   1.482  0.00  0.00    +0.000 A 
ATOM     28  C   UNL     1      -9.644  -2.885   1.690  0.00  0.00    +0.010 A 
ATOM     29  C   UNL     1     -10.615  -1.933   1.760  0.00  0.00    +0.001 A 
ATOM     30  C   UNL     1     -10.304  -0.581   1.629  0.00  0.00    +0.002 A 
ATOM     31  C   UNL     1      -9.023  -0.171   1.427  0.00  0.00    +0.028 A 
ATOM     32  C   UNL     1      -7.989  -1.124   1.348  0.00  0.00    +0.072 A 
ATOM     33  N   UNL     1      -6.725  -0.750   1.156  0.00  0.00    -0.242 NA
ENDBRANCH  21  24
ENDBRANCH  19  20
ENDBRANCH   3  18
TORSDOF 5
