REMARK  Name = ZINC00287606
REMARK  4 active torsions:
REMARK  status: ('A' for Active; 'I' for Inactive)
REMARK    1  A    between atoms: C_4  and  C_8
REMARK    2  A    between atoms: C_8  and  S_9
REMARK    3  A    between atoms: S_9  and  C_10
REMARK    4  A    between atoms: C_14  and  N_16
REMARK                            x       y       z     vdW  Elec       q    Type
REMARK                         _______ _______ _______ _____ _____    ______ ____
ROOT
ATOM      1  C   UNL     1      -3.530   1.610   0.028  0.00  0.00    +0.192 A 
ATOM      2  N   UNL     1      -3.596   2.933   0.035  0.00  0.00    -0.207 NA
ATOM      3  C   UNL     1      -2.488   3.671   0.034  0.00  0.00    +0.122 A 
ATOM      4  C   UNL     1      -1.250   3.034   0.030  0.00  0.00    +0.086 A 
ATOM      5  C   UNL     1      -1.221   1.643   0.017  0.00  0.00    +0.122 A 
ATOM      6  N   UNL     1      -2.369   0.970   0.019  0.00  0.00    -0.207 NA
ATOM      7  N   UNL     1      -2.566   5.055   0.042  0.00  0.00    -0.343 N 
ATOM      8  H   UNL     1      -3.432   5.492   0.049  0.00  0.00    +0.144 HD
ATOM      9  H   UNL     1      -1.754   5.586   0.041  0.00  0.00    +0.144 HD
ENDROOT
BRANCH   5  10
ATOM     10  N   UNL     1      -0.011   0.966   0.007  0.00  0.00    -0.343 N 
ATOM     11  H   UNL     1       0.002  -0.004   0.002  0.00  0.00    +0.144 HD
ATOM     12  H   UNL     1       0.822   1.462   0.002  0.00  0.00    +0.144 HD
ENDBRANCH   5  10
BRANCH   1  13
ATOM     13  S   UNL     1      -5.024   0.676   0.029  0.00  0.00    -0.081 S 
BRANCH  13  14
ATOM     14  C   UNL     1      -6.235   2.021   0.042  0.00  0.00    +0.115 C 
BRANCH  14  18
ATOM     15  C   UNL     1     -10.183   0.385   0.051  0.00  0.00    +0.003 A 
ATOM     16  C   UNL     1      -9.539   0.642   1.246  0.00  0.00    +0.020 A 
ATOM     17  C   UNL     1      -8.261   1.172   1.244  0.00  0.00    +0.046 A 
ATOM     18  C   UNL     1      -7.627   1.444   0.045  0.00  0.00    -0.001 A 
ATOM     19  C   UNL     1      -8.274   1.191  -1.151  0.00  0.00    +0.046 A 
ATOM     20  C   UNL     1      -9.550   0.657  -1.148  0.00  0.00    +0.020 A 
ATOM     21 CL   UNL     1      -7.482   1.539  -2.657  0.00  0.00    -0.083 Cl
ATOM     22 CL   UNL     1      -7.453   1.496   2.746  0.00  0.00    -0.083 Cl
ENDBRANCH  14  18
ENDBRANCH  13  14
ENDBRANCH   1  13
TORSDOF 4
