REMARK  Name = ZINC32016594
REMARK  7 active torsions:
REMARK  status: ('A' for Active; 'I' for Inactive)
REMARK    1  A    between atoms: C_6  and  N_7
REMARK    2  A    between atoms: N_7  and  C_8
REMARK    3  A    between atoms: N_15  and  C1*_16
REMARK    4  A    between atoms: C2*_18  and  O2*_28
REMARK    5  A    between atoms: C3*_20  and  O3*_27
REMARK    6  A    between atoms: C4*_22  and  C5*_25
REMARK    7  A    between atoms: C5*_25  and  O5*_26
REMARK                            x       y       z     vdW  Elec       q    Type
REMARK                         _______ _______ _______ _____ _____    ______ ____
ROOT
ATOM      1  C   UNL     1       3.206   3.162  -0.012  0.00  0.00    +0.045 A 
ATOM      2  C   UNL     1       3.977   2.014  -0.025  0.00  0.00    +0.115 A 
ATOM      3  N   UNL     1       3.426   0.816  -0.026  0.00  0.00    -0.236 NA
ATOM      4  C   UNL     1       2.111   0.653  -0.015  0.00  0.00    +0.164 A 
ATOM      5  C   UNL     1       1.257   1.766  -0.001  0.00  0.00    +0.129 A 
ATOM      6  C   UNL     1       1.819   3.054   0.001  0.00  0.00    +0.058 A 
ATOM      7  N   UNL     1      -0.016   1.297   0.009  0.00  0.00    -0.232 NA
ATOM      8  C   UNL     1       0.002  -0.004   0.002  0.00  0.00    +0.203 A 
ATOM      9  N   UNL     1       1.288  -0.452  -0.013  0.00  0.00    -0.286 N 
ENDROOT
BRANCH   9  10
ATOM     10  C1* UNL     1       1.718  -1.853  -0.025  0.00  0.00    +0.253 C 
ATOM     11  C2* UNL     1       1.973  -2.350   1.415  0.00  0.00    +0.195 C 
ATOM     12  C3* UNL     1       1.469  -3.812   1.401  0.00  0.00    +0.178 C 
ATOM     13  C4* UNL     1       0.973  -4.024  -0.047  0.00  0.00    +0.177 C 
ATOM     14  O4* UNL     1       0.661  -2.699  -0.528  0.00  0.00    -0.346 OA
BRANCH  12  15
ATOM     15  O3* UNL     1       2.536  -4.713   1.702  0.00  0.00    -0.386 OA
ATOM     16  H3* UNL     1       2.349  -5.797   1.733  0.00  0.00    +0.210 HD
ENDBRANCH  12  15
BRANCH  11  17
ATOM     17  O2* UNL     1       3.368  -2.302   1.722  0.00  0.00    -0.385 OA
ATOM     18  H2* UNL     1       3.725  -2.622   2.712  0.00  0.00    +0.210 HD
ENDBRANCH  11  17
BRANCH  13  19
ATOM     19  C5* UNL     1      -0.279  -4.903  -0.057  0.00  0.00    +0.190 C 
BRANCH  19  20
ATOM     20  O5* UNL     1      -0.697  -5.122  -1.406  0.00  0.00    -0.392 OA
ATOM     21  H5* UNL     1      -1.586  -5.735  -1.614  0.00  0.00    +0.210 HD
ENDBRANCH  19  20
ENDBRANCH  13  19
ENDBRANCH   9  10
BRANCH   6  22
ATOM     22  N   UNL     1       1.014   4.188   0.014  0.00  0.00    -0.339 N 
ATOM     23  H   UNL     1      -0.082   4.084   0.024  0.00  0.00    +0.146 HD
BRANCH  22  24
ATOM     24  C   UNL     1       1.623   5.520   0.015  0.00  0.00    +0.070 C 
ATOM     25  C   UNL     1       1.906   5.971   1.463  0.00  0.00    +0.022 C 
ATOM     26  C   UNL     1       1.603   7.490   1.455  0.00  0.00    +0.002 C 
ATOM     27  C   UNL     1       0.368   7.587   0.525  0.00  0.00    +0.002 C 
ATOM     28  C   UNL     1       0.645   6.548  -0.581  0.00  0.00    +0.022 C 
ENDBRANCH  22  24
ENDBRANCH   6  22
TORSDOF 7
