REMARK  Name = ZINC63752299
REMARK  10 active torsions:
REMARK  status: ('A' for Active; 'I' for Inactive)
REMARK    1  A    between atoms: C_1  and  C_2
REMARK    2  A    between atoms: C_2  and  C_3
REMARK    3  A    between atoms: C_3  and  C_4
REMARK    4  A    between atoms: C_4  and  C_5
REMARK    5  A    between atoms: C_5  and  N_6
REMARK    6  A    between atoms: C_7  and  C_9
REMARK    7  A    between atoms: C_11  and  N_20
REMARK    8  A    between atoms: C_14  and  C_19
REMARK    9  A    between atoms: C_21  and  C_23
REMARK   10  A    between atoms: C_26  and  C_29
REMARK                            x       y       z     vdW  Elec       q    Type
REMARK                         _______ _______ _______ _____ _____    ______ ____
ROOT
ATOM      1  C   UNL     1       1.960  -6.617  -3.503  0.00  0.00    +0.211 C 
ATOM      2  C   UNL     1       3.236  -6.612  -2.691  0.00  0.00    +0.051 C 
ATOM      3  C   UNL     1       4.262  -6.799  -3.601  0.00  0.00    +0.018 A 
ATOM      4  C   UNL     1       5.667  -6.885  -3.453  0.00  0.00    +0.015 A 
ATOM      5  C   UNL     1       6.448  -7.076  -4.545  0.00  0.00    -0.050 A 
ATOM      6  C   UNL     1       5.901  -7.192  -5.825  0.00  0.00    +0.005 A 
ATOM      7  C   UNL     1       4.565  -7.120  -6.043  0.00  0.00    +0.026 A 
ATOM      8  C   UNL     1       3.682  -6.921  -4.950  0.00  0.00    +0.045 A 
ATOM      9  N   UNL     1       2.368  -6.818  -4.897  0.00  0.00    -0.369 N 
ATOM     10  C   UNL     1       7.942  -7.166  -4.373  0.00  0.00    +0.044 C 
ATOM     11  H   UNL     1       1.768  -6.867  -5.658  0.00  0.00    +0.161 HD
ENDROOT
BRANCH   1  13
ATOM     12  N   UNL     1       0.482  -5.061  -2.272  0.00  0.00    -0.313 N 
ATOM     13  C   UNL     1       1.246  -5.298  -3.357  0.00  0.00    +0.241 C 
ATOM     14  O   UNL     1       1.359  -4.449  -4.215  0.00  0.00    -0.273 OA
ATOM     15  H   UNL     1       0.392  -5.741  -1.585  0.00  0.00    +0.149 HD
BRANCH  12  16
ATOM     16  C   UNL     1      -0.211  -3.779  -2.129  0.00  0.00    +0.104 C 
BRANCH  16  17
ATOM     17  C   UNL     1      -1.002  -3.770  -0.819  0.00  0.00    +0.019 C 
BRANCH  17  18
ATOM     18  C   UNL     1      -1.727  -2.431  -0.671  0.00  0.00    +0.001 C 
BRANCH  18  20
ATOM     19  C   UNL     1      -3.243  -1.082   0.788  0.00  0.00    +0.004 C 
ATOM     20  C   UNL     1      -2.518  -2.421   0.639  0.00  0.00    -0.003 C 
ENDBRANCH  18  20
ENDBRANCH  17  18
ENDBRANCH  16  17
ENDBRANCH  12  16
ENDBRANCH   1  13
BRANCH   2  21
ATOM     21  N   UNL     1       3.351  -6.455  -1.344  0.00  0.00    -0.282 N 
ATOM     22  C   UNL     1       4.353  -7.063  -0.678  0.00  0.00    +0.248 C 
ATOM     23  O   UNL     1       5.173  -7.724  -1.285  0.00  0.00    -0.270 OA
ATOM     24  H   UNL     1       2.712  -5.907  -0.863  0.00  0.00    +0.155 HD
BRANCH  22  25
ATOM     25  C   UNL     1       4.455  -6.926   0.790  0.00  0.00    +0.037 A 
ATOM     26  C   UNL     1       3.511  -6.173   1.491  0.00  0.00    +0.013 A 
ATOM     27  C   UNL     1       3.612  -6.049   2.861  0.00  0.00    +0.004 A 
ATOM     28  C   UNL     1       4.645  -6.670   3.540  0.00  0.00    -0.050 A 
ATOM     29  C   UNL     1       5.584  -7.418   2.852  0.00  0.00    +0.004 A 
ATOM     30  C   UNL     1       5.491  -7.555   1.482  0.00  0.00    +0.013 A 
ATOM     31  C   UNL     1       4.749  -6.529   5.037  0.00  0.00    +0.044 C 
ENDBRANCH  22  25
ENDBRANCH   2  21
TORSDOF 7
