REMARK  Name = ZINC03290153
REMARK  7 active torsions:
REMARK  status: ('A' for Active; 'I' for Inactive)
REMARK    1  A    between atoms: C_1  and  C_2
REMARK    2  A    between atoms: N_5  and  C_7
REMARK    3  A    between atoms: C_25  and  C_27
REMARK    4  A    between atoms: C_30  and  O_35
REMARK    5  A    between atoms: C_31  and  O_33
REMARK    6  A    between atoms: O_33  and  C_34
REMARK    7  A    between atoms: O_35  and  C_36
REMARK                            x       y       z     vdW  Elec       q    Type
REMARK                         _______ _______ _______ _____ _____    ______ ____
ROOT
ATOM      1  C   UNL     1      -3.198   0.492  -0.713  0.00  0.00    +0.068 C 
ATOM      2  C   UNL     1      -2.213   1.335  -1.480  0.00  0.00    +0.068 A 
ATOM      3  C   UNL     1      -0.888   1.550  -1.133  0.00  0.00    +0.043 A 
ATOM      4  C   UNL     1      -0.319   2.377  -2.087  0.00  0.00    +0.141 A 
ATOM      5  N   UNL     1      -1.302   2.652  -2.999  0.00  0.00    -0.216 N 
ATOM      6  N   UNL     1      -2.466   1.988  -2.589  0.00  0.00    -0.169 NA
ATOM      7  N   UNL     1       0.974   2.750  -1.992  0.00  0.00    -0.328 N 
ATOM      8  C   UNL     1       1.795   2.383  -1.026  0.00  0.00    +0.105 C 
ATOM      9  C   UNL     1       3.131   2.859  -1.061  0.00  0.00    +0.043 C 
ATOM     10  C   UNL     1       4.013   2.514  -0.097  0.00  0.00    +0.013 C 
ATOM     11  C   UNL     1       3.574   1.639   0.993  0.00  0.00    -0.004 A 
ATOM     12  C   UNL     1       4.452   1.256   2.010  0.00  0.00    +0.010 A 
ATOM     13  C   UNL     1       4.006   0.433   3.020  0.00  0.00    +0.001 A 
ATOM     14  C   UNL     1       2.694  -0.017   3.031  0.00  0.00    +0.002 A 
ATOM     15  C   UNL     1       1.815   0.352   2.034  0.00  0.00    +0.024 A 
ATOM     16  C   UNL     1       2.243   1.182   1.005  0.00  0.00    +0.043 A 
ATOM     17  N   UNL     1       1.381   1.563  -0.003  0.00  0.00    -0.274 N 
ATOM     18  C   UNL     1      -0.013   1.086   0.008  0.00  0.00    +0.146 C 
ATOM     19  H   UNL     1       1.333   3.408  -2.798  0.00  0.00    +0.169 HD
ENDROOT
BRANCH   5  20
ATOM     20  C   UNL     1      -1.169   3.456  -4.138  0.00  0.00    +0.068 A 
ATOM     21  C   UNL     1      -0.351   4.577  -4.107  0.00  0.00    +0.029 A 
ATOM     22  C   UNL     1      -0.217   5.365  -5.234  0.00  0.00    +0.022 A 
ATOM     23  C   UNL     1      -0.906   5.043  -6.390  0.00  0.00    +0.041 A 
ATOM     24  C   UNL     1      -1.727   3.930  -6.422  0.00  0.00    +0.022 A 
ATOM     25  C   UNL     1      -1.860   3.136  -5.300  0.00  0.00    +0.029 A 
ATOM     26 CL   UNL     1      -0.741   6.039  -7.803  0.00  0.00    -0.084 Cl
ENDBRANCH   5  20
BRANCH  18  27
ATOM     27  C   UNL     1      -0.652   1.535   1.296  0.00  0.00    -0.018 A 
ATOM     28  C   UNL     1      -0.438   2.820   1.761  0.00  0.00    +0.009 A 
ATOM     29  C   UNL     1      -1.022   3.237   2.943  0.00  0.00    +0.050 A 
ATOM     30  C   UNL     1      -1.824   2.367   3.664  0.00  0.00    +0.168 A 
ATOM     31  C   UNL     1      -2.040   1.075   3.196  0.00  0.00    +0.162 A 
ATOM     32  C   UNL     1      -1.456   0.664   2.008  0.00  0.00    +0.055 A 
BRANCH  31  33
ATOM     33  O   UNL     1      -2.826   0.217   3.901  0.00  0.00    -0.491 OA
ATOM     34  C   UNL     1      -3.002  -1.094   3.360  0.00  0.00    +0.277 C 
ENDBRANCH  31  33
BRANCH  30  35
ATOM     35  O   UNL     1      -2.400   2.776   4.826  0.00  0.00    -0.431 OA
BRANCH  35  36
ATOM     36  C   UNL     1      -2.134   4.116   5.245  0.00  0.00    +0.541 C 
ATOM     37  F   UNL     1      -0.757   4.283   5.428  0.00  0.00    -0.166 F 
ATOM     38  F   UNL     1      -2.587   5.009   4.268  0.00  0.00    -0.166 F 
ENDBRANCH  35  36
ENDBRANCH  30  35
ENDBRANCH  18  27
TORSDOF 5
