REMARK  Name = ZINC05897897
REMARK  7 active torsions:
REMARK  status: ('A' for Active; 'I' for Inactive)
REMARK    1  A    between atoms: C_1  and  C_2
REMARK    2  A    between atoms: C_2  and  C_3
REMARK    3  A    between atoms: C_3  and  C_4
REMARK    4  A    between atoms: C_4  and  C_5
REMARK    5  A    between atoms: C_8  and  N_11
REMARK    6  A    between atoms: C_12  and  O_30
REMARK    7  A    between atoms: C_13  and  C_20
REMARK                            x       y       z     vdW  Elec       q    Type
REMARK                         _______ _______ _______ _____ _____    ______ ____
ROOT
ATOM      1  N   UNL     1       5.298   3.667   1.331  0.00  0.00    -0.233 N 
ATOM      2  C   UNL     1       4.205   3.445   0.529  0.00  0.00    +0.208 A 
ATOM      3  C   UNL     1       3.146   2.742   1.021  0.00  0.00    +0.067 A 
ATOM      4  C   UNL     1       3.203   2.251   2.338  0.00  0.00    +0.259 A 
ATOM      5  O   UNL     1       2.270   1.615   2.797  0.00  0.00    -0.267 OA
ATOM      6  N   UNL     1       4.298   2.487   3.088  0.00  0.00    -0.274 N 
ATOM      7  H   UNL     1       4.341   2.140   4.025  0.00  0.00    +0.173 HD
ATOM      8  C   UNL     1       5.331   3.188   2.587  0.00  0.00    +0.336 A 
ATOM      9  O   UNL     1       6.309   3.391   3.280  0.00  0.00    -0.246 OA
ENDROOT
BRANCH   3  10
ATOM     10  C   UNL     1       1.932   2.489   0.164  0.00  0.00    +0.001 C 
ATOM     11  C   UNL     1       0.750   3.215   0.750  0.00  0.00    -0.054 A 
ATOM     12  C   UNL     1       0.934   4.508   1.219  0.00  0.00    +0.002 A 
ATOM     13  C   UNL     1      -0.122   5.212   1.759  0.00  0.00    +0.000 A 
ATOM     14  C   UNL     1      -1.373   4.627   1.834  0.00  0.00    +0.000 A 
ATOM     15  C   UNL     1      -1.557   3.339   1.375  0.00  0.00    +0.004 A 
ATOM     16  C   UNL     1      -0.497   2.632   0.828  0.00  0.00    -0.047 A 
ATOM     17  C   UNL     1      -0.746   1.229   0.336  0.00  0.00    +0.016 C 
ATOM     18  C   UNL     1       0.396   0.786  -0.579  0.00  0.00    -0.077 C 
ATOM     19  N   UNL     1       1.675   1.043   0.109  0.00  0.00    +0.387 N 
ATOM     20  H   UNL     1       1.630   0.669   1.064  0.00  0.00    -0.085 HD
ATOM     21  H   UNL     1       2.436   0.582  -0.404  0.00  0.00    -0.085 HD
ENDBRANCH   3  10
BRANCH   1  25
ATOM     22  C   UNL     1       8.542   5.827  -0.148  0.00  0.00    -0.047 A 
ATOM     23  C   UNL     1       8.505   4.452  -0.293  0.00  0.00    +0.005 A 
ATOM     24  C   UNL     1       7.431   3.734   0.196  0.00  0.00    +0.026 A 
ATOM     25  C   UNL     1       6.389   4.394   0.834  0.00  0.00    +0.054 A 
ATOM     26  C   UNL     1       6.427   5.774   0.973  0.00  0.00    +0.026 A 
ATOM     27  C   UNL     1       7.506   6.487   0.487  0.00  0.00    +0.005 A 
BRANCH  22  28
ATOM     28  C   UNL     1       9.715   6.608  -0.682  0.00  0.00    +0.035 C 
BRANCH  28  29
ATOM     29  C   UNL     1       9.435   7.024  -2.128  0.00  0.00    +0.004 C 
BRANCH  29  31
ATOM     30  C   UNL     1      10.346   8.232  -4.116  0.00  0.00    +0.004 C 
ATOM     31  C   UNL     1      10.626   7.816  -2.670  0.00  0.00    -0.003 C 
ENDBRANCH  29  31
ENDBRANCH  28  29
ENDBRANCH  22  28
ENDBRANCH   1  25
BRANCH   2  32
ATOM     32  O   UNL     1       4.177   3.922  -0.733  0.00  0.00    -0.493 OA
ATOM     33  H   UNL     1       5.003   4.339  -1.014  0.00  0.00    +0.294 HD
ENDBRANCH   2  32
TORSDOF 6
