REMARK  Name = ZINC01380942
REMARK  9 active torsions:
REMARK  status: ('A' for Active; 'I' for Inactive)
REMARK    1  A    between atoms: C_1  and  C_2
REMARK    2  A    between atoms: C_5  and  N_9
REMARK    3  A    between atoms: C_6  and  C_8
REMARK    4  A    between atoms: C_10  and  C_33
REMARK    5  A    between atoms: C_18  and  C_24
REMARK    6  A    between atoms: N_26  and  C_27
REMARK    7  A    between atoms: C_27  and  C_28
REMARK    8  A    between atoms: N_35  and  C_36
REMARK    9  A    between atoms: C_36  and  C_37
REMARK                            x       y       z     vdW  Elec       q    Type
REMARK                         _______ _______ _______ _____ _____    ______ ____
ROOT
ATOM      1  N   UNL     1       0.059  -4.170  -0.021  0.00  0.00    -0.256 N 
ATOM      2  C   UNL     1      -1.151  -5.027  -0.025  0.00  0.00    +0.203 C 
ATOM      3  C   UNL     1      -0.647  -6.361  -0.480  0.00  0.00    +0.127 C 
ATOM      4  C   UNL     1      -1.273  -7.665  -0.134  0.00  0.00    +0.009 C 
ATOM      5  C   UNL     1      -0.659  -8.537  -0.944  0.00  0.00    +0.004 C 
ATOM      6  C   UNL     1       0.319  -7.739  -1.815  0.00  0.00    +0.155 C 
ATOM      7  O   UNL     1      -0.398  -6.455  -1.909  0.00  0.00    -0.358 OA
ATOM      8  C   UNL     1       1.517  -7.334  -0.897  0.00  0.00    +0.123 C 
ATOM      9  C   UNL     1       0.812  -6.375   0.107  0.00  0.00    +0.128 C 
ATOM     10  C   UNL     1       1.186  -4.925  -0.032  0.00  0.00    +0.228 C 
ATOM     11  O   UNL     1       2.317  -4.498  -0.133  0.00  0.00    -0.275 OA
ENDROOT
BRANCH   1  16
ATOM     12  C   UNL     1      -0.018   1.503   0.010  0.00  0.00    +0.044 C 
ATOM     13  C   UNL     1       0.002  -0.004   0.002  0.00  0.00    -0.050 A 
ATOM     14  C   UNL     1       0.006  -0.688  -1.200  0.00  0.00    +0.005 A 
ATOM     15  C   UNL     1       0.025  -2.068  -1.211  0.00  0.00    +0.024 A 
ATOM     16  C   UNL     1       0.040  -2.771  -0.013  0.00  0.00    +0.040 A 
ATOM     17  C   UNL     1       0.037  -2.082   1.192  0.00  0.00    -0.029 A 
ATOM     18  C   UNL     1       0.023  -0.700   1.196  0.00  0.00    +0.008 A 
ATOM     19  C   UNL     1       0.054  -2.840   2.494  0.00  0.00    +0.045 C 
ENDBRANCH   1  16
BRANCH   8  20
ATOM     20  C   UNL     1       2.100  -8.540  -0.207  0.00  0.00    +0.220 C 
ATOM     21  O   UNL     1       2.090  -8.609   1.004  0.00  0.00    -0.275 OA
ATOM     22  N   UNL     1       2.631  -9.542  -0.935  0.00  0.00    -0.310 N 
ATOM     23  H   UNL     1       2.639  -9.487  -1.903  0.00  0.00    +0.149 HD
BRANCH  22  24
ATOM     24  C   UNL     1       3.197 -10.715  -0.264  0.00  0.00    +0.146 C 
BRANCH  24  25
ATOM     25  C   UNL     1       3.721 -11.680  -1.296  0.00  0.00    +0.007 A 
ATOM     26  C   UNL     1       4.960 -11.757  -1.841  0.00  0.00    +0.013 A 
ATOM     27  C   UNL     1       5.218 -12.736  -2.782  0.00  0.00    +0.008 A 
ATOM     28  C   UNL     1       4.226 -13.591  -3.130  0.00  0.00    +0.045 A 
ATOM     29  S   UNL     1       2.875 -13.024  -2.110  0.00  0.00    -0.100 S 
ENDBRANCH  24  25
ENDBRANCH  22  24
ENDBRANCH   8  20
BRANCH   2  30
ATOM     30  C   UNL     1      -2.177  -4.490  -0.989  0.00  0.00    +0.237 C 
ATOM     31  O   UNL     1      -1.844  -3.711  -1.857  0.00  0.00    -0.274 OA
ATOM     32  N   UNL     1      -3.464  -4.875  -0.887  0.00  0.00    -0.310 N 
ATOM     33  H   UNL     1      -3.731  -5.498  -0.193  0.00  0.00    +0.149 HD
BRANCH  32  34
ATOM     34  C   UNL     1      -4.462  -4.352  -1.824  0.00  0.00    +0.139 C 
BRANCH  34  35
ATOM     35  C   UNL     1      -5.812  -4.934  -1.497  0.00  0.00    -0.030 A 
ATOM     36  C   UNL     1      -6.215  -6.120  -2.082  0.00  0.00    +0.005 A 
ATOM     37  C   UNL     1      -7.454  -6.653  -1.781  0.00  0.00    +0.000 A 
ATOM     38  C   UNL     1      -8.291  -6.001  -0.895  0.00  0.00    +0.000 A 
ATOM     39  C   UNL     1      -7.888  -4.816  -0.309  0.00  0.00    +0.000 A 
ATOM     40  C   UNL     1      -6.647  -4.284  -0.606  0.00  0.00    +0.005 A 
ENDBRANCH  34  35
ENDBRANCH  32  34
ENDBRANCH   2  30
TORSDOF 7
