REMARK  Name = ZINC64023936
REMARK  4 active torsions:
REMARK  status: ('A' for Active; 'I' for Inactive)
REMARK    1  A    between atoms: C_6  and  C_11
REMARK    2  A    between atoms: C_11  and  N_12
REMARK    3  A    between atoms: C_16  and  C_19
REMARK    4  A    between atoms: C_23  and  C_25
REMARK                            x       y       z     vdW  Elec       q    Type
REMARK                         _______ _______ _______ _____ _____    ______ ____
ROOT
ATOM      1  N   UNL     1       5.124  -2.633   1.277  0.00  0.00    -0.299 NA
ATOM      2  C   UNL     1       5.777  -3.331   0.163  0.00  0.00    +0.084 C 
ATOM      3  C   UNL     1       7.280  -3.042   0.189  0.00  0.00    +0.016 C 
ATOM      4  C   UNL     1       7.863  -3.514   1.524  0.00  0.00    +0.012 C 
ATOM      5  C   UNL     1       7.132  -2.808   2.669  0.00  0.00    +0.050 C 
ATOM      6  C   UNL     1       5.634  -3.104   2.571  0.00  0.00    +0.094 C 
ENDROOT
BRANCH   5   7
ATOM      7  C   UNL     1       7.660  -3.310   3.988  0.00  0.00    +0.058 C 
ATOM      8  N   UNL     1       7.013  -3.983   4.880  0.00  0.00    -0.158 NA
ATOM      9  N   UNL     1       7.797  -4.292   5.987  0.00  0.00    -0.161 NA
ATOM     10  C   UNL     1       9.002  -3.837   5.879  0.00  0.00    +0.121 C 
ATOM     11  C   UNL     1       9.062  -3.134   4.537  0.00  0.00    +0.108 C 
BRANCH  11  12
ATOM     12  C   UNL     1       9.383  -1.673   4.719  0.00  0.00    -0.033 A 
ATOM     13  C   UNL     1       8.615  -0.898   5.569  0.00  0.00    +0.007 A 
ATOM     14  C   UNL     1       8.909   0.442   5.737  0.00  0.00    +0.038 A 
ATOM     15  C   UNL     1       9.971   1.008   5.053  0.00  0.00    +0.123 A 
ATOM     16  C   UNL     1      10.739   0.232   4.202  0.00  0.00    +0.038 A 
ATOM     17  C   UNL     1      10.447  -1.110   4.040  0.00  0.00    +0.007 A 
ATOM     18  F   UNL     1      10.258   2.318   5.216  0.00  0.00    -0.205 F 
ENDBRANCH  11  12
ENDBRANCH   5   7
BRANCH   1  19
ATOM     19  C   UNL     1       3.664  -2.775   1.204  0.00  0.00    +0.113 C 
BRANCH  19  25
ATOM     20  C   UNL     1      -0.016   1.348   0.009  0.00  0.00    +0.001 A 
ATOM     21  C   UNL     1       1.166   2.101   0.002  0.00  0.00    +0.002 A 
ATOM     22  C   UNL     1       2.391   1.535  -0.013  0.00  0.00    +0.026 A 
ATOM     23  C   UNL     1       2.529   0.120  -0.022  0.00  0.00    +0.043 A 
ATOM     24  N   UNL     1       3.587  -0.654  -0.037  0.00  0.00    -0.377 N 
ATOM     25  C   UNL     1       3.143  -2.053  -0.041  0.00  0.00    +0.117 C 
ATOM     26  C   UNL     1       1.631  -2.008  -0.025  0.00  0.00    +0.008 C 
ATOM     27  C   UNL     1       1.295  -0.698  -0.014  0.00  0.00    -0.004 A 
ATOM     28  C   UNL     1       0.002  -0.004   0.002  0.00  0.00    +0.010 A 
ATOM     29  H   UNL     1       4.509  -0.353  -0.045  0.00  0.00    +0.160 HD
ENDBRANCH  19  25
ENDBRANCH   1  19
TORSDOF 4
