REMARK  Name = ZINC58222858
REMARK  4 active torsions:
REMARK  status: ('A' for Active; 'I' for Inactive)
REMARK    1  A    between atoms: C_3  and  N_24
REMARK    2  A    between atoms: C_6  and  C_7
REMARK    3  A    between atoms: N_9  and  N_10
REMARK    4  A    between atoms: C_11  and  C_13
REMARK                            x       y       z     vdW  Elec       q    Type
REMARK                         _______ _______ _______ _____ _____    ______ ____
ROOT
ATOM      1  C   UNL     1      -1.266  -0.761   0.011  0.00  0.00    +0.260 C 
ATOM      2  O   UNL     1      -2.327  -0.170   0.024  0.00  0.00    -0.269 OA
ATOM      3  N   UNL     1      -1.245  -2.109   0.003  0.00  0.00    -0.230 N 
ATOM      4  H   UNL     1      -0.398  -2.582  -0.008  0.00  0.00    +0.173 HD
ENDROOT
BRANCH   1  10
ATOM      5  C   UNL     1      -0.017   1.393   0.010  0.00  0.00    +0.015 A 
ATOM      6  C   UNL     1       1.167   2.096   0.002  0.00  0.00    +0.027 A 
ATOM      7  C   UNL     1       2.381   1.417  -0.013  0.00  0.00    +0.049 A 
ATOM      8  C   UNL     1       2.403   0.027  -0.021  0.00  0.00    +0.027 A 
ATOM      9  C   UNL     1       1.223  -0.683  -0.014  0.00  0.00    +0.015 A 
ATOM     10  C   UNL     1       0.002  -0.004   0.002  0.00  0.00    +0.038 A 
BRANCH   7  11
ATOM     11  N   UNL     1       3.582   2.135  -0.021  0.00  0.00    -0.288 N 
ATOM     12  C   UNL     1       3.731   3.490  -0.010  0.00  0.00    +0.229 A 
ATOM     13  N   UNL     1       5.012   3.738  -0.023  0.00  0.00    -0.138 NA
ATOM     14  N   UNL     1       5.671   2.635  -0.042  0.00  0.00    -0.138 NA
ATOM     15  C   UNL     1       4.846   1.624  -0.036  0.00  0.00    +0.229 A 
ENDBRANCH   7  11
ENDBRANCH   1  10
BRANCH   3  16
ATOM     16  N   UNL     1      -2.448  -2.828   0.011  0.00  0.00    -0.230 N 
ATOM     17  C   UNL     1      -2.428  -4.175   0.004  0.00  0.00    +0.267 C 
ATOM     18  O   UNL     1      -1.365  -4.768  -0.010  0.00  0.00    -0.268 OA
ATOM     19  H   UNL     1      -3.295  -2.355   0.022  0.00  0.00    +0.173 HD
BRANCH  17  20
ATOM     20  C   UNL     1      -3.686  -4.927   0.012  0.00  0.00    +0.076 A 
ATOM     21  C   UNL     1      -3.887  -6.290   0.013  0.00  0.00    +0.024 A 
ATOM     22  C   UNL     1      -5.212  -6.737  -0.005  0.00  0.00    -0.036 A 
ATOM     23  C   UNL     1      -6.172  -5.795  -0.062  0.00  0.00    -0.006 A 
ATOM     24  S   UNL     1      -5.360  -4.321   0.033  0.00  0.00    -0.088 S 
ATOM     25  C   UNL     1      -7.667  -5.874  -0.254  0.00  0.00    +0.043 C 
ATOM     26  C   UNL     1      -8.154  -7.312  -0.431  0.00  0.00    +0.005 C 
ATOM     27  C   UNL     1      -8.258  -8.019   0.910  0.00  0.00    +0.000 C 
ATOM     28  C   UNL     1      -7.139  -7.647   1.862  0.00  0.00    +0.000 C 
ATOM     29  C   UNL     1      -5.947  -8.546   1.520  0.00  0.00    +0.005 C 
ATOM     30  C   UNL     1      -5.481  -8.231   0.098  0.00  0.00    +0.036 C 
ENDBRANCH  17  20
ENDBRANCH   3  16
TORSDOF 4
