REMARK  Name = ZINC32528260
REMARK  7 active torsions:
REMARK  status: ('A' for Active; 'I' for Inactive)
REMARK    1  A    between atoms: C_1  and  C_2
REMARK    2  A    between atoms: C_2  and  C_3
REMARK    3  A    between atoms: C_3  and  C_5
REMARK    4  A    between atoms: C_3  and  S_20
REMARK    5  A    between atoms: N_7  and  C_8
REMARK    6  A    between atoms: C_9  and  C_17
REMARK    7  A    between atoms: S_20  and  C_21
REMARK                            x       y       z     vdW  Elec       q    Type
REMARK                         _______ _______ _______ _____ _____    ______ ____
ROOT
ATOM      1  C   UNL     1       1.998   4.426   0.067  0.00  0.00    +0.231 C 
ATOM      2  O   UNL     1       0.844   4.121   0.285  0.00  0.00    -0.274 OA
ATOM      3  N   UNL     1       2.946   3.471   0.001  0.00  0.00    -0.278 N 
ATOM      4  H   UNL     1       3.992   3.747  -0.197  0.00  0.00    +0.155 HD
ENDROOT
BRANCH   3   5
ATOM      5  C   UNL     1       2.603   2.140   0.184  0.00  0.00    +0.084 A 
ATOM      6  C   UNL     1       3.429   1.025   0.154  0.00  0.00    +0.068 A 
ATOM      7  C   UNL     1       2.814  -0.273   0.378  0.00  0.00    -0.023 A 
ATOM      8  C   UNL     1       1.481  -0.247   0.594  0.00  0.00    -0.004 A 
ATOM      9  S   UNL     1       1.040   1.465   0.505  0.00  0.00    -0.077 S 
ATOM     10  C   UNL     1       0.586  -1.420   0.851  0.00  0.00    +0.043 C 
ATOM     11  C   UNL     1       1.341  -2.700   0.463  0.00  0.00    +0.005 C 
ATOM     12  C   UNL     1       2.741  -2.652   1.081  0.00  0.00    +0.005 C 
ATOM     13  C   UNL     1       3.584  -1.587   0.377  0.00  0.00    +0.037 C 
BRANCH   6  14
ATOM     14  C   UNL     1       4.869   1.151  -0.095  0.00  0.00    +0.244 C 
ATOM     15  O   UNL     1       5.295   1.105  -1.234  0.00  0.00    -0.270 OA
ATOM     16  N   UNL     1       5.719   1.317   0.937  0.00  0.00    -0.325 N 
ATOM     17  H   UNL     1       6.799   1.412   0.751  0.00  0.00    +0.145 HD
ATOM     18  H   UNL     1       5.333   1.359   1.967  0.00  0.00    +0.145 HD
ENDBRANCH   6  14
ENDBRANCH   3   5
BRANCH   1  19
ATOM     19  C   UNL     1       2.370   5.873  -0.132  0.00  0.00    +0.139 C 
BRANCH  19  21
ATOM     20  C   UNL     1       3.495   5.395  -2.311  0.00  0.00    +0.005 C 
ATOM     21  C   UNL     1       2.384   6.195  -1.627  0.00  0.00    +0.020 C 
ENDBRANCH  19  21
BRANCH  19  22
ATOM     22  S   UNL     1       1.159   6.928   0.702  0.00  0.00    -0.093 S 
BRANCH  22  23
ATOM     23  C   UNL     1       1.980   8.483   0.592  0.00  0.00    +0.098 A 
ATOM     24  C   UNL     1       1.306   9.644   0.999  0.00  0.00    +0.035 A 
ATOM     25  C   UNL     1       1.931  10.852   0.926  0.00  0.00    +0.012 A 
ATOM     26  C   UNL     1       3.248  10.894   0.425  0.00  0.00    +0.000 A 
ATOM     27  C   UNL     1       3.947  12.105   0.316  0.00  0.00    +0.010 A 
ATOM     28  C   UNL     1       5.219  12.108  -0.173  0.00  0.00    +0.001 A 
ATOM     29  C   UNL     1       5.835  10.923  -0.566  0.00  0.00    +0.002 A 
ATOM     30  C   UNL     1       5.186   9.730  -0.474  0.00  0.00    +0.028 A 
ATOM     31  C   UNL     1       3.873   9.687   0.025  0.00  0.00    +0.072 A 
ATOM     32  N   UNL     1       3.212   8.528   0.125  0.00  0.00    -0.240 NA
ENDBRANCH  22  23
ENDBRANCH  19  22
ENDBRANCH   1  19
TORSDOF 6
