REMARK  Name = ZINC09328240
REMARK  8 active torsions:
REMARK  status: ('A' for Active; 'I' for Inactive)
REMARK    1  A    between atoms: C_1  and  C_2
REMARK    2  A    between atoms: N_16  and  C_26
REMARK    3  A    between atoms: C_17  and  C_19
REMARK    4  A    between atoms: C_26  and  C_27
REMARK    5  A    between atoms: C_27  and  C_28
REMARK    6  A    between atoms: C_28  and  N_52
REMARK    7  A    between atoms: C_29  and  N_52
REMARK    8  A    between atoms: C_30  and  N_52
REMARK                            x       y       z     vdW  Elec       q    Type
REMARK                         _______ _______ _______ _____ _____    ______ ____
ROOT
ATOM      1  C   UNL     1       4.772   4.394  -0.019  0.00  0.00    +0.045 C 
ATOM      2  C   UNL     1       3.519   3.556  -0.012  0.00  0.00    -0.029 A 
ATOM      3  C   UNL     1       2.287   4.173   0.002  0.00  0.00    +0.051 A 
ATOM      4  C   UNL     1       1.125   3.408   0.009  0.00  0.00    +0.140 A 
ATOM      5  C   UNL     1       1.231   2.006   0.001  0.00  0.00    +0.066 A 
ATOM      6  C   UNL     1       2.482   1.393  -0.013  0.00  0.00    +0.035 A 
ATOM      7  C   UNL     1       3.621   2.171  -0.019  0.00  0.00    +0.045 A 
ATOM      8 CL   UNL     1       5.184   1.417  -0.037  0.00  0.00    -0.083 Cl
ATOM      9  C   UNL     1      -0.014   1.214   0.009  0.00  0.00    +0.199 A 
ATOM     10  O   UNL     1       0.002  -0.004   0.002  0.00  0.00    -0.287 OA
ATOM     11  C   UNL     1      -1.272   1.966   0.018  0.00  0.00    +0.072 A 
ATOM     12  C   UNL     1      -1.248   3.322   0.031  0.00  0.00    +0.199 A 
ATOM     13  O   UNL     1      -0.083   4.000   0.023  0.00  0.00    -0.450 OA
ATOM     14  C   UNL     1      -2.648   3.814   0.047  0.00  0.00    +0.283 C 
ATOM     15  O   UNL     1      -2.973   4.984   0.055  0.00  0.00    -0.267 OA
ATOM     16  N   UNL     1      -3.505   2.778   0.050  0.00  0.00    -0.284 N 
ATOM     17  C   UNL     1      -2.717   1.539   0.036  0.00  0.00    +0.144 C 
ENDROOT
BRANCH  17  18
ATOM     18  C   UNL     1      -3.007   0.726   1.271  0.00  0.00    -0.022 A 
ATOM     19  C   UNL     1      -3.153   1.354   2.494  0.00  0.00    +0.008 A 
ATOM     20  C   UNL     1      -3.425   0.609   3.626  0.00  0.00    +0.038 A 
ATOM     21  C   UNL     1      -3.540  -0.768   3.537  0.00  0.00    +0.123 A 
ATOM     22  C   UNL     1      -3.388  -1.397   2.312  0.00  0.00    +0.038 A 
ATOM     23  C   UNL     1      -3.122  -0.649   1.181  0.00  0.00    +0.008 A 
ATOM     24  F   UNL     1      -3.800  -1.498   4.643  0.00  0.00    -0.205 F 
ENDBRANCH  17  18
BRANCH  16  25
ATOM     25  C   UNL     1      -4.967   2.869   0.065  0.00  0.00    +0.107 C 
BRANCH  25  26
ATOM     26  C   UNL     1      -5.490   2.908  -1.372  0.00  0.00    +0.000 C 
BRANCH  26  27
ATOM     27  C   UNL     1      -7.017   3.003  -1.356  0.00  0.00    -0.078 C 
BRANCH  27  30
ATOM     28  C   UNL     1      -7.256   1.771  -3.427  0.00  0.00    -0.097 C 
ATOM     29  C   UNL     1      -8.951   3.368  -2.767  0.00  0.00    -0.097 C 
ATOM     30  N   UNL     1      -7.506   3.061  -2.750  0.00  0.00    +0.376 N 
ATOM     31  H   UNL     1      -7.001   3.803  -3.250  0.00  0.00    -0.083 HD
ENDBRANCH  27  30
ENDBRANCH  26  27
ENDBRANCH  25  26
ENDBRANCH  16  25
TORSDOF 5
