REMARK  Name = ZINC64332581
REMARK  6 active torsions:
REMARK  status: ('A' for Active; 'I' for Inactive)
REMARK    1  A    between atoms: C_1  and  C_2
REMARK    2  A    between atoms: C_4  and  N_19
REMARK    3  A    between atoms: N_6  and  C_7
REMARK    4  A    between atoms: C_7  and  C_8
REMARK    5  A    between atoms: N_10  and  C_11
REMARK    6  A    between atoms: C_14  and  C_17
REMARK                            x       y       z     vdW  Elec       q    Type
REMARK                         _______ _______ _______ _____ _____    ______ ____
ROOT
ATOM      1  C   UNL     1       0.030  -0.353   2.492  0.00  0.00    +0.219 C 
ENDROOT
BRANCH   1   7
ATOM      2  C   UNL     1      -0.018   1.503   0.010  0.00  0.00    +0.086 C 
ATOM      3  C   UNL     1       0.002  -0.004   0.002  0.00  0.00    +0.110 A 
ATOM      4  N   UNL     1       0.008  -0.759  -1.062  0.00  0.00    -0.209 NA
ATOM      5  C   UNL     1       0.027  -2.048  -0.691  0.00  0.00    +0.247 A 
ATOM      6  C   UNL     1       0.033  -2.094   0.655  0.00  0.00    +0.137 A 
ATOM      7  N   UNL     1       0.023  -0.797   1.096  0.00  0.00    -0.312 N 
ATOM      8 BR   UNL     1       0.059  -3.649   1.730  0.00  0.00    -0.026 Br
BRANCH   5   9
ATOM      9  N   UNL     1       0.039  -3.215  -1.602  0.00  0.00    +0.078 N 
ATOM     10  O   UNL     1       0.032  -3.048  -2.799  0.00  0.00    -0.125 OA
ATOM     11  O   UNL     1       0.056  -4.335  -1.148  0.00  0.00    -0.125 OA
ENDBRANCH   5   9
ENDBRANCH   1   7
BRANCH   1  12
ATOM     12  C   UNL     1      -1.388  -0.220   2.984  0.00  0.00    +0.233 C 
ATOM     13  O   UNL     1      -2.313  -0.472   2.242  0.00  0.00    -0.274 OA
ATOM     14  N   UNL     1      -1.628   0.178   4.249  0.00  0.00    -0.311 N 
ATOM     15  H   UNL     1      -0.887   0.379   4.843  0.00  0.00    +0.149 HD
BRANCH  14  16
ATOM     16  C   UNL     1      -3.006   0.307   4.727  0.00  0.00    +0.073 C 
ATOM     17  C   UNL     1      -3.551   1.685   4.346  0.00  0.00    +0.022 C 
ATOM     18  C   UNL     1      -4.991   1.820   4.846  0.00  0.00    +0.005 C 
ATOM     19  C   UNL     1      -5.020   1.663   6.367  0.00  0.00    -0.014 C 
ATOM     20  C   UNL     1      -4.474   0.286   6.749  0.00  0.00    +0.005 C 
ATOM     21  C   UNL     1      -3.035   0.151   6.249  0.00  0.00    +0.022 C 
ATOM     22  C   UNL     1      -6.460   1.798   6.867  0.00  0.00    +0.007 C 
ENDBRANCH  14  16
ENDBRANCH   1  12
TORSDOF 4
