REMARK  Name = ZINC44948830
REMARK  11 active torsions:
REMARK  status: ('A' for Active; 'I' for Inactive)
REMARK    1  A    between atoms: C_1  and  C_2
REMARK    2  A    between atoms: C_2  and  C_4
REMARK    3  A    between atoms: C_2  and  N_10
REMARK    4  A    between atoms: C_11  and  C_13
REMARK    5  A    between atoms: C_18  and  N_19
REMARK    6  A    between atoms: C_20  and  C_22
REMARK    7  A    between atoms: N_27  and  S_29
REMARK    8  A    between atoms: S_29  and  C_32
REMARK    9  A    between atoms: C_32  and  C_33
REMARK   10  A    between atoms: C_33  and  C_34
REMARK   11  A    between atoms: C_34  and  C_35
REMARK                            x       y       z     vdW  Elec       q    Type
REMARK                         _______ _______ _______ _____ _____    ______ ____
ROOT
ATOM      1  N   UNL     1       4.954  -1.060   1.209  0.00  0.00    -0.285 N 
ATOM      2  C   UNL     1       6.264  -1.373   1.187  0.00  0.00    +0.222 C 
ATOM      3  O   UNL     1       6.766  -1.950   2.128  0.00  0.00    -0.275 OA
ATOM      4  H   UNL     1       4.535  -0.667   0.427  0.00  0.00    +0.155 HD
ENDROOT
BRANCH   1  10
ATOM      5  C   UNL     1       2.855  -1.685   2.247  0.00  0.00    +0.058 A 
ATOM      6  C   UNL     1       2.112  -1.928   3.404  0.00  0.00    +0.015 A 
ATOM      7  C   UNL     1       2.699  -1.784   4.642  0.00  0.00    +0.001 A 
ATOM      8  C   UNL     1       4.026  -1.398   4.745  0.00  0.00    +0.002 A 
ATOM      9  C   UNL     1       4.773  -1.154   3.611  0.00  0.00    +0.024 A 
ATOM     10  C   UNL     1       4.200  -1.300   2.355  0.00  0.00    +0.046 A 
BRANCH   5  12
ATOM     11  N   UNL     1       0.972  -2.305   0.815  0.00  0.00    -0.305 N 
ATOM     12  C   UNL     1       2.232  -1.839   0.918  0.00  0.00    +0.246 C 
ATOM     13  O   UNL     1       2.856  -1.544  -0.083  0.00  0.00    -0.270 OA
ATOM     14  H   UNL     1       0.475  -2.540   1.614  0.00  0.00    +0.150 HD
BRANCH  11  16
ATOM     15  C   UNL     1      -0.261  -1.125  -0.937  0.00  0.00    +0.033 C 
ATOM     16  C   UNL     1       0.354  -2.458  -0.504  0.00  0.00    +0.100 C 
BRANCH  16  17
ATOM     17  C   UNL     1      -0.724  -3.509  -0.435  0.00  0.00    -0.027 A 
ATOM     18  C   UNL     1      -1.560  -3.571   0.664  0.00  0.00    +0.005 A 
ATOM     19  C   UNL     1      -2.549  -4.535   0.728  0.00  0.00    +0.000 A 
ATOM     20  C   UNL     1      -2.702  -5.437  -0.309  0.00  0.00    +0.000 A 
ATOM     21  C   UNL     1      -1.867  -5.374  -1.409  0.00  0.00    +0.000 A 
ATOM     22  C   UNL     1      -0.881  -4.408  -1.474  0.00  0.00    +0.005 A 
ENDBRANCH  16  17
ENDBRANCH  11  16
ENDBRANCH   5  12
ENDBRANCH   1  10
BRANCH   2  23
ATOM     23  C   UNL     1       7.107  -1.005  -0.008  0.00  0.00    +0.091 C 
ATOM     24  C   UNL     1       7.087   0.513  -0.198  0.00  0.00    +0.015 C 
ATOM     25  C   UNL     1       7.916   0.885  -1.430  0.00  0.00    +0.018 C 
ATOM     26  C   UNL     1       9.367   0.443  -1.217  0.00  0.00    +0.109 C 
ATOM     27  N   UNL     1       9.382  -0.989  -0.890  0.00  0.00    -0.180 NA
ATOM     28  C   UNL     1       8.549  -1.469   0.221  0.00  0.00    +0.121 C 
BRANCH  27  29
ATOM     29  S   UNL     1      10.319  -2.044  -1.757  0.00  0.00    +0.032 S 
ATOM     30  O   UNL     1       9.668  -3.300  -1.627  0.00  0.00    -0.158 OA
ATOM     31  O   UNL     1      10.467  -1.433  -3.032  0.00  0.00    -0.158 OA
BRANCH  29  32
ATOM     32  C   UNL     1      11.912  -2.072  -0.890  0.00  0.00    +0.185 C 
BRANCH  32  33
ATOM     33  C   UNL     1      12.868  -3.025  -1.611  0.00  0.00    +0.029 C 
BRANCH  33  34
ATOM     34  C   UNL     1      14.212  -3.049  -0.879  0.00  0.00    +0.037 C 
BRANCH  34  35
ATOM     35  C   UNL     1      15.154  -3.987  -1.589  0.00  0.00    -0.047 A 
ATOM     36  C   UNL     1      15.194  -5.323  -1.238  0.00  0.00    +0.003 A 
ATOM     37  C   UNL     1      16.058  -6.184  -1.889  0.00  0.00    +0.000 A 
ATOM     38  C   UNL     1      16.881  -5.708  -2.893  0.00  0.00    +0.000 A 
ATOM     39  C   UNL     1      16.840  -4.372  -3.245  0.00  0.00    +0.000 A 
ATOM     40  C   UNL     1      15.973  -3.512  -2.596  0.00  0.00    +0.003 A 
ENDBRANCH  34  35
ENDBRANCH  33  34
ENDBRANCH  32  33
ENDBRANCH  29  32
ENDBRANCH  27  29
ENDBRANCH   2  23
TORSDOF 10
