REMARK  Name = ZINC12896647
REMARK  3 active torsions:
REMARK  status: ('A' for Active; 'I' for Inactive)
REMARK    1  A    between atoms: C_4  and  C_7
REMARK    2  A    between atoms: C_8  and  C_9
REMARK    3  A    between atoms: C_15  and  C_17
REMARK                            x       y       z     vdW  Elec       q    Type
REMARK                         _______ _______ _______ _____ _____    ______ ____
ROOT
ATOM      1  C   UNL     1      -0.991  -0.801  -0.440  0.00  0.00    +0.240 C 
ATOM      2  O   UNL     1      -0.865  -2.010  -0.399  0.00  0.00    -0.271 OA
ATOM      3  N   UNL     1       0.002  -0.004   0.002  0.00  0.00    -0.288 N 
ATOM      4  C   UNL     1      -0.018   1.470   0.010  0.00  0.00    +0.109 C 
ATOM      5  C   UNL     1       1.474   1.887  -0.002  0.00  0.00    +0.021 C 
ATOM      6  C   UNL     1       2.109   0.797   0.901  0.00  0.00    +0.032 C 
ATOM      7  C   UNL     1       1.285  -0.461   0.557  0.00  0.00    +0.145 C 
ENDROOT
BRANCH   7   8
ATOM      8  C   UNL     1       1.044  -1.273   1.803  0.00  0.00    +0.158 A 
ATOM      9  N   UNL     1       0.208  -0.982   2.766  0.00  0.00    -0.132 NA
ATOM     10  N   UNL     1       0.249  -1.887   3.681  0.00  0.00    -0.129 NA
ATOM     11  C   UNL     1       1.127  -2.817   3.343  0.00  0.00    +0.161 A 
ATOM     12  N   UNL     1       1.652  -2.446   2.129  0.00  0.00    -0.285 N 
ATOM     13  C   UNL     1       2.591  -3.222   1.516  0.00  0.00    +0.094 A 
ATOM     14  C   UNL     1       3.016  -4.367   2.091  0.00  0.00    +0.018 A 
ATOM     15  C   UNL     1       2.496  -4.774   3.332  0.00  0.00    +0.005 A 
ATOM     16  C   UNL     1       1.564  -4.006   3.958  0.00  0.00    +0.048 A 
ENDBRANCH   7   8
BRANCH   1  18
ATOM     17  C   UNL     1      -3.215  -1.007  -1.413  0.00  0.00    +0.013 C 
ATOM     18  C   UNL     1      -2.222  -0.211  -0.971  0.00  0.00    +0.068 C 
BRANCH  17  22
ATOM     19  C   UNL     1      -6.781   0.702  -2.949  0.00  0.00    +0.000 A 
ATOM     20  C   UNL     1      -6.641  -0.674  -2.904  0.00  0.00    +0.001 A 
ATOM     21  C   UNL     1      -5.485  -1.237  -2.406  0.00  0.00    +0.008 A 
ATOM     22  C   UNL     1      -4.452  -0.414  -1.946  0.00  0.00    -0.025 A 
ATOM     23  C   UNL     1      -4.603   0.975  -1.990  0.00  0.00    +0.008 A 
ATOM     24  C   UNL     1      -5.763   1.523  -2.497  0.00  0.00    +0.001 A 
ENDBRANCH  17  22
ENDBRANCH   1  18
TORSDOF 3
