REMARK  Name = ZINC15943245
REMARK  7 active torsions:
REMARK  status: ('A' for Active; 'I' for Inactive)
REMARK    1  A    between atoms: C_1  and  C_2
REMARK    2  A    between atoms: C_7  and  C_35
REMARK    3  A    between atoms: C_9  and  C_10
REMARK    4  A    between atoms: C_9  and  N_75
REMARK    5  A    between atoms: C_10  and  C_11
REMARK    6  A    between atoms: C_11  and  N_12
REMARK    7  A    between atoms: C_13  and  C_15
REMARK                            x       y       z     vdW  Elec       q    Type
REMARK                         _______ _______ _______ _____ _____    ______ ____
ROOT
ATOM      1  C   UNL     1      -3.694   2.826   1.318  0.00  0.00    +0.078 C 
ATOM      2  C   UNL     1      -3.531   1.837   0.161  0.00  0.00    +0.031 C 
ATOM      3  C   UNL     1      -2.252   1.022   0.369  0.00  0.00    +0.107 C 
ATOM      4  N   UNL     1      -1.098   1.928   0.428  0.00  0.00    -0.313 N 
ATOM      5  C   UNL     1      -1.209   2.856   1.561  0.00  0.00    +0.107 C 
ATOM      6  C   UNL     1      -2.457   3.726   1.388  0.00  0.00    +0.031 C 
ATOM      7  C   UNL     1       0.088   1.217   0.485  0.00  0.00    +0.152 A 
ATOM      8  C   UNL     1       1.324   1.883   0.542  0.00  0.00    +0.148 A 
ATOM      9  C   UNL     1       2.494   1.107   0.590  0.00  0.00    +0.166 A 
ATOM     10  N   UNL     1       2.391  -0.218   0.584  0.00  0.00    -0.216 NA
ATOM     11  C   UNL     1       1.212  -0.799   0.530  0.00  0.00    +0.225 A 
ATOM     12  N   UNL     1       0.085  -0.112   0.481  0.00  0.00    -0.218 NA
ATOM     13  N   UNL     1       3.537   1.997   0.628  0.00  0.00    -0.312 N 
ATOM     14  C   UNL     1       3.006   3.254   0.621  0.00  0.00    +0.112 A 
ATOM     15  N   UNL     1       1.706   3.182   0.567  0.00  0.00    -0.227 NA
ATOM     16  C   UNL     1       3.807   4.533   0.673  0.00  0.00    +0.074 C 
ATOM     17  C   UNL     1       4.958   4.452  -0.332  0.00  0.00    +0.008 C 
ATOM     18  C   UNL     1       6.176   3.820   0.335  0.00  0.00    +0.002 C 
ATOM     19  C   UNL     1       5.740   2.776   1.361  0.00  0.00    +0.022 C 
ATOM     20  C   UNL     1       4.963   1.659   0.660  0.00  0.00    +0.125 C 
ENDROOT
BRANCH   1  22
ATOM     21  N   UNL     1      -5.263   4.618   1.986  0.00  0.00    -0.315 N 
ATOM     22  C   UNL     1      -4.920   3.672   1.089  0.00  0.00    +0.216 C 
ATOM     23  O   UNL     1      -5.598   3.501   0.098  0.00  0.00    -0.276 OA
ATOM     24  H   UNL     1      -4.721   4.754   2.778  0.00  0.00    +0.149 HD
BRANCH  21  25
ATOM     25  C   UNL     1      -6.456   5.439   1.763  0.00  0.00    +0.102 C 
BRANCH  25  26
ATOM     26  C   UNL     1      -6.617   6.427   2.920  0.00  0.00    +0.000 C 
BRANCH  26  27
ATOM     27  C   UNL     1      -7.862   7.286   2.688  0.00  0.00    -0.077 C 
BRANCH  27  35
ATOM     28  C   UNL     1      -9.715   6.878   4.928  0.00  0.00    -0.013 C 
ATOM     29  C   UNL     1      -8.337   7.533   5.048  0.00  0.00    -0.071 C 
ATOM     30  C   UNL     1      -8.348   8.533   6.207  0.00  0.00    -0.016 C 
ATOM     31  C   UNL     1      -9.391   9.619   5.928  0.00  0.00    -0.003 C 
ATOM     32  C   UNL     1      -9.062  10.301   4.597  0.00  0.00    -0.016 C 
ATOM     33  C   UNL     1      -9.031   9.250   3.485  0.00  0.00    -0.071 C 
ATOM     34  C   UNL     1      -8.683   9.924   2.156  0.00  0.00    -0.013 C 
ATOM     35  N   UNL     1      -7.991   8.248   3.801  0.00  0.00    +0.383 N 
ATOM     36  H   UNL     1      -7.093   8.729   3.932  0.00  0.00    -0.081 HD
ENDBRANCH  27  35
ENDBRANCH  26  27
ENDBRANCH  25  26
ENDBRANCH  21  25
ENDBRANCH   1  22
TORSDOF 5
