REMARK  Name = ZINC59092463
REMARK  4 active torsions:
REMARK  status: ('A' for Active; 'I' for Inactive)
REMARK    1  A    between atoms: C_5  and  C_7
REMARK    2  A    between atoms: N_8  and  N_9
REMARK    3  A    between atoms: C_10  and  C_12
REMARK    4  A    between atoms: C_12  and  N_13
REMARK                            x       y       z     vdW  Elec       q    Type
REMARK                         _______ _______ _______ _____ _____    ______ ____
ROOT
ATOM      1  C   UNL     1       3.622  -6.343  -0.071  0.00  0.00    +0.208 C 
ENDROOT
BRANCH   1   2
ATOM      2  N   UNL     1       5.012  -6.806  -0.088  0.00  0.00    -0.255 N 
ATOM      3  C   UNL     1       5.836  -7.070  -1.260  0.00  0.00    +0.205 C 
ATOM      4  C   UNL     1       6.645  -8.274  -0.639  0.00  0.00    +0.202 C 
ATOM      5  N   UNL     1       7.228  -8.845  -1.776  0.00  0.00    -0.278 N 
ATOM      6  C   UNL     1       6.304  -8.670  -2.775  0.00  0.00    +0.303 C 
ATOM      7  O   UNL     1       6.352  -9.236  -3.850  0.00  0.00    -0.253 OA
ATOM      8  N   UNL     1       5.306  -7.774  -2.420  0.00  0.00    -0.278 N 
ATOM      9  N   UNL     1       6.933  -7.778   0.641  0.00  0.00    -0.278 N 
ATOM     10  C   UNL     1       5.804  -7.071   0.993  0.00  0.00    +0.306 C 
ATOM     11  O   UNL     1       5.543  -6.727   2.129  0.00  0.00    -0.253 OA
ATOM     12  H   UNL     1       8.096  -9.273  -1.842  0.00  0.00    +0.152 HD
ATOM     13  H   UNL     1       4.446  -7.633  -2.847  0.00  0.00    +0.152 HD
ATOM     14  H   UNL     1       7.743  -7.902   1.160  0.00  0.00    +0.152 HD
ENDBRANCH   1   2
BRANCH   1  16
ATOM     15  N   UNL     1       2.413  -4.185  -0.046  0.00  0.00    -0.206 N 
ATOM     16  C   UNL     1       3.593  -4.837  -0.062  0.00  0.00    +0.250 C 
ATOM     17  O   UNL     1       4.632  -4.210  -0.069  0.00  0.00    -0.272 OA
ATOM     18  H   UNL     1       1.583  -4.686  -0.041  0.00  0.00    +0.177 HD
BRANCH  15  20
ATOM     19  C   UNL     1       1.251  -2.157  -0.023  0.00  0.00    +0.139 C 
ATOM     20  N   UNL     1       2.387  -2.784  -0.038  0.00  0.00    -0.188 NA
BRANCH  19  25
ATOM     21  C   UNL     1      -0.017   1.375   0.010  0.00  0.00    +0.001 A 
ATOM     22  C   UNL     1       1.170   2.087   0.002  0.00  0.00    +0.001 A 
ATOM     23  C   UNL     1       2.383   1.423  -0.013  0.00  0.00    +0.020 A 
ATOM     24  C   UNL     1       2.418   0.042  -0.021  0.00  0.00    +0.050 A 
ATOM     25  C   UNL     1       1.223  -0.683  -0.014  0.00  0.00    +0.013 A 
ATOM     26  C   UNL     1       0.002  -0.004   0.002  0.00  0.00    +0.011 A 
ATOM     27 CL   UNL     1       3.941  -0.790  -0.041  0.00  0.00    -0.083 Cl
ENDBRANCH  19  25
ENDBRANCH  15  20
ENDBRANCH   1  16
TORSDOF 4
