REMARK  Name = ZINC43772793
REMARK  9 active torsions:
REMARK  status: ('A' for Active; 'I' for Inactive)
REMARK    1  A    between atoms: C_1  and  C_2
REMARK    2  A    between atoms: C_2  and  O_4
REMARK    3  A    between atoms: O_4  and  C_5
REMARK    4  A    between atoms: C_9  and  C_35
REMARK    5  A    between atoms: C_14  and  C_34
REMARK    6  A    between atoms: C_15  and  C_28
REMARK    7  A    between atoms: C_19  and  O_27
REMARK    8  A    between atoms: C_24  and  O_26
REMARK    9  A    between atoms: N_36  and  O_37
REMARK                            x       y       z     vdW  Elec       q    Type
REMARK                         _______ _______ _______ _____ _____    ______ ____
ROOT
ATOM      1  C   UNL     1      -0.745  -1.565  -0.092  0.00  0.00    +0.179 C 
ATOM      2  C   UNL     1      -0.811  -2.219  -1.473  0.00  0.00    +0.046 C 
ATOM      3  C   UNL     1      -2.141  -1.867  -2.142  0.00  0.00    +0.019 C 
ATOM      4  C   UNL     1      -3.296  -2.380  -1.279  0.00  0.00    +0.041 C 
ATOM      5  C   UNL     1      -4.627  -2.029  -1.949  0.00  0.00    +0.009 C 
ATOM      6  C   UNL     1      -4.665  -2.664  -3.344  0.00  0.00    +0.005 C 
ATOM      7  C   UNL     1      -6.026  -2.369  -3.974  0.00  0.00    +0.010 C 
ATOM      8  C   UNL     1      -6.262  -0.880  -4.088  0.00  0.00    +0.004 C 
ATOM      9  C   UNL     1      -5.287  -0.201  -5.059  0.00  0.00    +0.027 C 
ATOM     10  C   UNL     1      -5.077   1.228  -4.516  0.00  0.00    +0.011 C 
ATOM     11  C   UNL     1      -5.931   1.339  -3.234  0.00  0.00    +0.036 C 
ATOM     12  C   UNL     1      -6.078  -0.136  -2.754  0.00  0.00    +0.075 C 
ATOM     13  C   UNL     1      -4.754  -0.514  -2.083  0.00  0.00    +0.025 C 
ATOM     14  C   UNL     1      -4.680   0.135  -0.699  0.00  0.00    +0.009 C 
ATOM     15  C   UNL     1      -3.347  -0.216  -0.037  0.00  0.00    +0.036 C 
ATOM     16  C   UNL     1      -3.231  -1.723   0.102  0.00  0.00    +0.080 C 
ATOM     17  C   UNL     1      -1.901  -2.076   0.771  0.00  0.00    +0.080 C 
ATOM     18  C   UNL     1      -7.684  -0.639  -4.598  0.00  0.00    +0.014 C 
ENDROOT
BRANCH   9  19
ATOM     19  C   UNL     1      -3.977  -0.945  -5.086  0.00  0.00    -0.022 C 
ATOM     20  C   UNL     1      -2.846  -0.584  -4.483  0.00  0.00    +0.094 C 
ATOM     21  C   UNL     1      -1.814  -1.587  -4.763  0.00  0.00    +0.332 C 
ATOM     22  O   UNL     1      -0.670  -1.546  -4.354  0.00  0.00    -0.246 OA
ATOM     23  O   UNL     1      -2.324  -2.561  -5.540  0.00  0.00    -0.457 OA
ATOM     24  C   UNL     1      -3.697  -2.248  -5.797  0.00  0.00    +0.264 C 
ENDBRANCH   9  19
BRANCH  16  25
ATOM     25  O   UNL     1      -4.313  -2.194   0.906  0.00  0.00    -0.388 OA
ATOM     26  H   UNL     1      -4.334  -1.818   1.797  0.00  0.00    +0.210 HD
ENDBRANCH  16  25
BRANCH  12  27
ATOM     27  O   UNL     1      -7.192  -0.314  -1.878  0.00  0.00    -0.388 OA
ATOM     28  H   UNL     1      -7.104   0.143  -1.030  0.00  0.00    +0.210 HD
ENDBRANCH  12  27
BRANCH   4  29
ATOM     29  C   UNL     1      -3.187  -3.875  -1.130  0.00  0.00    +0.135 C 
ATOM     30  N   UNL     1      -2.225  -4.505  -1.690  0.00  0.00    -0.099 NA
BRANCH  30  31
ATOM     31  O   UNL     1      -2.122  -5.911  -1.550  0.00  0.00    -0.409 OA
ATOM     32  H   UNL     1      -1.364  -6.297  -2.009  0.00  0.00    +0.328 HD
ENDBRANCH  30  31
ENDBRANCH   4  29
BRANCH   1  33
ATOM     33  O   UNL     1      -0.846  -0.146  -0.231  0.00  0.00    -0.461 OA
BRANCH  33  35
ATOM     34  C   UNL     1       0.272   2.034  -0.536  0.00  0.00    +0.136 C 
ATOM     35  C   UNL     1       0.300   0.535  -0.383  0.00  0.00    +0.304 C 
ATOM     36  O   UNL     1       1.355  -0.054  -0.397  0.00  0.00    -0.251 OA
ENDBRANCH  33  35
ENDBRANCH   1  33
TORSDOF 7
