REMARK  Name = ZINC59021963
REMARK  7 active torsions:
REMARK  status: ('A' for Active; 'I' for Inactive)
REMARK    1  A    between atoms: C_1  and  C_2
REMARK    2  A    between atoms: C_2  and  C_23
REMARK    3  A    between atoms: N_3  and  N_4
REMARK    4  A    between atoms: C_7  and  S_10
REMARK    5  A    between atoms: S_10  and  C_11
REMARK    6  A    between atoms: C_11  and  C_12
REMARK    7  A    between atoms: N_14  and  C_15
REMARK                            x       y       z     vdW  Elec       q    Type
REMARK                         _______ _______ _______ _____ _____    ______ ____
ROOT
ATOM      1  N   UNL     1      -1.501   0.152   0.697  0.00  0.00    -0.205 N 
ATOM      2  C   UNL     1      -1.981  -0.001   1.985  0.00  0.00    +0.232 A 
ATOM      3  N   UNL     1      -1.974   0.919   2.927  0.00  0.00    -0.186 NA
ATOM      4  C   UNL     1      -2.517   0.423   4.044  0.00  0.00    +0.211 A 
ATOM      5  N   UNL     1      -2.877  -0.820   3.827  0.00  0.00    -0.144 NA
ATOM      6  N   UNL     1      -2.544  -1.116   2.495  0.00  0.00    -0.245 N 
ATOM      7  H   UNL     1      -1.554  -0.586   0.069  0.00  0.00    +0.177 HD
ATOM      8  H   UNL     1      -2.688  -1.957   2.034  0.00  0.00    +0.192 HD
ENDROOT
BRANCH   1  11
ATOM      9  C   UNL     1       0.187   2.785  -1.329  0.00  0.00    +0.068 C 
ATOM     10  C   UNL     1      -0.579   1.548  -0.937  0.00  0.00    +0.063 C 
ATOM     11  N   UNL     1      -0.939   1.371   0.298  0.00  0.00    -0.184 NA
BRANCH  10  12
ATOM     12  C   UNL     1      -0.918   0.537  -1.955  0.00  0.00    -0.002 A 
ATOM     13  C   UNL     1      -2.144  -0.151  -1.874  0.00  0.00    +0.010 A 
ATOM     14  C   UNL     1      -2.479  -1.085  -2.799  0.00  0.00    +0.009 A 
ATOM     15  C   UNL     1      -1.597  -1.377  -3.857  0.00  0.00    -0.018 A 
ATOM     16  C   UNL     1      -1.923  -2.341  -4.826  0.00  0.00    +0.008 A 
ATOM     17  C   UNL     1      -1.050  -2.602  -5.838  0.00  0.00    +0.001 A 
ATOM     18  C   UNL     1       0.166  -1.927  -5.929  0.00  0.00    +0.001 A 
ATOM     19  C   UNL     1       0.516  -0.988  -5.009  0.00  0.00    +0.008 A 
ATOM     20  C   UNL     1      -0.360  -0.691  -3.950  0.00  0.00    -0.017 A 
ATOM     21  C   UNL     1      -0.032   0.276  -2.988  0.00  0.00    +0.018 A 
ENDBRANCH  10  12
ENDBRANCH   1  11
BRANCH   4  22
ATOM     22  S   UNL     1      -2.717   1.297   5.561  0.00  0.00    -0.075 S 
BRANCH  22  23
ATOM     23  C   UNL     1      -3.503   0.089   6.663  0.00  0.00    +0.173 C 
BRANCH  23  24
ATOM     24  C   UNL     1      -3.733   0.717   8.013  0.00  0.00    +0.228 C 
ATOM     25  O   UNL     1      -3.400   1.866   8.213  0.00  0.00    -0.275 OA
ATOM     26  N   UNL     1      -4.309   0.001   8.999  0.00  0.00    -0.284 N 
ATOM     27  H   UNL     1      -4.626  -0.899   8.824  0.00  0.00    +0.155 HD
BRANCH  26  28
ATOM     28  C   UNL     1      -4.451   0.557  10.276  0.00  0.00    +0.053 A 
ATOM     29  C   UNL     1      -4.555   1.933  10.428  0.00  0.00    +0.044 A 
ATOM     30  C   UNL     1      -4.695   2.479  11.691  0.00  0.00    +0.043 A 
ATOM     31  C   UNL     1      -4.732   1.655  12.802  0.00  0.00    +0.021 A 
ATOM     32  C   UNL     1      -4.628   0.284  12.654  0.00  0.00    +0.023 A 
ATOM     33  C   UNL     1      -4.494  -0.268  11.394  0.00  0.00    +0.062 A 
ATOM     34 CL   UNL     1      -4.370  -1.989  11.208  0.00  0.00    -0.082 Cl
ATOM     35 CL   UNL     1      -4.825   4.199  11.882  0.00  0.00    -0.083 Cl
ENDBRANCH  26  28
ENDBRANCH  23  24
ENDBRANCH  22  23
ENDBRANCH   4  22
TORSDOF 6
