REMARK  Name = ZINC63694294
REMARK  7 active torsions:
REMARK  status: ('A' for Active; 'I' for Inactive)
REMARK    1  A    between atoms: C_1  and  C_2
REMARK    2  A    between atoms: C_7  and  N_8
REMARK    3  A    between atoms: N_8  and  C_9
REMARK    4  A    between atoms: C_9  and  C_10
REMARK    5  A    between atoms: C_10  and  C_11
REMARK    6  A    between atoms: N_22  and  C_27
REMARK    7  A    between atoms: N_25  and  C_26
REMARK                            x       y       z     vdW  Elec       q    Type
REMARK                         _______ _______ _______ _____ _____    ______ ____
ROOT
ATOM      1  C   UNL     1      -0.326   1.326  -0.045  0.00  0.00    +0.047 C 
ATOM      2  C   UNL     1      -0.389  -0.175   0.075  0.00  0.00    -0.011 A 
ATOM      3  C   UNL     1      -0.721  -0.948  -1.018  0.00  0.00    +0.118 A 
ATOM      4  N   UNL     1      -0.785  -2.266  -0.943  0.00  0.00    -0.237 NA
ATOM      5  C   UNL     1      -0.533  -2.912   0.183  0.00  0.00    +0.151 A 
ATOM      6  C   UNL     1      -0.187  -2.197   1.343  0.00  0.00    +0.103 A 
ATOM      7  C   UNL     1      -0.106  -0.797   1.293  0.00  0.00    +0.048 A 
ATOM      8  C   UNL     1       0.086  -2.948   2.575  0.00  0.00    +0.267 A 
ATOM      9  O   UNL     1       0.389  -2.372   3.603  0.00  0.00    -0.267 OA
ATOM     10  N   UNL     1      -0.009  -4.295   2.537  0.00  0.00    -0.263 N 
ATOM     11  C   UNL     1      -0.343  -4.934   1.405  0.00  0.00    +0.333 A 
ATOM     12  O   UNL     1      -0.414  -6.148   1.422  0.00  0.00    -0.246 OA
ATOM     13  N   UNL     1      -0.602  -4.292   0.254  0.00  0.00    -0.281 N 
ATOM     14  C   UNL     1      -0.961  -5.062  -0.940  0.00  0.00    +0.155 C 
ATOM     15  C   UNL     1       0.258  -5.071   3.751  0.00  0.00    +0.157 C 
ENDROOT
BRANCH   7  16
ATOM     16  N   UNL     1       0.237  -0.059   2.412  0.00  0.00    -0.343 N 
ATOM     17  H   UNL     1       0.771  -0.462   3.114  0.00  0.00    +0.146 HD
BRANCH  16  18
ATOM     18  C   UNL     1      -0.207   1.332   2.536  0.00  0.00    +0.106 C 
BRANCH  18  19
ATOM     19  C   UNL     1       0.135   1.854   3.933  0.00  0.00    +0.052 C 
BRANCH  19  20
ATOM     20  C   UNL     1      -0.321   3.285   4.061  0.00  0.00    -0.040 C 
ATOM     21  C   UNL     1      -1.489   3.722   4.583  0.00  0.00    -0.001 A 
ATOM     22  C   UNL     1      -2.641   3.024   5.166  0.00  0.00    +0.010 A 
ATOM     23  C   UNL     1      -3.690   3.750   5.614  0.00  0.00    +0.001 A 
ATOM     24  C   UNL     1      -3.705   5.149   5.536  0.00  0.00    +0.002 A 
ATOM     25  C   UNL     1      -2.684   5.861   5.014  0.00  0.00    +0.026 A 
ATOM     26  C   UNL     1      -1.529   5.200   4.513  0.00  0.00    +0.043 A 
ATOM     27  N   UNL     1      -0.429   5.659   3.968  0.00  0.00    -0.380 N 
ATOM     28  C   UNL     1       0.438   4.522   3.636  0.00  0.00    +0.144 C 
ATOM     29  H   UNL     1      -0.220   6.593   3.813  0.00  0.00    +0.160 HD
ENDBRANCH  19  20
ENDBRANCH  18  19
ENDBRANCH  16  18
ENDBRANCH   7  16
TORSDOF 4
