REMARK  Name = ZINC20992056
REMARK  7 active torsions:
REMARK  status: ('A' for Active; 'I' for Inactive)
REMARK    1  A    between atoms: C_3  and  S_28
REMARK    2  A    between atoms: C_6  and  C_7
REMARK    3  A    between atoms: C_7  and  C_8
REMARK    4  A    between atoms: C_8  and  N_9
REMARK    5  A    between atoms: C_10  and  C_12
REMARK    6  A    between atoms: C_15  and  N_17
REMARK    7  A    between atoms: S_28  and  N_31
REMARK                            x       y       z     vdW  Elec       q    Type
REMARK                         _______ _______ _______ _____ _____    ______ ____
ROOT
ATOM      1  N   UNL     1       4.707   9.381  -0.664  0.00  0.00    -0.311 N 
ATOM      2  C   UNL     1       3.398   9.148  -0.882  0.00  0.00    +0.251 C 
ATOM      3  O   UNL     1       2.665  10.059  -1.221  0.00  0.00    -0.270 OA
ATOM      4  H   UNL     1       5.369   8.558  -0.358  0.00  0.00    +0.149 HD
ENDROOT
BRANCH   2   5
ATOM      5  C   UNL     1       2.874   7.841  -0.717  0.00  0.00    +0.076 A 
ATOM      6  C   UNL     1       1.571   7.396  -0.890  0.00  0.00    +0.022 A 
ATOM      7  C   UNL     1       1.327   6.067  -0.670  0.00  0.00    +0.032 A 
ATOM      8  C   UNL     1       2.374   5.256  -0.283  0.00  0.00    +0.073 A 
ATOM      9  S   UNL     1       3.720   6.347  -0.235  0.00  0.00    -0.069 S 
BRANCH   8  10
ATOM     10  N   UNL     1       2.354   3.898  -0.006  0.00  0.00    -0.288 N 
ATOM     11  C   UNL     1       1.619   3.368   1.155  0.00  0.00    +0.152 C 
ATOM     12  C   UNL     1       2.499   2.295   1.811  0.00  0.00    +0.248 C 
ATOM     13  O   UNL     1       2.787   1.281   0.844  0.00  0.00    -0.489 OA
ATOM     14  C   UNL     1       3.242   1.679  -0.373  0.00  0.00    +0.142 A 
ATOM     15  C   UNL     1       3.035   2.981  -0.822  0.00  0.00    +0.078 A 
ATOM     16  C   UNL     1       3.499   3.371  -2.068  0.00  0.00    +0.047 A 
ATOM     17  C   UNL     1       4.174   2.464  -2.867  0.00  0.00    +0.043 A 
ATOM     18  C   UNL     1       4.388   1.173  -2.420  0.00  0.00    +0.024 A 
ATOM     19  C   UNL     1       3.919   0.777  -1.180  0.00  0.00    +0.049 A 
ATOM     20 CL   UNL     1       4.758   2.950  -4.428  0.00  0.00    -0.083 Cl
ENDBRANCH   8  10
ENDBRANCH   2   5
BRANCH   1  21
ATOM     21  C   UNL     1       5.249  10.732  -0.834  0.00  0.00    +0.109 C 
BRANCH  21  22
ATOM     22  C   UNL     1       6.748  10.723  -0.526  0.00  0.00    +0.054 C 
BRANCH  22  28
ATOM     23  C   UNL     1       7.800  12.508  -1.930  0.00  0.00    +0.005 A 
ATOM     24  C   UNL     1       8.307  13.784  -2.092  0.00  0.00    +0.029 A 
ATOM     25  C   UNL     1       8.327  14.660  -1.023  0.00  0.00    +0.105 A 
ATOM     26  C   UNL     1       7.837  14.262   0.207  0.00  0.00    +0.029 A 
ATOM     27  C   UNL     1       7.326  12.988   0.368  0.00  0.00    +0.005 A 
ATOM     28  C   UNL     1       7.305  12.112  -0.702  0.00  0.00    -0.046 A 
BRANCH  25  29
ATOM     29  S   UNL     1       8.977  16.285  -1.228  0.00  0.00    +0.056 S 
ATOM     30  O   UNL     1       8.871  16.593  -2.611  0.00  0.00    -0.153 OA
ATOM     31  O   UNL     1       8.382  17.091  -0.220  0.00  0.00    -0.153 OA
BRANCH  29  32
ATOM     32  N   UNL     1      10.595  16.212  -0.882  0.00  0.00    -0.204 NA
ATOM     33  H   UNL     1      11.040  17.211  -0.998  0.00  0.00    +0.144 HD
ATOM     34  H   UNL     1      11.086  15.509  -1.571  0.00  0.00    +0.144 HD
ENDBRANCH  29  32
ENDBRANCH  25  29
ENDBRANCH  22  28
ENDBRANCH  21  22
ENDBRANCH   1  21
TORSDOF 7
