REMARK  Name = ZINC58366194
REMARK  6 active torsions:
REMARK  status: ('A' for Active; 'I' for Inactive)
REMARK    1  A    between atoms: C_1  and  C_2
REMARK    2  A    between atoms: C_2  and  N_3
REMARK    3  A    between atoms: N_3  and  C_4
REMARK    4  A    between atoms: C_9  and  C_11
REMARK    5  A    between atoms: N_19  and  C_22
REMARK    6  A    between atoms: C_22  and  C_23
REMARK                            x       y       z     vdW  Elec       q    Type
REMARK                         _______ _______ _______ _____ _____    ______ ____
ROOT
ATOM      1  C   UNL     1       3.056  -0.612  -0.204  0.00  0.00    +0.039 A 
ATOM      2  C   UNL     1       2.517  -0.271  -1.454  0.00  0.00    +0.014 A 
ATOM      3  C   UNL     1       3.316  -0.163  -2.551  0.00  0.00    +0.016 A 
ATOM      4  C   UNL     1       4.694  -0.395  -2.438  0.00  0.00    +0.065 A 
ATOM      5  C   UNL     1       5.253  -0.741  -1.179  0.00  0.00    +0.080 A 
ATOM      6  C   UNL     1       4.414  -0.841  -0.059  0.00  0.00    +0.041 A 
ATOM      7  N   UNL     1       6.572  -0.959  -1.087  0.00  0.00    -0.222 NA
ATOM      8  C   UNL     1       7.351  -0.854  -2.153  0.00  0.00    +0.184 A 
ATOM      9  N   UNL     1       6.872  -0.530  -3.366  0.00  0.00    -0.279 N 
ATOM     10  C   UNL     1       5.555  -0.293  -3.551  0.00  0.00    +0.263 A 
ATOM     11  O   UNL     1       5.077   0.032  -4.765  0.00  0.00    -0.267 OA
ATOM     12  S   UNL     1       9.030  -1.143  -1.980  0.00  0.00    -0.011 S 
ENDROOT
BRANCH   1  14
ATOM     13  N   UNL     1       2.596  -0.322   2.186  0.00  0.00    -0.295 N 
ATOM     14  C   UNL     1       2.164  -0.722   0.974  0.00  0.00    +0.247 C 
ATOM     15  O   UNL     1       1.043  -1.173   0.847  0.00  0.00    -0.270 OA
BRANCH  13  16
ATOM     16  C   UNL     1       1.743  -0.500   3.364  0.00  0.00    +0.076 C 
ATOM     17  C   UNL     1       1.370  -1.989   3.525  0.00  0.00    +0.022 C 
ATOM     18  C   UNL     1      -0.093  -1.961   4.031  0.00  0.00    +0.002 C 
ATOM     19  C   UNL     1      -0.708  -0.783   3.235  0.00  0.00    +0.002 C 
ATOM     20  C   UNL     1       0.422   0.266   3.179  0.00  0.00    +0.022 C 
ENDBRANCH  13  16
BRANCH  13  22
ATOM     21  C   UNL     1       4.884  -0.714   2.957  0.00  0.00    +0.024 C 
ATOM     22  C   UNL     1       3.919   0.292   2.326  0.00  0.00    +0.105 C 
ENDBRANCH  13  22
ENDBRANCH   1  14
BRANCH   9  23
ATOM     23  C   UNL     1       7.791  -0.431  -4.503  0.00  0.00    +0.201 C 
BRANCH  23  24
ATOM     24  C   UNL     1       7.898  -1.773  -5.179  0.00  0.00    +0.125 A 
ATOM     25  C   UNL     1       7.123  -2.210  -6.188  0.00  0.00    +0.046 A 
ATOM     26  C   UNL     1       7.568  -3.512  -6.512  0.00  0.00    +0.041 A 
ATOM     27  C   UNL     1       8.589  -3.793  -5.683  0.00  0.00    +0.195 A 
ATOM     28  O   UNL     1       8.788  -2.734  -4.881  0.00  0.00    -0.466 OA
ENDBRANCH  23  24
ENDBRANCH   9  23
TORSDOF 5
