REMARK  Name = ZINC33032953
REMARK  11 active torsions:
REMARK  status: ('A' for Active; 'I' for Inactive)
REMARK    1  A    between atoms: C_1  and  C_2
REMARK    2  A    between atoms: C_2  and  C_3
REMARK    3  A    between atoms: C_3  and  C_4
REMARK    4  A    between atoms: C_4  and  N_5
REMARK    5  A    between atoms: N_5  and  C_6
REMARK    6  A    between atoms: C_6  and  C_7
REMARK    7  A    between atoms: C_8  and  C_10
REMARK    8  A    between atoms: C_13  and  N_27
REMARK    9  A    between atoms: C_14  and  N_16
REMARK   10  A    between atoms: N_16  and  S_17
REMARK   11  A    between atoms: S_17  and  C_20
REMARK                            x       y       z     vdW  Elec       q    Type
REMARK                         _______ _______ _______ _____ _____    ______ ____
ROOT
ATOM      1  C   UNL     1      -2.876   1.419  -0.314  0.00  0.00    +0.039 A 
ATOM      2  C   UNL     1      -3.086   0.106   0.116  0.00  0.00    +0.015 A 
ATOM      3  C   UNL     1      -4.303  -0.503  -0.097  0.00  0.00    +0.026 A 
ATOM      4  C   UNL     1      -5.322   0.182  -0.749  0.00  0.00    +0.052 A 
ATOM      5  C   UNL     1      -5.116   1.493  -1.187  0.00  0.00    +0.070 A 
ATOM      6  C   UNL     1      -3.899   2.110  -0.970  0.00  0.00    +0.039 A 
ENDROOT
BRANCH   4   7
ATOM      7  N   UNL     1      -6.549  -0.440  -0.968  0.00  0.00    -0.332 N 
ATOM      8  C   UNL     1      -6.473  -1.876  -0.666  0.00  0.00    +0.086 C 
ATOM      9  C   UNL     1      -7.815  -2.536  -0.993  0.00  0.00    -0.063 C 
ATOM     10  N   UNL     1      -8.879  -1.891  -0.210  0.00  0.00    +0.381 N 
ATOM     11  C   UNL     1      -8.955  -0.455  -0.512  0.00  0.00    -0.063 C 
ATOM     12  C   UNL     1      -7.613   0.204  -0.185  0.00  0.00    +0.086 C 
ATOM     13  H   UNL     1      -9.845  -2.356  -0.453  0.00  0.00    -0.086 HD
ATOM     14  H   UNL     1      -8.671  -2.017   0.863  0.00  0.00    -0.086 HD
ENDBRANCH   4   7
BRANCH   1  16
ATOM     15  N   UNL     1      -0.466   1.326   0.093  0.00  0.00    -0.298 N 
ATOM     16  C   UNL     1      -1.574   2.074  -0.080  0.00  0.00    +0.247 C 
ATOM     17  O   UNL     1      -1.502   3.287  -0.044  0.00  0.00    -0.270 OA
BRANCH  15  18
ATOM     18  C   UNL     1      -0.540  -0.132  -0.026  0.00  0.00    +0.104 C 
ATOM     19  C   UNL     1      -0.453  -0.762   1.365  0.00  0.00    +0.024 C 
ENDBRANCH  15  18
BRANCH  15  20
ATOM     20  C   UNL     1       0.813   1.973   0.395  0.00  0.00    +0.108 C 
BRANCH  20  21
ATOM     21  C   UNL     1       1.540   2.300  -0.911  0.00  0.00    +0.019 C 
BRANCH  21  23
ATOM     22  C   UNL     1       3.603   3.301  -1.902  0.00  0.00    +0.004 C 
ATOM     23  C   UNL     1       2.877   2.975  -0.596  0.00  0.00    -0.002 C 
ENDBRANCH  21  23
ENDBRANCH  20  21
ENDBRANCH  15  20
ENDBRANCH   1  16
BRANCH   5  24
ATOM     24  N   UNL     1      -6.144   2.182  -1.844  0.00  0.00    -0.214 N 
ATOM     25  H   UNL     1      -6.915   2.705  -1.261  0.00  0.00    +0.174 HD
BRANCH  24  26
ATOM     26  S   UNL     1      -6.196   2.208  -3.499  0.00  0.00    +0.072 S 
ATOM     27  O   UNL     1      -7.361   2.938  -3.857  0.00  0.00    -0.150 OA
ATOM     28  O   UNL     1      -4.898   2.580  -3.941  0.00  0.00    -0.150 OA
BRANCH  26  29
ATOM     29  C   UNL     1      -6.456   0.550  -4.038  0.00  0.00    +0.109 A 
ATOM     30  C   UNL     1      -5.373  -0.270  -4.295  0.00  0.00    +0.031 A 
ATOM     31  C   UNL     1      -5.576  -1.571  -4.714  0.00  0.00    +0.040 A 
ATOM     32  C   UNL     1      -6.864  -2.050  -4.885  0.00  0.00    +0.124 A 
ATOM     33  C   UNL     1      -7.947  -1.226  -4.632  0.00  0.00    +0.040 A 
ATOM     34  C   UNL     1      -7.742   0.073  -4.209  0.00  0.00    +0.031 A 
ATOM     35  F   UNL     1      -7.063  -3.321  -5.299  0.00  0.00    -0.205 F 
ENDBRANCH  26  29
ENDBRANCH  24  26
ENDBRANCH   5  24
TORSDOF 9
