REMARK  Name = ZINC58576781
REMARK  9 active torsions:
REMARK  status: ('A' for Active; 'I' for Inactive)
REMARK    1  A    between atoms: C_1  and  C_2
REMARK    2  A    between atoms: C_3  and  C_8
REMARK    3  A    between atoms: C_4  and  C_7
REMARK    4  A    between atoms: C_8  and  N_9
REMARK    5  A    between atoms: N_9  and  C_10
REMARK    6  A    between atoms: N_9  and  C_11
REMARK    7  A    between atoms: C_11  and  C_12
REMARK    8  A    between atoms: N_20  and  C_21
REMARK    9  A    between atoms: C_21  and  C_22
REMARK                            x       y       z     vdW  Elec       q    Type
REMARK                         _______ _______ _______ _____ _____    ______ ____
ROOT
ATOM      1  C   UNL     1       2.776   0.695  -4.827  0.00  0.00    +0.094 A 
ATOM      2  N   UNL     1       3.403   1.816  -4.619  0.00  0.00    -0.234 NA
ATOM      3  C   UNL     1       4.655   1.742  -5.139  0.00  0.00    +0.091 A 
ATOM      4  C   UNL     1       5.728   2.636  -5.197  0.00  0.00    +0.050 A 
ATOM      5  C   UNL     1       6.901   2.256  -5.810  0.00  0.00    +0.043 A 
ATOM      6  C   UNL     1       7.026   0.992  -6.371  0.00  0.00    +0.022 A 
ATOM      7  C   UNL     1       5.977   0.099  -6.322  0.00  0.00    +0.029 A 
ATOM      8  C   UNL     1       4.787   0.464  -5.708  0.00  0.00    +0.069 A 
ATOM      9  N   UNL     1       3.583  -0.176  -5.490  0.00  0.00    -0.325 N 
ATOM     10 CL   UNL     1       8.233   3.366  -5.883  0.00  0.00    -0.083 Cl
ENDROOT
BRANCH   1  11
ATOM     11  C   UNL     1       1.363   0.403  -4.393  0.00  0.00    -0.003 C 
BRANCH  11  12
ATOM     12  N   UNL     1       1.375  -0.174  -3.042  0.00  0.00    +0.385 N 
ATOM     13  C   UNL     1       2.050  -1.478  -3.073  0.00  0.00    -0.095 C 
ATOM     14  H   UNL     1       1.869   0.445  -2.416  0.00  0.00    -0.081 HD
BRANCH  12  15
ATOM     15  C   UNL     1      -0.005  -0.348  -2.571  0.00  0.00    -0.037 C 
BRANCH  15  18
ATOM     16  C   UNL     1      -0.018   1.503   0.010  0.00  0.00    +0.069 C 
ATOM     17  C   UNL     1       0.002  -0.004   0.002  0.00  0.00    +0.082 A 
ATOM     18  C   UNL     1       0.008  -0.824  -1.141  0.00  0.00    +0.001 A 
ATOM     19  C   UNL     1       0.027  -2.108  -0.735  0.00  0.00    +0.136 A 
ATOM     20  O   UNL     1       0.034  -2.119   0.606  0.00  0.00    -0.359 OA
ATOM     21  N   UNL     1       0.023  -0.775   1.052  0.00  0.00    -0.083 NA
ATOM     22  C   UNL     1       0.039  -3.320  -1.631  0.00  0.00    +0.089 C 
ENDBRANCH  15  18
ENDBRANCH  12  15
ENDBRANCH  11  12
ENDBRANCH   1  11
BRANCH   9  23
ATOM     23  C   UNL     1       3.239  -1.540  -5.899  0.00  0.00    +0.158 C 
BRANCH  23  24
ATOM     24  C   UNL     1       2.636  -1.514  -7.280  0.00  0.00    -0.028 A 
ATOM     25  C   UNL     1       1.271  -1.363  -7.436  0.00  0.00    +0.005 A 
ATOM     26  C   UNL     1       0.719  -1.339  -8.703  0.00  0.00    +0.000 A 
ATOM     27  C   UNL     1       1.532  -1.464  -9.814  0.00  0.00    +0.000 A 
ATOM     28  C   UNL     1       2.897  -1.613  -9.658  0.00  0.00    +0.000 A 
ATOM     29  C   UNL     1       3.450  -1.633  -8.391  0.00  0.00    +0.005 A 
ENDBRANCH  23  24
ENDBRANCH   9  23
TORSDOF 6
