REMARK  Name = ZINC15071163
REMARK  6 active torsions:
REMARK  status: ('A' for Active; 'I' for Inactive)
REMARK    1  A    between atoms: C_1  and  C_2
REMARK    2  A    between atoms: C_2  and  C_3
REMARK    3  A    between atoms: C_3  and  C_4
REMARK    4  A    between atoms: C_4  and  N_5
REMARK    5  A    between atoms: C_16  and  N_64
REMARK    6  A    between atoms: C_22  and  C_25
REMARK                            x       y       z     vdW  Elec       q    Type
REMARK                         _______ _______ _______ _____ _____    ______ ____
ROOT
ATOM      1  N   UNL     1       1.135   1.915   0.002  0.00  0.00    -0.299 N 
ATOM      2  C   UNL     1       1.135   3.273   0.009  0.00  0.00    +0.203 A 
ATOM      3  N   UNL     1       0.018   3.949   0.024  0.00  0.00    -0.230 NA
ATOM      4  C   UNL     1      -1.157   3.327   0.031  0.00  0.00    +0.116 A 
ATOM      5  C   UNL     1      -1.259   1.927   0.018  0.00  0.00    +0.076 A 
ATOM      6  C   UNL     1      -0.015   1.215   0.009  0.00  0.00    +0.262 A 
ATOM      7  O   UNL     1       0.002  -0.004   0.002  0.00  0.00    -0.267 OA
ATOM      8  C   UNL     1      -2.616   1.383   0.022  0.00  0.00    -0.023 A 
ATOM      9  C   UNL     1      -3.632   2.272   0.032  0.00  0.00    -0.006 A 
ATOM     10  S   UNL     1      -2.849   3.862   0.050  0.00  0.00    -0.073 S 
ATOM     11  C   UNL     1      -5.100   1.972   0.037  0.00  0.00    +0.027 C 
ATOM     12  C   UNL     1      -5.295   0.497  -0.343  0.00  0.00    -0.063 C 
ATOM     13  C   UNL     1      -4.329  -0.356   0.485  0.00  0.00    -0.010 C 
ATOM     14  C   UNL     1      -2.893  -0.118   0.017  0.00  0.00    +0.035 C 
ENDROOT
BRANCH  12  20
ATOM     15  C   UNL     1      -6.965   0.178   1.380  0.00  0.00    -0.078 C 
ATOM     16  C   UNL     1      -8.361  -0.385   1.657  0.00  0.00    -0.008 C 
ATOM     17  C   UNL     1      -9.396   0.416   0.863  0.00  0.00    +0.052 C 
ATOM     18  C   UNL     1      -9.047   0.351  -0.626  0.00  0.00    -0.008 C 
ATOM     19  C   UNL     1      -7.631   0.894  -0.837  0.00  0.00    -0.078 C 
ATOM     20  N   UNL     1      -6.680   0.065  -0.066  0.00  0.00    +0.382 N 
ATOM     21  H   UNL     1      -6.786  -0.916  -0.351  0.00  0.00    -0.081 HD
BRANCH  17  22
ATOM     22  C   UNL     1     -10.766  -0.172   1.085  0.00  0.00    +0.111 A 
ATOM     23  N   UNL     1     -11.028  -1.497   1.249  0.00  0.00    -0.342 N 
ATOM     24  H   UNL     1     -10.358  -2.239   1.242  0.00  0.00    +0.167 HD
ATOM     25  C   UNL     1     -12.391  -1.627   1.426  0.00  0.00    +0.066 A 
ATOM     26  C   UNL     1     -13.240  -2.704   1.639  0.00  0.00    +0.028 A 
ATOM     27  C   UNL     1     -14.595  -2.490   1.773  0.00  0.00    +0.002 A 
ATOM     28  C   UNL     1     -15.114  -1.206   1.699  0.00  0.00    +0.002 A 
ATOM     29  C   UNL     1     -14.294  -0.133   1.491  0.00  0.00    +0.030 A 
ATOM     30  C   UNL     1     -12.917  -0.326   1.351  0.00  0.00    +0.089 A 
ATOM     31  N   UNL     1     -11.870   0.513   1.142  0.00  0.00    -0.232 NA
ENDBRANCH  17  22
ENDBRANCH  12  20
BRANCH   1  32
ATOM     32  C   UNL     1       2.412   1.197  -0.015  0.00  0.00    +0.126 C 
BRANCH  32  33
ATOM     33  C   UNL     1       2.843   0.955  -1.462  0.00  0.00    +0.021 C 
BRANCH  33  35
ATOM     34  C   UNL     1       4.608  -0.037  -2.927  0.00  0.00    +0.004 C 
ATOM     35  C   UNL     1       4.177   0.205  -1.479  0.00  0.00    -0.002 C 
ENDBRANCH  33  35
ENDBRANCH  32  33
ENDBRANCH   1  32
TORSDOF 5
