REMARK  Name = ZINC39687492
REMARK  3 active torsions:
REMARK  status: ('A' for Active; 'I' for Inactive)
REMARK    1  A    between atoms: C_10  and  N_13
REMARK    2  A    between atoms: C_14  and  C_16
REMARK    3  A    between atoms: C_27  and  C_29
REMARK                            x       y       z     vdW  Elec       q    Type
REMARK                         _______ _______ _______ _____ _____    ______ ____
ROOT
ATOM      1  C   UNL     1       0.669  -7.562  -3.358  0.00  0.00    +0.100 C 
ATOM      2  C   UNL     1       0.006  -6.874  -4.572  0.00  0.00    +0.121 C 
ATOM      3  N   UNL     1      -0.732  -7.960  -5.260  0.00  0.00    -0.300 N 
ATOM      4  C   UNL     1      -1.302  -8.773  -4.160  0.00  0.00    +0.115 C 
ATOM      5  C   UNL     1      -0.193  -8.807  -3.090  0.00  0.00    -0.004 C 
ATOM      6  C   UNL     1       0.646 -10.073  -3.240  0.00  0.00    -0.010 C 
ATOM      7  C   UNL     1      -0.218 -11.294  -2.913  0.00  0.00    -0.082 C 
ATOM      8  N   UNL     1      -0.729 -11.181  -1.542  0.00  0.00    +0.379 N 
ATOM      9  C   UNL     1      -1.610 -10.012  -1.430  0.00  0.00    -0.082 C 
ATOM     10  C   UNL     1      -0.804  -8.736  -1.694  0.00  0.00    -0.010 C 
ATOM     11  C   UNL     1      -0.857  -8.162  -6.587  0.00  0.00    +0.219 C 
ATOM     12  O   UNL     1      -1.500  -9.104  -6.999  0.00  0.00    -0.275 OA
ATOM     13  H   UNL     1      -1.248 -12.014  -1.308  0.00  0.00    -0.086 HD
ATOM     14  H   UNL     1       0.045 -11.079  -0.903  0.00  0.00    -0.086 HD
ENDROOT
BRANCH  11  15
ATOM     15  C   UNL     1      -0.197  -7.217  -7.558  0.00  0.00    +0.079 C 
ATOM     16  C   UNL     1      -0.499  -7.661  -8.995  0.00  0.00    +0.017 C 
ATOM     17  C   UNL     1       0.324  -6.797  -9.952  0.00  0.00    +0.027 C 
ATOM     18  C   UNL     1       0.156  -5.345  -9.612  0.00  0.00    -0.031 C 
ATOM     19  C   UNL     1      -0.308  -4.914  -8.483  0.00  0.00    -0.030 C 
ATOM     20  C   UNL     1      -0.748  -5.804  -7.357  0.00  0.00    +0.039 C 
ENDBRANCH  11  15
BRANCH   1  22
ATOM     21  N   UNL     1       1.632  -6.723  -1.239  0.00  0.00    -0.312 N 
ATOM     22  C   UNL     1       0.653  -6.645  -2.162  0.00  0.00    +0.218 C 
ATOM     23  O   UNL     1      -0.242  -5.837  -2.030  0.00  0.00    -0.275 OA
ATOM     24  H   UNL     1       2.347  -7.370  -1.345  0.00  0.00    +0.149 HD
BRANCH  21  34
ATOM     25  C   UNL     1       5.370  -3.605   4.480  0.00  0.00    +0.005 A 
ATOM     26  C   UNL     1       5.878  -2.409   3.991  0.00  0.00    +0.018 A 
ATOM     27  C   UNL     1       5.352  -1.873   2.834  0.00  0.00    +0.084 A 
ATOM     28  N   UNL     1       4.375  -2.482   2.189  0.00  0.00    -0.350 N 
ATOM     29  C   UNL     1       3.864  -3.624   2.622  0.00  0.00    +0.099 A 
ATOM     30  C   UNL     1       4.347  -4.221   3.782  0.00  0.00    +0.042 A 
ATOM     31  N   UNL     1       2.835  -4.231   1.912  0.00  0.00    -0.317 N 
ATOM     32  C   UNL     1       2.341  -5.560   2.298  0.00  0.00    +0.108 C 
ATOM     33  C   UNL     1       2.390  -6.480   1.073  0.00  0.00    +0.041 C 
ATOM     34  C   UNL     1       1.616  -5.832  -0.077  0.00  0.00    +0.076 C 
ATOM     35  C   UNL     1       2.270  -4.499  -0.447  0.00  0.00    +0.041 C 
ATOM     36  C   UNL     1       2.217  -3.555   0.763  0.00  0.00    +0.108 C 
ATOM     37  H   UNL     1       4.023  -2.084   1.377  0.00  0.00    +0.166 HD
ENDBRANCH  21  34
ENDBRANCH   1  22
TORSDOF 3
