REMARK  Name = ZINC14276400
REMARK  8 active torsions:
REMARK  status: ('A' for Active; 'I' for Inactive)
REMARK    1  A    between atoms: C_1  and  C_2
REMARK    2  A    between atoms: C_5  and  C_24
REMARK    3  A    between atoms: C_7  and  N_8
REMARK    4  A    between atoms: N_8  and  C_9
REMARK    5  A    between atoms: C_9  and  N_11
REMARK    6  A    between atoms: C_12  and  C_14
REMARK    7  A    between atoms: C_15  and  C_16
REMARK    8  A    between atoms: C_27  and  C_32
REMARK                            x       y       z     vdW  Elec       q    Type
REMARK                         _______ _______ _______ _____ _____    ______ ____
ROOT
ATOM      1  N   UNL     1      -3.790   7.541   0.061  0.00  0.00    -0.296 N 
ATOM      2  H   UNL     1      -3.062   7.815  -0.519  0.00  0.00    +0.154 HD
ENDROOT
BRANCH   1   9
ATOM      3  C   UNL     1      -3.821  10.377  -0.125  0.00  0.00    +0.045 C 
ATOM      4  C   UNL     1      -5.092   9.568  -0.115  0.00  0.00    -0.029 A 
ATOM      5  C   UNL     1      -6.315  10.206  -0.197  0.00  0.00    +0.006 A 
ATOM      6  C   UNL     1      -7.483   9.471  -0.189  0.00  0.00    +0.011 A 
ATOM      7  C   UNL     1      -7.432   8.079  -0.097  0.00  0.00    +0.011 A 
ATOM      8  C   UNL     1      -6.199   7.436  -0.019  0.00  0.00    +0.034 A 
ATOM      9  C   UNL     1      -5.030   8.183  -0.022  0.00  0.00    +0.036 A 
BRANCH   7  10
ATOM     10  C   UNL     1      -8.684   7.289  -0.087  0.00  0.00    +0.132 A 
ATOM     11  N   UNL     1      -9.921   7.709  -0.156  0.00  0.00    -0.156 NA
ATOM     12  N   UNL     1     -10.985   6.816  -0.135  0.00  0.00    -0.190 N 
ATOM     13  C   UNL     1     -12.364   6.820  -0.183  0.00  0.00    +0.153 A 
ATOM     14  N   UNL     1     -12.773   5.583  -0.118  0.00  0.00    -0.132 NA
ATOM     15  N   UNL     1     -11.763   4.789  -0.032  0.00  0.00    -0.120 NA
ATOM     16  C   UNL     1     -10.666   5.484  -0.038  0.00  0.00    +0.218 A 
ATOM     17  S   UNL     1      -8.892   5.518   0.013  0.00  0.00    -0.026 S 
ATOM     18  C   UNL     1     -13.243   8.039  -0.290  0.00  0.00    +0.090 C 
ENDBRANCH   7  10
ENDBRANCH   1   9
BRANCH   1  19
ATOM     19  C   UNL     1      -3.605   6.543   0.948  0.00  0.00    +0.141 C 
ATOM     20  S   UNL     1      -4.841   6.153   2.067  0.00  0.00    -0.018 S 
BRANCH  19  21
ATOM     21  N   UNL     1      -2.448   5.852   0.953  0.00  0.00    -0.264 N 
ATOM     22  C   UNL     1      -2.264   4.854   1.840  0.00  0.00    +0.242 C 
ATOM     23  O   UNL     1      -3.142   4.577   2.635  0.00  0.00    -0.270 OA
ATOM     24  H   UNL     1      -1.748   6.073   0.319  0.00  0.00    +0.157 HD
BRANCH  22  25
ATOM     25  C   UNL     1      -1.008   4.104   1.846  0.00  0.00    +0.068 C 
ATOM     26  C   UNL     1      -0.824   3.105   2.734  0.00  0.00    +0.014 C 
BRANCH  26  27
ATOM     27  C   UNL     1       0.439   2.350   2.740  0.00  0.00    -0.006 A 
ATOM     28  C   UNL     1       1.449   2.663   1.824  0.00  0.00    +0.011 A 
ATOM     29  C   UNL     1       2.627   1.948   1.832  0.00  0.00    +0.020 A 
ATOM     30  C   UNL     1       2.814   0.922   2.744  0.00  0.00    +0.042 A 
ATOM     31  C   UNL     1       1.820   0.606   3.655  0.00  0.00    +0.040 A 
ATOM     32  C   UNL     1       0.634   1.313   3.660  0.00  0.00    +0.049 A 
ATOM     33 CL   UNL     1      -0.612   0.916   4.802  0.00  0.00    -0.083 Cl
ATOM     34 CL   UNL     1       4.302   0.028   2.746  0.00  0.00    -0.083 Cl
ENDBRANCH  26  27
ENDBRANCH  22  25
ENDBRANCH  19  21
ENDBRANCH   1  19
TORSDOF 6
