REMARK  Name = ZINC06504836
REMARK  12 active torsions:
REMARK  status: ('A' for Active; 'I' for Inactive)
REMARK    1  A    between atoms: C_1  and  C_2
REMARK    2  A    between atoms: C_2  and  O_3
REMARK    3  A    between atoms: O_3  and  C_4
REMARK    4  A    between atoms: C_4  and  C_6
REMARK    5  A    between atoms: C_7  and  C_22
REMARK    6  A    between atoms: C_9  and  N_21
REMARK    7  A    between atoms: C_10  and  C_19
REMARK    8  A    between atoms: C_11  and  C_13
REMARK    9  A    between atoms: C_22  and  S_23
REMARK   10  A    between atoms: S_23  and  C_24
REMARK   11  A    between atoms: C_25  and  C_34
REMARK   12  A    between atoms: C_33  and  N_60
REMARK                            x       y       z     vdW  Elec       q    Type
REMARK                         _______ _______ _______ _____ _____    ______ ____
ROOT
ATOM      1  C   UNL     1      -3.647   2.845   0.385  0.00  0.00    +0.088 C 
ATOM      2  C   UNL     1      -2.533   3.383   0.897  0.00  0.00    +0.128 C 
ATOM      3  O   UNL     1      -1.312   2.924   0.594  0.00  0.00    -0.444 OA
ATOM      4  C   UNL     1      -1.179   1.692   0.071  0.00  0.00    +0.198 C 
ATOM      5  C   UNL     1      -2.223   1.042  -0.498  0.00  0.00    +0.098 C 
ATOM      6  C   UNL     1      -3.582   1.683  -0.569  0.00  0.00    +0.105 C 
ENDROOT
BRANCH   6   7
ATOM      7  C   UNL     1      -3.832   2.175  -1.972  0.00  0.00    -0.034 A 
ATOM      8  C   UNL     1      -2.992   3.118  -2.533  0.00  0.00    +0.004 A 
ATOM      9  C   UNL     1      -3.218   3.565  -3.822  0.00  0.00    +0.000 A 
ATOM     10  C   UNL     1      -4.290   3.076  -4.545  0.00  0.00    +0.000 A 
ATOM     11  C   UNL     1      -5.133   2.136  -3.981  0.00  0.00    +0.000 A 
ATOM     12  C   UNL     1      -4.904   1.686  -2.695  0.00  0.00    +0.004 A 
ENDBRANCH   6   7
BRANCH   4  13
ATOM     13  N   UNL     1       0.046   1.075   0.120  0.00  0.00    -0.328 N 
ATOM     14  H   UNL     1       0.156   0.185  -0.250  0.00  0.00    +0.145 HD
ATOM     15  H   UNL     1       0.803   1.530   0.521  0.00  0.00    +0.145 HD
ENDBRANCH   4  13
BRANCH   1  16
ATOM     16  C   UNL     1      -4.909   3.377   0.749  0.00  0.00    +0.339 C 
ATOM     17  O   UNL     1      -4.992   4.521   1.156  0.00  0.00    -0.245 OA
BRANCH  16  18
ATOM     18  O   UNL     1      -6.018   2.616   0.644  0.00  0.00    -0.462 OA
BRANCH  18  20
ATOM     19  C   UNL     1      -8.392   2.210   0.842  0.00  0.00    +0.048 C 
ATOM     20  C   UNL     1      -7.256   3.218   1.028  0.00  0.00    +0.229 C 
ENDBRANCH  18  20
ENDBRANCH  16  18
ENDBRANCH   1  16
BRANCH   5  21
ATOM     21  C   UNL     1      -2.030  -0.270  -1.038  0.00  0.00    +0.101 C 
ATOM     22  N   UNL     1      -1.877  -1.311  -1.466  0.00  0.00    -0.191 NA
ENDBRANCH   5  21
BRANCH   2  23
ATOM     23  C   UNL     1      -2.658   4.544   1.849  0.00  0.00    +0.150 C 
BRANCH  23  24
ATOM     24  S   UNL     1      -2.216   6.077   0.993  0.00  0.00    -0.097 S 
BRANCH  24  25
ATOM     25  C   UNL     1      -2.443   7.235   2.302  0.00  0.00    +0.115 A 
ATOM     26  C   UNL     1      -2.198   8.602   2.079  0.00  0.00    +0.084 A 
ATOM     27  C   UNL     1      -2.389   9.495   3.137  0.00  0.00    +0.025 A 
ATOM     28  C   UNL     1      -2.802   8.997   4.365  0.00  0.00    -0.041 A 
ATOM     29  C   UNL     1      -3.021   7.642   4.510  0.00  0.00    +0.042 A 
ATOM     30  N   UNL     1      -2.837   6.815   3.492  0.00  0.00    -0.244 NA
ATOM     31  C   UNL     1      -3.479   7.058   5.824  0.00  0.00    +0.037 C 
ATOM     32  C   UNL     1      -3.232   8.057   6.955  0.00  0.00    -0.073 C 
ATOM     33  C   UNL     1      -2.994   9.965   5.502  0.00  0.00    -0.042 C 
ATOM     34  C   UNL     1      -3.912  10.253   7.722  0.00  0.00    -0.096 C 
ATOM     35  N   UNL     1      -3.823   9.351   6.553  0.00  0.00    +0.381 N 
ATOM     36  H   UNL     1      -4.767   9.188   6.184  0.00  0.00    -0.082 HD
BRANCH  26  37
ATOM     37  C   UNL     1      -1.767   9.068   0.796  0.00  0.00    +0.102 C 
ATOM     38  N   UNL     1      -1.425   9.439  -0.222  0.00  0.00    -0.191 NA
ENDBRANCH  26  37
ENDBRANCH  24  25
ENDBRANCH  23  24
ENDBRANCH   2  23
TORSDOF 10
