REMARK  Name = ZINC25052991
REMARK  8 active torsions:
REMARK  status: ('A' for Active; 'I' for Inactive)
REMARK    1  A    between atoms: C_1  and  O_2
REMARK    2  A    between atoms: O_2  and  C_3
REMARK    3  A    between atoms: C_6  and  C_9
REMARK    4  A    between atoms: C_12  and  C_15
REMARK    5  A    between atoms: C_20  and  C_22
REMARK    6  A    between atoms: C_22  and  N_23
REMARK    7  A    between atoms: N_26  and  C_29
REMARK    8  A    between atoms: C_29  and  C_30
REMARK                            x       y       z     vdW  Elec       q    Type
REMARK                         _______ _______ _______ _____ _____    ______ ____
ROOT
ATOM      1  C   UNL     1      13.106   1.107  -4.963  0.00  0.00    +0.069 C 
ATOM      2  N   UNL     1      11.935   1.520  -4.621  0.00  0.00    -0.181 NA
ATOM      3  N   UNL     1      11.348   0.782  -3.595  0.00  0.00    -0.181 N 
ATOM      4  C   UNL     1      12.274  -0.287  -3.188  0.00  0.00    +0.173 C 
ATOM      5  C   UNL     1      13.487  -0.088  -4.118  0.00  0.00    +0.090 C 
ATOM      6  C   UNL     1      10.133   1.012  -3.059  0.00  0.00    +0.249 C 
ATOM      7  O   UNL     1       9.720   0.304  -2.166  0.00  0.00    -0.272 OA
ENDROOT
BRANCH   1  11
ATOM      8  C   UNL     1      15.523   2.832  -7.998  0.00  0.00    +0.120 A 
ATOM      9  C   UNL     1      14.272   3.369  -7.720  0.00  0.00    +0.046 A 
ATOM     10  C   UNL     1      13.484   2.812  -6.736  0.00  0.00    +0.013 A 
ATOM     11  C   UNL     1      13.945   1.706  -6.018  0.00  0.00    -0.002 A 
ATOM     12  C   UNL     1      15.206   1.172  -6.297  0.00  0.00    +0.013 A 
ATOM     13  C   UNL     1      15.985   1.732  -7.287  0.00  0.00    +0.046 A 
BRANCH   8  15
ATOM     14  C   UNL     1      17.570   2.782  -9.204  0.00  0.00    +0.277 C 
ATOM     15  O   UNL     1      16.296   3.384  -8.969  0.00  0.00    -0.495 OA
ENDBRANCH   8  15
ENDBRANCH   1  11
BRANCH   4  16
ATOM     16  C   UNL     1      12.676  -0.119  -1.745  0.00  0.00    +0.128 A 
ATOM     17  C   UNL     1      12.847  -1.113  -0.856  0.00  0.00    +0.046 A 
ATOM     18  C   UNL     1      13.220  -0.509   0.367  0.00  0.00    +0.041 A 
ATOM     19  C   UNL     1      13.255   0.818   0.151  0.00  0.00    +0.195 A 
ATOM     20  O   UNL     1      12.930   1.048  -1.131  0.00  0.00    -0.466 OA
ENDBRANCH   4  16
BRANCH   6  21
ATOM     21  C   UNL     1       9.288   2.151  -3.571  0.00  0.00    +0.182 C 
BRANCH  21  22
ATOM     22  N   UNL     1       8.089   2.285  -2.733  0.00  0.00    -0.298 NA
ATOM     23  C   UNL     1       8.442   2.705  -1.370  0.00  0.00    +0.066 C 
ATOM     24  C   UNL     1       7.177   2.756  -0.510  0.00  0.00    -0.063 C 
ATOM     25  N   UNL     1       6.215   3.689  -1.113  0.00  0.00    +0.387 N 
ATOM     26  C   UNL     1       5.862   3.268  -2.476  0.00  0.00    -0.063 C 
ATOM     27  C   UNL     1       7.127   3.218  -3.336  0.00  0.00    +0.066 C 
ATOM     28  H   UNL     1       6.694   4.677  -1.176  0.00  0.00    -0.081 HD
BRANCH  25  29
ATOM     29  C   UNL     1       5.016   3.823  -0.276  0.00  0.00    +0.019 C 
BRANCH  29  30
ATOM     30  C   UNL     1       4.169   4.958  -0.789  0.00  0.00    +0.199 C 
ATOM     31  O   UNL     1       4.529   5.594  -1.757  0.00  0.00    -0.278 OA
ATOM     32  N   UNL     1       3.011   5.268  -0.172  0.00  0.00    -0.303 N 
ATOM     33  C   UNL     1       2.457   4.582   1.010  0.00  0.00    +0.108 C 
ATOM     34  C   UNL     1       1.532   5.630   1.678  0.00  0.00    +0.020 C 
ATOM     35  C   UNL     1       0.923   6.342   0.441  0.00  0.00    +0.020 C 
ATOM     36  C   UNL     1       2.092   6.346  -0.566  0.00  0.00    +0.108 C 
ENDBRANCH  29  30
ENDBRANCH  25  29
ENDBRANCH  21  22
ENDBRANCH   6  21
TORSDOF 7
