REMARK  Name = ZINC39487340
REMARK  10 active torsions:
REMARK  status: ('A' for Active; 'I' for Inactive)
REMARK    1  A    between atoms: C_1  and  C_2
REMARK    2  A    between atoms: C_2  and  C_3
REMARK    3  A    between atoms: C_3  and  C_4
REMARK    4  A    between atoms: C_4  and  C_31
REMARK    5  A    between atoms: N_6  and  O_30
REMARK    6  A    between atoms: N_9  and  C_10
REMARK    7  A    between atoms: C_10  and  C_11
REMARK    8  A    between atoms: C_11  and  C_24
REMARK    9  A    between atoms: N_14  and  C_17
REMARK   10  A    between atoms: C_17  and  C_18
REMARK                            x       y       z     vdW  Elec       q    Type
REMARK                         _______ _______ _______ _____ _____    ______ ____
ROOT
ATOM      1  C   UNL     1       3.461  -3.119  -2.400  0.00  0.00    -0.014 C 
ATOM      2  C   UNL     1       3.064  -4.468  -3.008  0.00  0.00    -0.010 C 
ATOM      3  C   UNL     1       1.563  -4.687  -2.811  0.00  0.00    -0.078 C 
ATOM      4  N   UNL     1       1.248  -4.684  -1.377  0.00  0.00    +0.382 N 
ATOM      5  C   UNL     1       1.560  -3.370  -0.802  0.00  0.00    -0.078 C 
ATOM      6  C   UNL     1       3.061  -3.099  -0.922  0.00  0.00    -0.010 C 
ATOM      7  H   UNL     1       1.796  -5.392  -0.912  0.00  0.00    -0.081 HD
ENDROOT
BRANCH   1   8
ATOM      8  C   UNL     1       4.974  -2.926  -2.523  0.00  0.00    -0.003 C 
ATOM      9  C   UNL     1       5.403  -3.169  -3.972  0.00  0.00    +0.004 C 
ATOM     10  C   UNL     1       6.916  -2.977  -4.095  0.00  0.00    +0.000 C 
ATOM     11  C   UNL     1       7.633  -3.969  -3.178  0.00  0.00    +0.000 C 
ATOM     12  C   UNL     1       7.204  -3.726  -1.729  0.00  0.00    +0.000 C 
ATOM     13  C   UNL     1       5.691  -3.919  -1.606  0.00  0.00    +0.004 C 
ENDBRANCH   1   8
BRANCH   1  14
ATOM     14  C   UNL     1       2.740  -1.992  -3.141  0.00  0.00    +0.117 C 
BRANCH  14  20
ATOM     15  C   UNL     1       3.887   0.346  -2.985  0.00  0.00    +0.054 C 
ATOM     16  C   UNL     1       3.812   1.442  -1.904  0.00  0.00    +0.167 C 
ATOM     17  N   UNL     1       2.900   0.880  -0.896  0.00  0.00    -0.165 N 
ATOM     18  C   UNL     1       2.498  -0.334  -1.295  0.00  0.00    +0.328 C 
ATOM     19  O   UNL     1       1.736  -1.026  -0.647  0.00  0.00    -0.250 OA
ATOM     20  N   UNL     1       3.010  -0.717  -2.472  0.00  0.00    -0.276 N 
ATOM     21  C   UNL     1       5.321  -0.167  -3.135  0.00  0.00    +0.033 C 
BRANCH  17  22
ATOM     22  O   UNL     1       2.510   1.520   0.305  0.00  0.00    -0.291 OA
ATOM     23  H   UNL     1       1.902   1.000   0.848  0.00  0.00    +0.242 HD
ENDBRANCH  17  22
BRANCH  15  24
ATOM     24  C   UNL     1       3.365   0.874  -4.323  0.00  0.00    +0.027 C 
BRANCH  24  26
ATOM     25  C   UNL     1       3.772   2.505  -6.171  0.00  0.00    +0.004 C 
ATOM     26  C   UNL     1       4.294   1.977  -4.834  0.00  0.00    -0.001 C 
ENDBRANCH  24  26
ENDBRANCH  15  24
ENDBRANCH  14  20
ENDBRANCH   1  14
BRANCH   4  27
ATOM     27  C   UNL     1      -0.180  -4.973  -1.190  0.00  0.00    -0.043 C 
BRANCH  27  28
ATOM     28  C   UNL     1      -0.474  -5.119   0.281  0.00  0.00    -0.064 A 
ATOM     29  C   UNL     1      -0.376  -6.357   0.886  0.00  0.00    +0.002 A 
ATOM     30  C   UNL     1      -0.646  -6.491   2.235  0.00  0.00    +0.000 A 
ATOM     31  C   UNL     1      -1.014  -5.386   2.979  0.00  0.00    +0.000 A 
ATOM     32  C   UNL     1      -1.111  -4.147   2.374  0.00  0.00    +0.000 A 
ATOM     33  C   UNL     1      -0.837  -4.012   1.026  0.00  0.00    +0.002 A 
ENDBRANCH  27  28
ENDBRANCH   4  27
TORSDOF 8
