REMARK  Name = ZINC20179166
REMARK  7 active torsions:
REMARK  status: ('A' for Active; 'I' for Inactive)
REMARK    1  A    between atoms: C_1  and  C_2
REMARK    2  A    between atoms: C_7  and  C_8
REMARK    3  A    between atoms: C_8  and  N_9
REMARK    4  A    between atoms: C_18  and  C_19
REMARK    5  A    between atoms: N_21  and  C_22
REMARK    6  A    between atoms: C_22  and  C_23
REMARK    7  A    between atoms: C_23  and  C_24
REMARK                            x       y       z     vdW  Elec       q    Type
REMARK                         _______ _______ _______ _____ _____    ______ ____
ROOT
ATOM      1  N   UNL     1      -3.870   0.988   0.700  0.00  0.00    -0.262 N 
ATOM      2  C   UNL     1      -3.731   1.834   1.790  0.00  0.00    +0.051 A 
ATOM      3  C   UNL     1      -4.715   1.798   2.779  0.00  0.00    +0.024 A 
ATOM      4  C   UNL     1      -4.624   2.612   3.886  0.00  0.00    +0.002 A 
ATOM      5  C   UNL     1      -3.554   3.478   4.032  0.00  0.00    +0.001 A 
ATOM      6  C   UNL     1      -2.573   3.528   3.063  0.00  0.00    +0.017 A 
ATOM      7  C   UNL     1      -2.657   2.711   1.941  0.00  0.00    +0.034 A 
ATOM      8  S   UNL     1      -1.396   2.799   0.716  0.00  0.00    -0.082 S 
ATOM      9  C   UNL     1      -1.504   1.146   0.096  0.00  0.00    +0.080 C 
ATOM     10  C   UNL     1      -0.388   0.421  -0.194  0.00  0.00    +0.087 C 
ATOM     11  C   UNL     1      -2.867   0.580  -0.088  0.00  0.00    +0.258 C 
ATOM     12  O   UNL     1      -3.070  -0.251  -0.952  0.00  0.00    -0.269 OA
ENDROOT
BRANCH  10  13
ATOM     13  C   UNL     1       0.894   0.993  -0.013  0.00  0.00    +0.238 C 
ATOM     14  O   UNL     1       0.999   2.131   0.408  0.00  0.00    -0.271 OA
ATOM     15  N   UNL     1       1.998   0.277  -0.305  0.00  0.00    -0.311 N 
ATOM     16  H   UNL     1       1.903  -0.751  -0.685  0.00  0.00    +0.149 HD
BRANCH  15  17
ATOM     17  C   UNL     1       3.325   0.869  -0.118  0.00  0.00    +0.109 C 
BRANCH  17  18
ATOM     18  C   UNL     1       4.397  -0.145  -0.520  0.00  0.00    +0.054 C 
BRANCH  18  19
ATOM     19  C   UNL     1       5.762   0.463  -0.327  0.00  0.00    -0.046 A 
ATOM     20  C   UNL     1       6.363   1.154  -1.363  0.00  0.00    +0.005 A 
ATOM     21  C   UNL     1       7.613   1.717  -1.184  0.00  0.00    +0.020 A 
ATOM     22  C   UNL     1       8.267   1.579   0.027  0.00  0.00    +0.041 A 
ATOM     23  C   UNL     1       7.667   0.883   1.061  0.00  0.00    +0.020 A 
ATOM     24  C   UNL     1       6.415   0.325   0.883  0.00  0.00    +0.005 A 
ATOM     25 CL   UNL     1       9.839   2.281   0.250  0.00  0.00    -0.084 Cl
ENDBRANCH  18  19
ENDBRANCH  17  18
ENDBRANCH  15  17
ENDBRANCH  10  13
BRANCH   1  26
ATOM     26  C   UNL     1      -5.216   0.504   0.386  0.00  0.00    +0.149 C 
BRANCH  26  33
ATOM     27  C   UNL     1      -5.028   1.244  -2.401  0.00  0.00    +0.044 C 
ATOM     28  C   UNL     1      -5.957   1.995  -1.482  0.00  0.00    -0.046 A 
ATOM     29  C   UNL     1      -6.722   3.037  -1.974  0.00  0.00    +0.003 A 
ATOM     30  C   UNL     1      -7.571   3.729  -1.131  0.00  0.00    +0.000 A 
ATOM     31  C   UNL     1      -7.657   3.378   0.203  0.00  0.00    +0.000 A 
ATOM     32  C   UNL     1      -6.895   2.335   0.694  0.00  0.00    +0.005 A 
ATOM     33  C   UNL     1      -6.047   1.641  -0.149  0.00  0.00    -0.027 A 
ENDBRANCH  26  33
ENDBRANCH   1  26
TORSDOF 6
