REMARK  Name = ZINC40668843
REMARK  8 active torsions:
REMARK  status: ('A' for Active; 'I' for Inactive)
REMARK    1  A    between atoms: C_1  and  C_2
REMARK    2  A    between atoms: C_7  and  C_9
REMARK    3  A    between atoms: C_7  and  N_18
REMARK    4  A    between atoms: C_9  and  N_10
REMARK    5  A    between atoms: N_10  and  C_11
REMARK    6  A    between atoms: C_11  and  C_12
REMARK    7  A    between atoms: N_18  and  C_19
REMARK    8  A    between atoms: N_18  and  C_20
REMARK                            x       y       z     vdW  Elec       q    Type
REMARK                         _______ _______ _______ _____ _____    ______ ____
ROOT
ATOM      1  C   UNL     1       0.278   1.657   0.227  0.00  0.00    +0.007 C 
ATOM      2  C   UNL     1       0.268   0.142   0.013  0.00  0.00    -0.015 C 
ATOM      3  C   UNL     1       1.168  -0.211  -1.172  0.00  0.00    +0.003 C 
ATOM      4  C   UNL     1       1.159  -1.726  -1.386  0.00  0.00    -0.001 C 
ATOM      5  C   UNL     1       1.678  -2.422  -0.127  0.00  0.00    -0.014 C 
ATOM      6  C   UNL     1       0.778  -2.069   1.059  0.00  0.00    -0.082 C 
ATOM      7  C   UNL     1       0.788  -0.554   1.273  0.00  0.00    -0.011 C 
ENDROOT
BRANCH   6   8
ATOM      8  N   UNL     1       1.277  -2.737   2.269  0.00  0.00    +0.379 N 
ATOM      9  C   UNL     1       2.649  -2.289   2.545  0.00  0.00    -0.096 C 
ATOM     10  C   UNL     1       0.413  -2.398   3.407  0.00  0.00    -0.096 C 
ATOM     11  H   UNL     1       1.271  -3.736   2.128  0.00  0.00    -0.082 HD
ENDBRANCH   6   8
BRANCH   6  12
ATOM     12  C   UNL     1      -0.650  -2.534   0.772  0.00  0.00    -0.094 C 
BRANCH  12  13
ATOM     13  N   UNL     1      -0.681  -4.001   0.696  0.00  0.00    +0.383 N 
ATOM     14  H   UNL     1      -0.022  -4.316  -0.000  0.00  0.00    -0.085 HD
ATOM     15  H   UNL     1      -0.434  -4.390   1.593  0.00  0.00    -0.085 HD
BRANCH  13  16
ATOM     16  C   UNL     1      -2.032  -4.444   0.325  0.00  0.00    -0.007 C 
BRANCH  16  17
ATOM     17  C   UNL     1      -2.064  -5.948   0.247  0.00  0.00    +0.090 A 
ATOM     18  C   UNL     1      -2.359  -6.782   1.260  0.00  0.00    +0.044 A 
ATOM     19  C   UNL     1      -2.270  -8.097   0.748  0.00  0.00    +0.056 A 
ATOM     20  C   UNL     1      -1.926  -7.988  -0.549  0.00  0.00    +0.165 A 
ATOM     21  O   UNL     1      -1.808  -6.684  -0.848  0.00  0.00    -0.456 OA
ATOM     22  I   UNL     1      -1.632  -9.581  -1.877  0.00  0.00    -0.001 I 
ENDBRANCH  16  17
ENDBRANCH  13  16
ENDBRANCH  12  13
ENDBRANCH   6  12
TORSDOF 5
