REMARK  Name = ZINC23599729
REMARK  8 active torsions:
REMARK  status: ('A' for Active; 'I' for Inactive)
REMARK    1  A    between atoms: C_1  and  C_2
REMARK    2  A    between atoms: C_7  and  N_8
REMARK    3  A    between atoms: C_11  and  C_16
REMARK    4  A    between atoms: C_16  and  S_17
REMARK    5  A    between atoms: S_17  and  C_18
REMARK    6  A    between atoms: C_21  and  C_30
REMARK    7  A    between atoms: N_22  and  C_23
REMARK    8  A    between atoms: C_23  and  C_24
REMARK                            x       y       z     vdW  Elec       q    Type
REMARK                         _______ _______ _______ _____ _____    ______ ____
ROOT
ATOM      1  C   UNL     1      -4.903   3.667   3.182  0.00  0.00    +0.153 C 
ENDROOT
BRANCH   1   5
ATOM      2  N   UNL     1      -4.450   8.259   4.498  0.00  0.00    -0.283 N 
ATOM      3  C   UNL     1      -5.235   7.244   3.985  0.00  0.00    +0.224 A 
ATOM      4  N   UNL     1      -4.731   6.019   3.843  0.00  0.00    -0.198 NA
ATOM      5  C   UNL     1      -5.479   5.049   3.347  0.00  0.00    +0.146 A 
ATOM      6  N   UNL     1      -6.732   5.287   3.001  0.00  0.00    -0.199 NA
ATOM      7  C   UNL     1      -7.244   6.508   3.145  0.00  0.00    +0.217 A 
ATOM      8  N   UNL     1      -6.494   7.487   3.638  0.00  0.00    -0.181 NA
ATOM      9  N   UNL     1      -8.552   6.755   2.782  0.00  0.00    -0.327 N 
ATOM     10  H   UNL     1      -3.441   8.037   4.875  0.00  0.00    +0.155 HD
ATOM     11  H   UNL     1      -8.975   7.764   2.901  0.00  0.00    +0.145 HD
ATOM     12  H   UNL     1      -9.172   5.944   2.373  0.00  0.00    +0.145 HD
BRANCH   2  19
ATOM     13  C   UNL     1      -3.548   9.966   6.588  0.00  0.00    +0.045 C 
ATOM     14  C   UNL     1      -4.526  10.435   5.542  0.00  0.00    -0.029 A 
ATOM     15  C   UNL     1      -5.011  11.727   5.579  0.00  0.00    +0.005 A 
ATOM     16  C   UNL     1      -5.908  12.159   4.619  0.00  0.00    +0.000 A 
ATOM     17  C   UNL     1      -6.322  11.298   3.619  0.00  0.00    +0.002 A 
ATOM     18  C   UNL     1      -5.838  10.006   3.574  0.00  0.00    +0.023 A 
ATOM     19  C   UNL     1      -4.940   9.568   4.539  0.00  0.00    +0.036 A 
ENDBRANCH   2  19
ENDBRANCH   1   5
BRANCH   1  20
ATOM     20  S   UNL     1      -4.160   3.515   1.539  0.00  0.00    -0.078 S 
BRANCH  20  21
ATOM     21  C   UNL     1      -3.583   1.851   1.617  0.00  0.00    +0.193 A 
ATOM     22  N   UNL     1      -3.709   1.029   2.635  0.00  0.00    -0.122 NA
ATOM     23  N   UNL     1      -3.176  -0.106   2.353  0.00  0.00    -0.128 NA
ATOM     24  C   UNL     1      -2.682  -0.080   1.137  0.00  0.00    +0.167 A 
ATOM     25  N   UNL     1      -2.923   1.176   0.630  0.00  0.00    -0.298 N 
BRANCH  24  26
ATOM     26  C   UNL     1      -1.993  -1.190   0.445  0.00  0.00    +0.037 A 
ATOM     27  C   UNL     1      -2.130  -1.360  -0.938  0.00  0.00    +0.014 A 
ATOM     28  C   UNL     1      -1.465  -2.414  -1.538  0.00  0.00    +0.020 A 
ATOM     29  C   UNL     1      -0.693  -3.259  -0.760  0.00  0.00    +0.111 A 
ATOM     30  N   UNL     1      -0.582  -3.074   0.541  0.00  0.00    -0.263 NA
ATOM     31  C   UNL     1      -1.192  -2.082   1.158  0.00  0.00    +0.122 A 
ENDBRANCH  24  26
BRANCH  25  32
ATOM     32  C   UNL     1      -2.554   1.682  -0.694  0.00  0.00    +0.161 C 
BRANCH  32  33
ATOM     33  C   UNL     1      -1.197   2.334  -0.623  0.00  0.00    -0.028 A 
ATOM     34  C   UNL     1      -0.057   1.584  -0.847  0.00  0.00    +0.005 A 
ATOM     35  C   UNL     1       1.187   2.183  -0.787  0.00  0.00    +0.000 A 
ATOM     36  C   UNL     1       1.292   3.531  -0.498  0.00  0.00    +0.000 A 
ATOM     37  C   UNL     1       0.152   4.280  -0.270  0.00  0.00    +0.000 A 
ATOM     38  C   UNL     1      -1.092   3.680  -0.330  0.00  0.00    +0.005 A 
ENDBRANCH  32  33
ENDBRANCH  25  32
ENDBRANCH  20  21
ENDBRANCH   1  20
TORSDOF 7
