REMARK  Name = ZINC38649956
REMARK  10 active torsions:
REMARK  status: ('A' for Active; 'I' for Inactive)
REMARK    1  A    between atoms: C_1  and  O_2
REMARK    2  A    between atoms: O_2  and  C_3
REMARK    3  A    between atoms: C_8  and  C_9
REMARK    4  A    between atoms: C_14  and  O_23
REMARK    5  A    between atoms: C_18  and  N_22
REMARK    6  A    between atoms: C_19  and  C_20
REMARK    7  A    between atoms: O_23  and  C_24
REMARK    8  A    between atoms: C_24  and  C_26
REMARK    9  A    between atoms: C_26  and  O_27
REMARK   10  A    between atoms: O_27  and  C_28
REMARK                            x       y       z     vdW  Elec       q    Type
REMARK                         _______ _______ _______ _____ _____    ______ ____
ROOT
ATOM      1  C   UNL     1       0.079  -2.881  -0.022  0.00  0.00    +0.101 C 
ATOM      2  C   UNL     1      -0.997  -3.747   0.577  0.00  0.00    +0.008 A 
ATOM      3  C   UNL     1      -2.178  -3.166   1.007  0.00  0.00    +0.012 A 
ATOM      4  C   UNL     1      -3.175  -3.945   1.559  0.00  0.00    +0.047 A 
ATOM      5  C   UNL     1      -2.996  -5.315   1.685  0.00  0.00    +0.135 A 
ATOM      6  C   UNL     1      -1.816  -5.900   1.256  0.00  0.00    +0.093 A 
ATOM      7  C   UNL     1      -0.813  -5.115   0.701  0.00  0.00    +0.138 A 
ATOM      8  O   UNL     1       0.336  -5.702   0.285  0.00  0.00    -0.441 OA
ATOM      9  C   UNL     1       1.139  -5.065  -0.583  0.00  0.00    +0.199 C 
ATOM     10  C   UNL     1       1.066  -3.729  -0.773  0.00  0.00    +0.098 C 
ENDROOT
BRANCH   1  16
ATOM     11  C   UNL     1       0.793  -0.752   1.094  0.00  0.00    +0.124 A 
ATOM     12  C   UNL     1       1.447  -0.072   2.112  0.00  0.00    +0.046 A 
ATOM     13  C   UNL     1       2.101  -0.778   3.103  0.00  0.00    +0.004 A 
ATOM     14  C   UNL     1       2.104  -2.160   3.082  0.00  0.00    +0.001 A 
ATOM     15  C   UNL     1       1.454  -2.840   2.069  0.00  0.00    +0.008 A 
ATOM     16  C   UNL     1       0.793  -2.139   1.078  0.00  0.00    +0.007 A 
BRANCH  11  18
ATOM     17  C   UNL     1       0.190   1.366   0.199  0.00  0.00    +0.277 C 
ATOM     18  O   UNL     1       0.148  -0.060   0.118  0.00  0.00    -0.495 OA
ENDBRANCH  11  18
ENDBRANCH   1  16
BRANCH   9  19
ATOM     19  N   UNL     1       2.059  -5.791  -1.296  0.00  0.00    -0.328 N 
ATOM     20  H   UNL     1       2.123  -6.751  -1.170  0.00  0.00    +0.145 HD
ATOM     21  H   UNL     1       2.645  -5.345  -1.927  0.00  0.00    +0.145 HD
ENDBRANCH   9  19
BRANCH  10  22
ATOM     22  C   UNL     1       1.951  -3.110  -1.713  0.00  0.00    +0.101 C 
ATOM     23  N   UNL     1       2.653  -2.619  -2.459  0.00  0.00    -0.191 NA
ENDBRANCH  10  22
BRANCH   5  24
ATOM     24  O   UNL     1      -3.978  -6.083   2.228  0.00  0.00    -0.423 OA
BRANCH  24  25
ATOM     25  C   UNL     1      -3.754  -6.631   3.433  0.00  0.00    +0.350 C 
ATOM     26  O   UNL     1      -2.751  -6.354   4.047  0.00  0.00    -0.247 OA
BRANCH  25  27
ATOM     27  C   UNL     1      -4.754  -7.594   4.021  0.00  0.00    +0.349 C 
BRANCH  27  28
ATOM     28  O   UNL     1      -4.295  -8.037   5.299  0.00  0.00    -0.481 OA
BRANCH  28  29
ATOM     29  C   UNL     1      -5.087  -8.915   5.969  0.00  0.00    +0.121 A 
ATOM     30  C   UNL     1      -6.279  -9.346   5.404  0.00  0.00    +0.047 A 
ATOM     31  C   UNL     1      -7.082 -10.239   6.086  0.00  0.00    +0.019 A 
ATOM     32  C   UNL     1      -6.699 -10.704   7.332  0.00  0.00    +0.018 A 
ATOM     33  C   UNL     1      -5.512 -10.275   7.897  0.00  0.00    +0.019 A 
ATOM     34  C   UNL     1      -4.702  -9.386   7.215  0.00  0.00    +0.047 A 
ATOM     35 BR   UNL     1      -7.801 -11.926   8.263  0.00  0.00    -0.050 Br
ENDBRANCH  28  29
ENDBRANCH  27  28
ENDBRANCH  25  27
ENDBRANCH  24  25
ENDBRANCH   5  24
TORSDOF 9
