REMARK  Name = ZINC10964904
REMARK  5 active torsions:
REMARK  status: ('A' for Active; 'I' for Inactive)
REMARK    1  A    between atoms: C_1  and  C_2
REMARK    2  A    between atoms: C_8  and  N_10
REMARK    3  A    between atoms: C_14  and  C_16
REMARK    4  A    between atoms: C_16  and  S_17
REMARK    5  A    between atoms: S_17  and  C_18
REMARK                            x       y       z     vdW  Elec       q    Type
REMARK                         _______ _______ _______ _____ _____    ______ ____
ROOT
ATOM      1  N   UNL     1      -3.133  -3.649   0.012  0.00  0.00    -0.296 N 
ATOM      2  C   UNL     1      -2.904  -2.321   0.017  0.00  0.00    +0.306 C 
ATOM      3  O   UNL     1      -3.839  -1.543   0.030  0.00  0.00    -0.252 OA
ATOM      4  N   UNL     1      -1.640  -1.854   0.008  0.00  0.00    -0.240 N 
ATOM      5  C   UNL     1      -1.412  -0.526   0.013  0.00  0.00    +0.231 C 
ATOM      6  O   UNL     1      -2.344   0.249   0.026  0.00  0.00    -0.274 OA
ATOM      7  H   UNL     1      -2.387  -4.269   0.002  0.00  0.00    +0.151 HD
ATOM      8  H   UNL     1      -0.894  -2.474  -0.003  0.00  0.00    +0.159 HD
ENDROOT
BRANCH   1  15
ATOM      9  C   UNL     1      -3.992  -5.511   2.057  0.00  0.00    +0.009 C 
ATOM     10  C   UNL     1      -4.527  -5.562   0.625  0.00  0.00    +0.006 C 
ATOM     11  C   UNL     1      -5.963  -6.092   0.636  0.00  0.00    +0.005 C 
ATOM     12  C   UNL     1      -6.498  -6.143  -0.796  0.00  0.00    +0.000 C 
ATOM     13  C   UNL     1      -6.478  -4.736  -1.399  0.00  0.00    +0.002 C 
ATOM     14  C   UNL     1      -5.043  -4.207  -1.409  0.00  0.00    +0.022 C 
ATOM     15  C   UNL     1      -4.507  -4.156   0.023  0.00  0.00    +0.077 C 
ENDBRANCH   1  15
BRANCH   5  16
ATOM     16  C   UNL     1       0.002  -0.004   0.002  0.00  0.00    +0.172 C 
BRANCH  16  17
ATOM     17  S   UNL     1      -0.022   1.806   0.012  0.00  0.00    -0.089 S 
BRANCH  17  18
ATOM     18  C   UNL     1       1.708   2.135  -0.003  0.00  0.00    +0.136 A 
ATOM     19  N   UNL     1       2.710   1.284  -0.011  0.00  0.00    -0.233 NA
ATOM     20  C   UNL     1       4.000   1.683  -0.026  0.00  0.00    +0.079 A 
ATOM     21  C   UNL     1       5.162   0.877  -0.040  0.00  0.00    +0.029 A 
ATOM     22  C   UNL     1       6.409   1.447  -0.049  0.00  0.00    +0.002 A 
ATOM     23  C   UNL     1       6.577   2.824  -0.044  0.00  0.00    +0.001 A 
ATOM     24  C   UNL     1       5.462   3.642  -0.029  0.00  0.00    +0.017 A 
ATOM     25  C   UNL     1       4.210   3.080  -0.021  0.00  0.00    +0.040 A 
ATOM     26  S   UNL     1       2.549   3.712  -0.002  0.00  0.00    -0.061 S 
ENDBRANCH  17  18
ENDBRANCH  16  17
ENDBRANCH   5  16
TORSDOF 4
