REMARK  Name = ZINC11858219
REMARK  9 active torsions:
REMARK  status: ('A' for Active; 'I' for Inactive)
REMARK    1  A    between atoms: C_1  and  C_2
REMARK    2  A    between atoms: N_8  and  C_11
REMARK    3  A    between atoms: C_14  and  S_17
REMARK    4  A    between atoms: S_17  and  N_20
REMARK    5  A    between atoms: N_20  and  C_21
REMARK    6  A    between atoms: C_24  and  O_27
REMARK    7  A    between atoms: O_27  and  C_28
REMARK    8  A    between atoms: C_28  and  C_29
REMARK    9  A    between atoms: C_28  and  C_30
REMARK                            x       y       z     vdW  Elec       q    Type
REMARK                         _______ _______ _______ _____ _____    ______ ____
ROOT
ATOM      1  C   UNL     1      -2.173   2.840   0.416  0.00  0.00    +0.059 A 
ATOM      2  C   UNL     1      -3.432   2.537  -0.087  0.00  0.00    +0.027 A 
ATOM      3  C   UNL     1      -4.357   3.543  -0.280  0.00  0.00    +0.030 A 
ATOM      4  C   UNL     1      -4.029   4.853   0.019  0.00  0.00    +0.109 A 
ATOM      5  C   UNL     1      -2.775   5.159   0.515  0.00  0.00    +0.030 A 
ATOM      6  C   UNL     1      -1.847   4.156   0.714  0.00  0.00    +0.027 A 
ENDROOT
BRANCH   1  13
ATOM      7  C   UNL     1       2.118   1.075   1.745  0.00  0.00    +0.019 C 
ATOM      8  C   UNL     1       0.950   0.748   0.812  0.00  0.00    +0.097 C 
ATOM      9  C   UNL     1       0.079  -0.373   1.438  0.00  0.00    +0.201 C 
ATOM     10  S   UNL     1      -1.578   0.205   0.886  0.00  0.00    +0.053 S 
ATOM     11  O   UNL     1      -2.507   0.182   1.961  0.00  0.00    -0.155 OA
ATOM     12  O   UNL     1      -1.906  -0.335  -0.387  0.00  0.00    -0.155 OA
ATOM     13  N   UNL     1      -1.235   1.822   0.618  0.00  0.00    -0.144 N 
ATOM     14  C   UNL     1       0.099   1.967   0.624  0.00  0.00    +0.243 C 
ATOM     15  O   UNL     1       0.604   3.061   0.480  0.00  0.00    -0.273 OA
ENDBRANCH   1  13
BRANCH   4  16
ATOM     16  S   UNL     1      -5.211   6.135  -0.234  0.00  0.00    +0.072 S 
ATOM     17  O   UNL     1      -6.482   5.505  -0.315  0.00  0.00    -0.150 OA
ATOM     18  O   UNL     1      -4.922   7.148   0.719  0.00  0.00    -0.150 OA
BRANCH  16  19
ATOM     19  N   UNL     1      -4.912   6.789  -1.726  0.00  0.00    -0.216 N 
ATOM     20  H   UNL     1      -4.621   7.711  -1.802  0.00  0.00    +0.174 HD
BRANCH  19  21
ATOM     21  C   UNL     1      -5.080   6.012  -2.877  0.00  0.00    +0.048 A 
ATOM     22  C   UNL     1      -3.970   5.546  -3.569  0.00  0.00    +0.028 A 
ATOM     23  C   UNL     1      -4.136   4.774  -4.702  0.00  0.00    +0.047 A 
ATOM     24  C   UNL     1      -5.412   4.473  -5.155  0.00  0.00    +0.121 A 
ATOM     25  C   UNL     1      -6.522   4.943  -4.468  0.00  0.00    +0.047 A 
ATOM     26  C   UNL     1      -6.357   5.710  -3.332  0.00  0.00    +0.028 A 
BRANCH  24  27
ATOM     27  O   UNL     1      -5.575   3.717  -6.274  0.00  0.00    -0.489 OA
BRANCH  27  28
ATOM     28  C   UNL     1      -6.913   3.352  -6.620  0.00  0.00    +0.167 C 
ATOM     29  C   UNL     1      -7.556   4.479  -7.429  0.00  0.00    +0.051 C 
ATOM     30  C   UNL     1      -6.890   2.071  -7.458  0.00  0.00    +0.051 C 
ENDBRANCH  27  28
ENDBRANCH  24  27
ENDBRANCH  19  21
ENDBRANCH  16  19
ENDBRANCH   4  16
TORSDOF 6
