REMARK  Name = ZINC36207764
REMARK  14 active torsions:
REMARK  status: ('A' for Active; 'I' for Inactive)
REMARK    1  A    between atoms: C_1  and  O_2
REMARK    2  A    between atoms: O_2  and  C_3
REMARK    3  A    between atoms: C_3  and  C_4
REMARK    4  A    between atoms: C_4  and  N_5
REMARK    5  A    between atoms: N_5  and  C_6
REMARK    6  A    between atoms: N_5  and  C_25
REMARK    7  A    between atoms: C_6  and  C_7
REMARK    8  A    between atoms: C_13  and  C_18
REMARK    9  A    between atoms: C_25  and  C_26
REMARK   10  A    between atoms: C_26  and  C_28
REMARK   11  A    between atoms: C_26  and  O_36
REMARK   12  A    between atoms: C_28  and  O_29
REMARK   13  A    between atoms: O_29  and  C_30
REMARK   14  A    between atoms: C_30  and  C_31
REMARK                            x       y       z     vdW  Elec       q    Type
REMARK                         _______ _______ _______ _____ _____    ______ ____
ROOT
ATOM      1  C   UNL     1       3.015  -1.910  -0.071  0.00  0.00    -0.003 C 
ENDROOT
BRANCH   1   2
ATOM      2  C   UNL     1       3.800  -2.025  -1.353  0.00  0.00    +0.094 A 
ATOM      3  N   UNL     1       5.119  -1.703  -1.358  0.00  0.00    -0.312 N 
ATOM      4  H   UNL     1       5.539  -1.404  -0.537  0.00  0.00    +0.170 HD
ATOM      5  C   UNL     1       5.856  -1.793  -2.481  0.00  0.00    +0.260 A 
ATOM      6  O   UNL     1       7.040  -1.501  -2.470  0.00  0.00    -0.267 OA
ATOM      7  C   UNL     1       5.229  -2.236  -3.689  0.00  0.00    +0.080 A 
ATOM      8  C   UNL     1       5.805  -2.413  -5.016  0.00  0.00    +0.004 A 
ATOM      9  C   UNL     1       5.006  -2.850  -6.020  0.00  0.00    +0.056 A 
ATOM     10  S   UNL     1       3.421  -3.048  -5.230  0.00  0.00    -0.076 S 
ATOM     11  C   UNL     1       3.862  -2.545  -3.587  0.00  0.00    +0.116 A 
ATOM     12  N   UNL     1       3.201  -2.437  -2.438  0.00  0.00    -0.229 NA
BRANCH   8  13
ATOM     13  C   UNL     1       7.237  -2.122  -5.263  0.00  0.00    -0.016 A 
ATOM     14  C   UNL     1       7.788  -0.913  -4.841  0.00  0.00    +0.010 A 
ATOM     15  C   UNL     1       9.122  -0.647  -5.072  0.00  0.00    +0.020 A 
ATOM     16  C   UNL     1       9.913  -1.578  -5.723  0.00  0.00    +0.041 A 
ATOM     17  C   UNL     1       9.371  -2.780  -6.145  0.00  0.00    +0.020 A 
ATOM     18  C   UNL     1       8.040  -3.059  -5.913  0.00  0.00    +0.010 A 
ATOM     19 CL   UNL     1      11.591  -1.237  -6.012  0.00  0.00    -0.084 Cl
ENDBRANCH   8  13
ENDBRANCH   1   2
BRANCH   1  20
ATOM     20  N   UNL     1       1.664  -2.449  -0.275  0.00  0.00    +0.388 N 
ATOM     21  H   UNL     1       1.241  -2.003  -1.075  0.00  0.00    -0.081 HD
BRANCH  20  22
ATOM     22  C   UNL     1       0.848  -2.188   0.919  0.00  0.00    -0.050 C 
BRANCH  22  23
ATOM     23  C   UNL     1       0.645  -0.680   1.078  0.00  0.00    +0.141 C 
BRANCH  23  25
ATOM     24  C   UNL     1      -0.273   1.237  -0.029  0.00  0.00    +0.193 C 
ATOM     25  O   UNL     1      -0.120  -0.184  -0.022  0.00  0.00    -0.385 OA
ENDBRANCH  23  25
ENDBRANCH  22  23
ENDBRANCH  20  22
BRANCH  20  26
ATOM     26  C   UNL     1       1.745  -3.897  -0.506  0.00  0.00    -0.044 C 
BRANCH  26  27
ATOM     27  C   UNL     1       0.353  -4.438  -0.841  0.00  0.00    +0.124 C 
BRANCH  27  28
ATOM     28  O   UNL     1      -0.089  -3.881  -2.080  0.00  0.00    -0.391 OA
ATOM     29  H   UNL     1       0.485  -4.087  -2.831  0.00  0.00    +0.210 HD
ENDBRANCH  27  28
BRANCH  27  30
ATOM     30  C   UNL     1       0.413  -5.963  -0.959  0.00  0.00    +0.189 C 
BRANCH  30  31
ATOM     31  O   UNL     1      -0.905  -6.477  -1.156  0.00  0.00    -0.370 OA
BRANCH  31  32
ATOM     32  C   UNL     1      -0.961  -7.900  -1.280  0.00  0.00    +0.234 C 
BRANCH  32  33
ATOM     33  C   UNL     1      -2.390  -8.331  -1.483  0.00  0.00    +0.130 A 
ATOM     34  C   UNL     1      -3.008  -8.472  -2.670  0.00  0.00    +0.047 A 
ATOM     35  C   UNL     1      -4.331  -8.889  -2.396  0.00  0.00    +0.041 A 
ATOM     36  C   UNL     1      -4.442  -8.978  -1.058  0.00  0.00    +0.195 A 
ATOM     37  O   UNL     1      -3.262  -8.645  -0.511  0.00  0.00    -0.465 OA
ENDBRANCH  32  33
ENDBRANCH  31  32
ENDBRANCH  30  31
ENDBRANCH  27  30
ENDBRANCH  26  27
ENDBRANCH  20  26
ENDBRANCH   1  20
TORSDOF 13
