REMARK  Name = ZINC43737082
REMARK  9 active torsions:
REMARK  status: ('A' for Active; 'I' for Inactive)
REMARK    1  A    between atoms: C_1  and  C_2
REMARK    2  A    between atoms: C_2  and  C_4
REMARK    3  A    between atoms: C_6  and  C_30
REMARK    4  A    between atoms: C_11  and  C_29
REMARK    5  A    between atoms: C_21  and  C_28
REMARK    6  A    between atoms: C_24  and  O_27
REMARK    7  A    between atoms: C_33  and  N_36
REMARK    8  A    between atoms: N_36  and  C_37
REMARK    9  A    between atoms: N_36  and  C_38
REMARK                            x       y       z     vdW  Elec       q    Type
REMARK                         _______ _______ _______ _____ _____    ______ ____
ROOT
ATOM      1  C   UNL     1      -1.293  -0.775   0.010  0.00  0.00    +0.069 C 
ATOM      2  C   UNL     1      -1.793  -1.010  -1.432  0.00  0.00    +0.030 C 
ATOM      3  C   UNL     1      -2.416  -2.421  -1.455  0.00  0.00    +0.013 C 
ATOM      4  C   UNL     1      -2.270  -2.968  -0.028  0.00  0.00    -0.000 C 
ATOM      5  C   UNL     1      -1.070  -2.211   0.570  0.00  0.00    -0.019 C 
ATOM      6  C   UNL     1       0.237  -2.721  -0.043  0.00  0.00    +0.008 C 
ATOM      7  C   UNL     1       0.358  -4.231   0.146  0.00  0.00    +0.005 C 
ATOM      8  C   UNL     1      -0.790  -4.919  -0.601  0.00  0.00    +0.003 C 
ATOM      9  C   UNL     1      -2.102  -4.470   0.003  0.00  0.00    +0.000 C 
ATOM     10  C   UNL     1      -3.240  -5.130  -0.784  0.00  0.00    +0.031 C 
ATOM     11  C   UNL     1      -3.038  -6.617  -0.796  0.00  0.00    -0.027 C 
ATOM     12  C   UNL     1      -1.870  -7.175  -0.680  0.00  0.00    -0.065 C 
ATOM     13  C   UNL     1      -0.628  -6.426  -0.488  0.00  0.00    -0.008 C 
ATOM     14  C   UNL     1       0.391  -6.923  -1.518  0.00  0.00    +0.014 C 
ATOM     15  C   UNL     1       0.534  -8.442  -1.395  0.00  0.00    +0.032 C 
ATOM     16  C   UNL     1      -0.801  -9.115  -1.719  0.00  0.00    +0.119 C 
ATOM     17  C   UNL     1      -1.787  -8.692  -0.718  0.00  0.00    +0.062 C 
ATOM     18  C   UNL     1      -0.070  -6.742   0.901  0.00  0.00    +0.016 C 
ATOM     19  C   UNL     1      -1.059  -2.248   2.100  0.00  0.00    +0.012 C 
ENDROOT
BRANCH   2  20
ATOM     20  C   UNL     1      -2.832   0.020  -1.793  0.00  0.00    -0.043 A 
ATOM     21  C   UNL     1      -3.994   0.117  -1.051  0.00  0.00    +0.006 A 
ATOM     22  C   UNL     1      -4.948   1.060  -1.379  0.00  0.00    +0.023 A 
ATOM     23  C   UNL     1      -4.739   1.912  -2.456  0.00  0.00    +0.029 A 
ATOM     24  C   UNL     1      -3.569   1.812  -3.199  0.00  0.00    +0.023 A 
ATOM     25  C   UNL     1      -2.617   0.871  -2.862  0.00  0.00    +0.006 A 
BRANCH  23  26
ATOM     26  N   UNL     1      -5.702   2.867  -2.791  0.00  0.00    -0.336 N 
ATOM     27  C   UNL     1      -6.934   2.971  -2.006  0.00  0.00    +0.129 C 
ATOM     28  C   UNL     1      -5.479   3.765  -3.927  0.00  0.00    +0.129 C 
ENDBRANCH  23  26
ENDBRANCH   2  20
BRANCH   1  30
ATOM     29  C   UNL     1       0.427   0.768   1.224  0.00  0.00    +0.086 C 
ATOM     30  C   UNL     1       0.002  -0.004   0.002  0.00  0.00    +0.134 C 
ATOM     31  O   UNL     1       0.699  -0.005  -0.984  0.00  0.00    -0.297 OA
ENDBRANCH   1  30
BRANCH  16  32
ATOM     32  O   UNL     1      -1.232  -8.715  -3.022  0.00  0.00    -0.391 OA
ATOM     33  H   UNL     1      -2.074  -9.105  -3.294  0.00  0.00    +0.210 HD
ENDBRANCH  16  32
TORSDOF 4
