REMARK  Name = ZINC36346187
REMARK  18 active torsions:
REMARK  status: ('A' for Active; 'I' for Inactive)
REMARK    1  A    between atoms: C_1  and  C_2
REMARK    2  A    between atoms: C_2  and  C_3
REMARK    3  A    between atoms: C_3  and  C_5
REMARK    4  A    between atoms: C_3  and  N_6
REMARK    5  A    between atoms: N_6  and  C_7
REMARK    6  A    between atoms: N_6  and  C_28
REMARK    7  A    between atoms: C_7  and  C_8
REMARK    8  A    between atoms: C_9  and  C_27
REMARK    9  A    between atoms: N_11  and  C_21
REMARK   10  A    between atoms: C_12  and  O_13
REMARK   11  A    between atoms: O_13  and  C_14
REMARK   12  A    between atoms: C_17  and  C_20
REMARK   13  A    between atoms: C_28  and  C_29
REMARK   14  A    between atoms: C_29  and  C_31
REMARK   15  A    between atoms: C_29  and  O_36
REMARK   16  A    between atoms: C_31  and  O_32
REMARK   17  A    between atoms: O_32  and  C_33
REMARK   18  A    between atoms: C_33  and  C_34
REMARK                            x       y       z     vdW  Elec       q    Type
REMARK                         _______ _______ _______ _____ _____    ______ ____
ROOT
ATOM      1  C   UNL     1      -3.666  -1.476   1.961  0.00  0.00    +0.021 A 
ATOM      2  C   UNL     1      -3.704  -2.411   0.922  0.00  0.00    +0.065 A 
ATOM      3  N   UNL     1      -3.741  -3.610   1.444  0.00  0.00    -0.168 NA
ATOM      4  N   UNL     1      -3.729  -3.484   2.839  0.00  0.00    -0.200 N 
ATOM      5  C   UNL     1      -3.678  -2.158   3.137  0.00  0.00    +0.225 A 
ATOM      6  C   UNL     1      -3.702  -2.091  -0.551  0.00  0.00    +0.068 C 
ENDROOT
BRANCH   4   7
ATOM      7  C   UNL     1      -3.760  -4.538   3.764  0.00  0.00    +0.069 A 
ATOM      8  C   UNL     1      -2.967  -4.487   4.902  0.00  0.00    +0.028 A 
ATOM      9  C   UNL     1      -2.999  -5.527   5.811  0.00  0.00    +0.002 A 
ATOM     10  C   UNL     1      -3.820  -6.617   5.588  0.00  0.00    +0.000 A 
ATOM     11  C   UNL     1      -4.611  -6.670   4.455  0.00  0.00    +0.002 A 
ATOM     12  C   UNL     1      -4.588  -5.631   3.545  0.00  0.00    +0.028 A 
ENDBRANCH   4   7
BRANCH   1  13
ATOM     13  C   UNL     1      -3.616   0.022   1.805  0.00  0.00    -0.035 C 
BRANCH  13  14
ATOM     14  N   UNL     1      -2.341   0.527   2.333  0.00  0.00    +0.386 N 
ATOM     15  H   UNL     1      -2.120   0.047   3.193  0.00  0.00    -0.081 HD
BRANCH  14  16
ATOM     16  C   UNL     1      -1.276   0.288   1.351  0.00  0.00    -0.071 C 
ATOM     17  C   UNL     1      -1.711   0.825  -0.015  0.00  0.00    -0.013 C 
BRANCH  16  19
ATOM     18  C   UNL     1      -0.564  -1.750   2.609  0.00  0.00    +0.002 C 
ATOM     19  C   UNL     1      -1.006  -1.214   1.245  0.00  0.00    -0.019 C 
ENDBRANCH  16  19
ENDBRANCH  14  16
BRANCH  14  20
ATOM     20  C   UNL     1      -2.455   1.968   2.592  0.00  0.00    -0.044 C 
BRANCH  20  21
ATOM     21  C   UNL     1      -1.177   2.467   3.271  0.00  0.00    +0.124 C 
BRANCH  21  22
ATOM     22  O   UNL     1      -1.030   1.825   4.539  0.00  0.00    -0.391 OA
ATOM     23  H   UNL     1      -1.761   1.989   5.150  0.00  0.00    +0.210 HD
ENDBRANCH  21  22
BRANCH  21  24
ATOM     24  C   UNL     1      -1.265   3.981   3.473  0.00  0.00    +0.189 C 
BRANCH  24  25
ATOM     25  O   UNL     1      -0.027   4.463   3.999  0.00  0.00    -0.373 OA
BRANCH  25  26
ATOM     26  C   UNL     1      -0.002   5.874   4.226  0.00  0.00    +0.186 C 
BRANCH  26  27
ATOM     27  C   UNL     1       1.343   6.270   4.779  0.00  0.00    -0.007 C 
ATOM     28  C   UNL     1       1.961   7.323   4.304  0.00  0.00    +0.006 C 
ENDBRANCH  26  27
ENDBRANCH  25  26
ENDBRANCH  24  25
ENDBRANCH  21  24
ENDBRANCH  20  21
ENDBRANCH  14  20
ENDBRANCH  13  14
ENDBRANCH   1  13
BRANCH   5  29
ATOM     29  O   UNL     1      -3.646  -1.615   4.380  0.00  0.00    -0.438 OA
BRANCH  29  30
ATOM     30  C   UNL     1      -4.831  -1.370   5.000  0.00  0.00    +0.130 A 
ATOM     31  C   UNL     1      -6.020  -1.775   4.410  0.00  0.00    +0.046 A 
ATOM     32  C   UNL     1      -7.223  -1.524   5.042  0.00  0.00    +0.007 A 
ATOM     33  C   UNL     1      -7.242  -0.871   6.260  0.00  0.00    -0.050 A 
ATOM     34  C   UNL     1      -6.059  -0.466   6.850  0.00  0.00    +0.007 A 
ATOM     35  C   UNL     1      -4.853  -0.720   6.225  0.00  0.00    +0.046 A 
ATOM     36  C   UNL     1      -8.556  -0.598   6.946  0.00  0.00    +0.044 C 
ENDBRANCH  29  30
ENDBRANCH   5  29
TORSDOF 14
