REMARK  Name = ZINC39688726
REMARK  8 active torsions:
REMARK  status: ('A' for Active; 'I' for Inactive)
REMARK    1  A    between atoms: C_1  and  C_2
REMARK    2  A    between atoms: C_2  and  C_4
REMARK    3  A    between atoms: C_2  and  N_12
REMARK    4  A    between atoms: C_4  and  C_5
REMARK    5  A    between atoms: C_13  and  C_15
REMARK    6  A    between atoms: C_26  and  C_28
REMARK    7  A    between atoms: C_31  and  O_35
REMARK    8  A    between atoms: O_35  and  C_36
REMARK                            x       y       z     vdW  Elec       q    Type
REMARK                         _______ _______ _______ _____ _____    ______ ____
ROOT
ATOM      1  C   UNL     1       0.363  -1.560   3.226  0.00  0.00    +0.100 C 
ATOM      2  C   UNL     1       1.069  -2.934   3.216  0.00  0.00    +0.121 C 
ATOM      3  N   UNL     1       0.897  -3.453   4.593  0.00  0.00    -0.296 N 
ATOM      4  C   UNL     1      -0.483  -3.061   4.966  0.00  0.00    +0.115 C 
ATOM      5  C   UNL     1      -0.655  -1.647   4.376  0.00  0.00    -0.004 C 
ATOM      6  C   UNL     1      -0.348  -0.592   5.434  0.00  0.00    -0.010 C 
ATOM      7  C   UNL     1      -1.407  -0.662   6.539  0.00  0.00    -0.082 C 
ATOM      8  N   UNL     1      -2.736  -0.431   5.960  0.00  0.00    +0.379 N 
ATOM      9  C   UNL     1      -3.062  -1.502   5.010  0.00  0.00    -0.082 C 
ATOM     10  C   UNL     1      -2.073  -1.468   3.841  0.00  0.00    -0.010 C 
ATOM     11  C   UNL     1       1.794  -4.130   5.338  0.00  0.00    +0.247 C 
ATOM     12  O   UNL     1       2.935  -4.266   4.941  0.00  0.00    -0.270 OA
ATOM     13  H   UNL     1      -3.425  -0.417   6.698  0.00  0.00    -0.086 HD
ATOM     14  H   UNL     1      -2.743   0.456   5.480  0.00  0.00    -0.086 HD
ENDROOT
BRANCH  11  15
ATOM     15  C   UNL     1       1.390  -4.706   6.636  0.00  0.00    +0.040 A 
ATOM     16  C   UNL     1       0.040  -4.945   6.906  0.00  0.00    +0.036 A 
ATOM     17  C   UNL     1      -0.333  -5.482   8.119  0.00  0.00    +0.085 A 
ATOM     18  C   UNL     1       0.631  -5.786   9.073  0.00  0.00    +0.157 A 
ATOM     19  C   UNL     1       1.976  -5.550   8.808  0.00  0.00    +0.085 A 
ATOM     20  C   UNL     1       2.357  -5.018   7.595  0.00  0.00    +0.036 A 
ATOM     21 CL   UNL     1       3.175  -5.930  10.003  0.00  0.00    -0.080 Cl
ATOM     22 CL   UNL     1      -2.010  -5.780   8.456  0.00  0.00    -0.080 Cl
BRANCH  18  23
ATOM     23  O   UNL     1       0.260  -6.315  10.268  0.00  0.00    -0.492 OA
ATOM     24  C   UNL     1       0.193  -7.740  10.353  0.00  0.00    +0.277 C 
ENDBRANCH  18  23
ENDBRANCH  11  15
BRANCH   1  26
ATOM     25  N   UNL     1      -0.492  -0.068   1.448  0.00  0.00    -0.312 N 
ATOM     26  C   UNL     1      -0.344  -1.323   1.916  0.00  0.00    +0.218 C 
ATOM     27  O   UNL     1      -0.779  -2.262   1.284  0.00  0.00    -0.275 OA
ATOM     28  H   UNL     1      -0.144   0.683   1.954  0.00  0.00    +0.149 HD
BRANCH  25  30
ATOM     29  C   UNL     1      -2.689   0.231   0.415  0.00  0.00    +0.028 C 
ATOM     30  C   UNL     1      -1.179   0.162   0.175  0.00  0.00    +0.074 C 
BRANCH  30  31
ATOM     31  C   UNL     1      -0.700   1.482  -0.432  0.00  0.00    +0.057 C 
BRANCH  31  32
ATOM     32  C   UNL     1       0.762   1.372  -0.782  0.00  0.00    -0.045 A 
ATOM     33  C   UNL     1       1.723   1.713   0.151  0.00  0.00    +0.006 A 
ATOM     34  C   UNL     1       3.064   1.612  -0.169  0.00  0.00    +0.038 A 
ATOM     35  C   UNL     1       3.444   1.169  -1.424  0.00  0.00    +0.123 A 
ATOM     36  C   UNL     1       2.481   0.828  -2.358  0.00  0.00    +0.038 A 
ATOM     37  C   UNL     1       1.141   0.925  -2.035  0.00  0.00    +0.006 A 
ATOM     38  F   UNL     1       4.755   1.071  -1.738  0.00  0.00    -0.205 F 
ENDBRANCH  31  32
ENDBRANCH  30  31
ENDBRANCH  25  30
ENDBRANCH   1  26
TORSDOF 6
