REMARK  Name = ZINC39682246
REMARK  7 active torsions:
REMARK  status: ('A' for Active; 'I' for Inactive)
REMARK    1  A    between atoms: C_1  and  C_2
REMARK    2  A    between atoms: C_7  and  C_8
REMARK    3  A    between atoms: C_12  and  C_21
REMARK    4  A    between atoms: N_23  and  C_24
REMARK    5  A    between atoms: C_24  and  C_26
REMARK    6  A    between atoms: C_24  and  C_30
REMARK    7  A    between atoms: C_26  and  C_27
REMARK                            x       y       z     vdW  Elec       q    Type
REMARK                         _______ _______ _______ _____ _____    ______ ____
ROOT
ATOM      1  C   UNL     1      -0.266  -0.762   2.377  0.00  0.00    +0.247 C 
ATOM      2  O   UNL     1      -0.593   0.399   2.226  0.00  0.00    -0.270 OA
ATOM      3  N   UNL     1       0.035  -1.223   3.607  0.00  0.00    -0.296 N 
ATOM      4  C   UNL     1       0.553  -2.562   3.973  0.00  0.00    +0.121 C 
ATOM      5  C   UNL     1       1.591  -2.289   5.085  0.00  0.00    +0.100 C 
ATOM      6  C   UNL     1       1.172  -0.939   5.689  0.00  0.00    -0.004 C 
ATOM      7  C   UNL     1      -0.070  -0.503   4.898  0.00  0.00    +0.115 C 
ATOM      8  C   UNL     1       0.827  -1.105   7.166  0.00  0.00    -0.010 C 
ATOM      9  C   UNL     1       0.470   0.260   7.759  0.00  0.00    -0.082 C 
ATOM     10  N   UNL     1       1.605   1.177   7.602  0.00  0.00    +0.379 N 
ATOM     11  C   UNL     1       1.871   1.405   6.176  0.00  0.00    -0.082 C 
ATOM     12  C   UNL     1       2.288   0.087   5.516  0.00  0.00    -0.010 C 
ATOM     13  H   UNL     1       1.390   2.057   8.047  0.00  0.00    -0.086 HD
ATOM     14  H   UNL     1       2.423   0.775   8.035  0.00  0.00    -0.086 HD
ENDROOT
BRANCH   1  21
ATOM     15  C   UNL     1      -2.521  -0.940   0.572  0.00  0.00    +0.044 C 
ATOM     16  C   UNL     1      -1.282  -1.763   0.334  0.00  0.00    -0.038 A 
ATOM     17  C   UNL     1      -1.211  -2.607  -0.756  0.00  0.00    +0.004 A 
ATOM     18  C   UNL     1      -0.074  -3.363  -0.976  0.00  0.00    +0.000 A 
ATOM     19  C   UNL     1       1.000  -3.279  -0.107  0.00  0.00    +0.001 A 
ATOM     20  C   UNL     1       0.942  -2.439   0.986  0.00  0.00    +0.013 A 
ATOM     21  C   UNL     1      -0.200  -1.669   1.211  0.00  0.00    +0.040 A 
ENDBRANCH   1  21
BRANCH   5  22
ATOM     22  C   UNL     1       2.976  -2.196   4.498  0.00  0.00    +0.219 C 
ATOM     23  O   UNL     1       3.134  -1.745   3.383  0.00  0.00    -0.275 OA
ATOM     24  N   UNL     1       4.040  -2.615   5.212  0.00  0.00    -0.308 N 
ATOM     25  H   UNL     1       3.909  -3.043   6.072  0.00  0.00    +0.149 HD
BRANCH  24  26
ATOM     26  C   UNL     1       5.395  -2.423   4.688  0.00  0.00    +0.114 C 
BRANCH  26  27
ATOM     27  C   UNL     1       5.689  -3.481   3.656  0.00  0.00    -0.027 A 
ATOM     28  C   UNL     1       5.260  -4.780   3.856  0.00  0.00    +0.005 A 
ATOM     29  C   UNL     1       5.530  -5.751   2.910  0.00  0.00    +0.000 A 
ATOM     30  C   UNL     1       6.228  -5.422   1.762  0.00  0.00    +0.000 A 
ATOM     31  C   UNL     1       6.655  -4.123   1.562  0.00  0.00    +0.000 A 
ATOM     32  C   UNL     1       6.382  -3.152   2.506  0.00  0.00    +0.005 A 
ENDBRANCH  26  27
BRANCH  26  33
ATOM     33  C   UNL     1       6.404  -2.533   5.832  0.00  0.00    +0.152 C 
BRANCH  33  34
ATOM     34  C   UNL     1       6.207  -1.384   6.788  0.00  0.00    +0.358 C 
ATOM     35  O   UNL     1       5.303  -0.586   6.604  0.00  0.00    -0.246 OA
ATOM     36  O   UNL     1       6.950  -1.253   7.745  0.00  0.00    -0.246 OA
ENDBRANCH  33  34
ENDBRANCH  26  33
ENDBRANCH  24  26
ENDBRANCH   5  22
TORSDOF 6
