REMARK  Name = ZINC40348157
REMARK  9 active torsions:
REMARK  status: ('A' for Active; 'I' for Inactive)
REMARK    1  A    between atoms: C_1  and  C_2
REMARK    2  A    between atoms: C_2  and  C_4
REMARK    3  A    between atoms: C_2  and  N_18
REMARK    4  A    between atoms: C_4  and  N_5
REMARK    5  A    between atoms: N_5  and  S_6
REMARK    6  A    between atoms: S_6  and  C_9
REMARK    7  A    between atoms: C_10  and  N_17
REMARK    8  A    between atoms: N_18  and  C_19
REMARK    9  A    between atoms: N_18  and  C_20
REMARK                            x       y       z     vdW  Elec       q    Type
REMARK                         _______ _______ _______ _____ _____    ______ ____
ROOT
ATOM      1  S   UNL     1       2.122  -2.595   3.226  0.00  0.00    +0.062 S 
ATOM      2  O   UNL     1       1.651  -3.926   3.386  0.00  0.00    -0.153 OA
ATOM      3  O   UNL     1       3.506  -2.281   3.148  0.00  0.00    -0.153 OA
ENDROOT
BRANCH   1   4
ATOM      4  C   UNL     1       1.470  -1.664   4.572  0.00  0.00    +0.144 A 
ATOM      5  C   UNL     1       2.035  -0.441   4.910  0.00  0.00    +0.054 A 
ATOM      6  C   UNL     1       1.518   0.291   5.971  0.00  0.00    +0.044 A 
ATOM      7  C   UNL     1       0.442  -0.199   6.687  0.00  0.00    +0.044 A 
ATOM      8  C   UNL     1      -0.119  -1.417   6.348  0.00  0.00    +0.042 A 
ATOM      9  C   UNL     1       0.391  -2.146   5.288  0.00  0.00    +0.070 A 
ATOM     10 CL   UNL     1      -0.321  -3.671   4.861  0.00  0.00    -0.081 Cl
ATOM     11 CL   UNL     1      -0.205   0.715   8.014  0.00  0.00    -0.083 Cl
BRANCH   5  12
ATOM     12  N   UNL     1       3.123   0.051   4.185  0.00  0.00    -0.356 N 
ATOM     13  H   UNL     1       3.367  -0.357   3.339  0.00  0.00    +0.142 HD
ATOM     14  H   UNL     1       3.634   0.802   4.526  0.00  0.00    +0.142 HD
ENDBRANCH   5  12
ENDBRANCH   1   4
BRANCH   1  15
ATOM     15  N   UNL     1       1.426  -2.010   1.842  0.00  0.00    -0.191 NA
ATOM     16  H   UNL     1       0.839  -2.577   1.318  0.00  0.00    +0.148 HD
BRANCH  15  17
ATOM     17  C   UNL     1       1.697  -0.637   1.410  0.00  0.00    +0.090 C 
BRANCH  17  19
ATOM     18  C   UNL     1       1.554   0.966  -0.501  0.00  0.00    -0.012 C 
ATOM     19  C   UNL     1       1.288  -0.473  -0.056  0.00  0.00    -0.057 C 
BRANCH  19  20
ATOM     20  N   UNL     1      -0.142  -0.775  -0.202  0.00  0.00    +0.379 N 
ATOM     21  C   UNL     1      -0.929   0.201   0.564  0.00  0.00    -0.096 C 
ATOM     22  C   UNL     1      -0.515  -0.700  -1.621  0.00  0.00    -0.096 C 
ATOM     23  H   UNL     1      -0.327  -1.704   0.146  0.00  0.00    -0.082 HD
ENDBRANCH  19  20
ENDBRANCH  17  19
ENDBRANCH  15  17
ENDBRANCH   1  15
TORSDOF 6
