REMARK  Name = ZINC01439885
REMARK  7 active torsions:
REMARK  status: ('A' for Active; 'I' for Inactive)
REMARK    1  A    between atoms: C_1  and  C_2
REMARK    2  A    between atoms: C_2  and  O_3
REMARK    3  A    between atoms: O_3  and  C_4
REMARK    4  A    between atoms: C_7  and  C_12
REMARK    5  A    between atoms: C_9  and  O_10
REMARK    6  A    between atoms: O_10  and  C_11
REMARK    7  A    between atoms: C_17  and  C_27
REMARK                            x       y       z     vdW  Elec       q    Type
REMARK                         _______ _______ _______ _____ _____    ______ ____
ROOT
ATOM      1  C   UNL     1      -2.567   1.021   0.209  0.00  0.00    +0.032 C 
ATOM      2  C   UNL     1      -2.636   0.058   1.393  0.00  0.00    +0.059 C 
ATOM      3  C   UNL     1      -3.915  -0.759   1.322  0.00  0.00    +0.017 C 
ATOM      4  C   UNL     1      -4.452  -1.084   0.134  0.00  0.00    +0.036 C 
ATOM      5  C   UNL     1      -5.714  -1.887  -0.078  0.00  0.00    +0.137 C 
ATOM      6  N   UNL     1      -6.218  -2.540   1.111  0.00  0.00    -0.331 N 
ATOM      7  C   UNL     1      -6.675  -1.798   2.200  0.00  0.00    +0.049 A 
ATOM      8  C   UNL     1      -8.014  -1.786   2.556  0.00  0.00    +0.025 A 
ATOM      9  C   UNL     1      -8.440  -0.949   3.572  0.00  0.00    +0.002 A 
ATOM     10  C   UNL     1      -7.539  -0.130   4.229  0.00  0.00    +0.002 A 
ATOM     11  C   UNL     1      -6.197  -0.156   3.890  0.00  0.00    +0.025 A 
ATOM     12  C   UNL     1      -5.767  -1.006   2.886  0.00  0.00    +0.052 A 
ATOM     13  N   UNL     1      -4.428  -1.117   2.527  0.00  0.00    -0.316 N 
ATOM     14  C   UNL     1      -3.835  -0.660  -1.066  0.00  0.00    +0.163 C 
ATOM     15  O   UNL     1      -4.326  -0.992  -2.127  0.00  0.00    -0.292 OA
ATOM     16  C   UNL     1      -2.596   0.185  -1.075  0.00  0.00    +0.088 C 
ATOM     17  H   UNL     1      -6.238  -3.509   1.152  0.00  0.00    +0.147 HD
ATOM     18  H   UNL     1      -3.815  -1.476   3.187  0.00  0.00    +0.152 HD
ENDROOT
BRANCH   5  19
ATOM     19  C   UNL     1      -6.783  -0.965  -0.606  0.00  0.00    -0.001 A 
ATOM     20  C   UNL     1      -6.637   0.405  -0.479  0.00  0.00    +0.056 A 
ATOM     21  C   UNL     1      -7.616   1.254  -0.968  0.00  0.00    +0.167 A 
ATOM     22  C   UNL     1      -8.751   0.726  -1.577  0.00  0.00    +0.168 A 
ATOM     23  C   UNL     1      -8.894  -0.647  -1.697  0.00  0.00    +0.070 A 
ATOM     24  C   UNL     1      -7.910  -1.490  -1.211  0.00  0.00    +0.050 A 
ATOM     25 CL   UNL     1      -8.091  -3.210  -1.362  0.00  0.00    -0.083 Cl
ATOM     26  O   UNL     1      -9.558   1.757  -1.964  0.00  0.00    -0.453 OA
ATOM     27  C   UNL     1      -8.720   2.927  -1.953  0.00  0.00    +0.466 C 
ATOM     28  O   UNL     1      -7.712   2.616  -0.972  0.00  0.00    -0.453 OA
ENDBRANCH   5  19
BRANCH   1  32
ATOM     29  C   UNL     1       1.066   3.272   0.381  0.00  0.00    +0.162 A 
ATOM     30  C   UNL     1       1.107   1.888   0.327  0.00  0.00    +0.050 A 
ATOM     31  C   UNL     1      -0.069   1.163   0.276  0.00  0.00    +0.008 A 
ATOM     32  C   UNL     1      -1.288   1.816   0.272  0.00  0.00    -0.040 A 
ATOM     33  C   UNL     1      -1.336   3.197   0.331  0.00  0.00    +0.053 A 
ATOM     34  C   UNL     1      -0.161   3.929   0.383  0.00  0.00    +0.162 A 
BRANCH  34  35
ATOM     35  O   UNL     1      -0.207   5.287   0.435  0.00  0.00    -0.491 OA
ATOM     36  C   UNL     1      -1.501   5.894   0.434  0.00  0.00    +0.277 C 
ENDBRANCH  34  35
BRANCH  29  37
ATOM     37  O   UNL     1       2.221   3.987   0.430  0.00  0.00    -0.489 OA
BRANCH  37  39
ATOM     38  C   UNL     1       4.627   4.213   0.485  0.00  0.00    +0.048 C 
ATOM     39  C   UNL     1       3.443   3.246   0.424  0.00  0.00    +0.226 C 
ENDBRANCH  37  39
ENDBRANCH  29  37
ENDBRANCH   1  32
TORSDOF 5
