REMARK  Name = ZINC08766698
REMARK  11 active torsions:
REMARK  status: ('A' for Active; 'I' for Inactive)
REMARK    1  A    between atoms: C_1  and  C_2
REMARK    2  A    between atoms: C_2  and  C_3
REMARK    3  A    between atoms: C_10  and  C_12
REMARK    4  A    between atoms: C_15  and  S_18
REMARK    5  A    between atoms: N_16  and  C_17
REMARK    6  A    between atoms: S_18  and  C_19
REMARK    7  A    between atoms: C_19  and  C_20
REMARK    8  A    between atoms: N_22  and  N_23
REMARK    9  A    between atoms: C_26  and  C_30
REMARK   10  A    between atoms: C_26  and  C_31
REMARK   11  A    between atoms: C_31  and  C_32
REMARK                            x       y       z     vdW  Elec       q    Type
REMARK                         _______ _______ _______ _____ _____    ______ ____
ROOT
ATOM      1  C   UNL     1      -8.941  -1.972   7.202  0.00  0.00    +0.171 A 
ATOM      2  N   UNL     1      -8.488  -2.714   6.214  0.00  0.00    -0.128 NA
ATOM      3  N   UNL     1      -7.462  -2.155   5.681  0.00  0.00    -0.122 NA
ATOM      4  C   UNL     1      -7.194  -1.023   6.292  0.00  0.00    +0.192 A 
ATOM      5  N   UNL     1      -8.121  -0.869   7.285  0.00  0.00    -0.305 N 
ATOM      6  C   UNL     1      -8.223   0.240   8.236  0.00  0.00    +0.153 C 
ENDROOT
BRANCH   1  13
ATOM      7  C   UNL     1     -14.008  -4.410   9.946  0.00  0.00    -0.007 C 
ATOM      8  C   UNL     1     -13.792  -3.534  11.183  0.00  0.00    +0.009 C 
ATOM      9  C   UNL     1     -13.289  -2.156  10.730  0.00  0.00    +0.043 C 
ATOM     10  C   UNL     1     -12.182  -2.360   9.746  0.00  0.00    -0.006 A 
ATOM     11  C   UNL     1     -11.855  -3.511   9.092  0.00  0.00    -0.036 A 
ATOM     12  C   UNL     1     -10.777  -3.448   8.218  0.00  0.00    +0.023 A 
ATOM     13  C   UNL     1     -10.100  -2.269   8.059  0.00  0.00    +0.057 A 
ATOM     14  S   UNL     1     -10.995  -1.182   9.159  0.00  0.00    -0.090 S 
ATOM     15  C   UNL     1     -12.660  -4.786   9.330  0.00  0.00    +0.039 C 
BRANCH   7  17
ATOM     16  C   UNL     1     -15.093  -6.494   9.097  0.00  0.00    +0.004 C 
ATOM     17  C   UNL     1     -14.755  -5.683  10.349  0.00  0.00    +0.000 C 
ENDBRANCH   7  17
ENDBRANCH   1  13
BRANCH   4  18
ATOM     18  S   UNL     1      -5.880   0.086   5.907  0.00  0.00    -0.077 S 
BRANCH  18  19
ATOM     19  C   UNL     1      -5.118  -0.796   4.523  0.00  0.00    +0.174 C 
BRANCH  19  20
ATOM     20  C   UNL     1      -3.936  -0.011   4.016  0.00  0.00    +0.240 C 
ATOM     21  O   UNL     1      -3.638   1.042   4.539  0.00  0.00    -0.273 OA
ATOM     22  N   UNL     1      -3.211  -0.478   2.981  0.00  0.00    -0.223 N 
ATOM     23  H   UNL     1      -3.449  -1.320   2.562  0.00  0.00    +0.174 HD
BRANCH  22  24
ATOM     24  N   UNL     1      -2.112   0.252   2.509  0.00  0.00    -0.137 N 
ATOM     25  C   UNL     1      -2.112   0.968   1.368  0.00  0.00    +0.263 C 
ATOM     26  O   UNL     1      -3.029   1.097   0.585  0.00  0.00    -0.271 OA
ATOM     27  C   UNL     1      -0.729   1.579   1.267  0.00  0.00    +0.111 C 
ATOM     28  N   UNL     1      -0.045   1.091   2.477  0.00  0.00    -0.284 N 
ATOM     29  C   UNL     1      -0.933   0.325   3.137  0.00  0.00    +0.326 C 
ATOM     30  O   UNL     1      -0.690  -0.237   4.187  0.00  0.00    -0.251 OA
ATOM     31  C   UNL     1      -0.013   1.086   0.008  0.00  0.00    +0.041 C 
ATOM     32  H   UNL     1       0.866   1.284   2.746  0.00  0.00    +0.151 HD
BRANCH  27  33
ATOM     33  C   UNL     1      -0.810   3.107   1.274  0.00  0.00    +0.032 C 
ATOM     34  C   UNL     1       0.603   3.693   1.227  0.00  0.00    +0.006 C 
ENDBRANCH  27  33
ENDBRANCH  22  24
ENDBRANCH  19  20
ENDBRANCH  18  19
ENDBRANCH   4  18
TORSDOF 7
