REMARK  Name = ZINC38679547
REMARK  8 active torsions:
REMARK  status: ('A' for Active; 'I' for Inactive)
REMARK    1  A    between atoms: C_4  and  O_7
REMARK    2  A    between atoms: O_7  and  C_8
REMARK    3  A    between atoms: C_8  and  C_9
REMARK    4  A    between atoms: C_9  and  O_11
REMARK    5  A    between atoms: O_11  and  C_12
REMARK    6  A    between atoms: C_19  and  N_33
REMARK    7  A    between atoms: C_20  and  C_31
REMARK    8  A    between atoms: C_21  and  C_23
REMARK                            x       y       z     vdW  Elec       q    Type
REMARK                         _______ _______ _______ _____ _____    ______ ____
ROOT
ATOM      1  C   UNL     1       6.370  -4.492  -0.120  0.00  0.00    +0.135 A 
ATOM      2  C   UNL     1       7.492  -3.676  -0.084  0.00  0.00    +0.047 A 
ATOM      3  C   UNL     1       8.754  -4.235  -0.135  0.00  0.00    +0.012 A 
ATOM      4  C   UNL     1       8.906  -5.607  -0.221  0.00  0.00    +0.008 A 
ATOM      5  C   UNL     1       7.789  -6.427  -0.257  0.00  0.00    +0.138 A 
ATOM      6  C   UNL     1       6.519  -5.867  -0.200  0.00  0.00    +0.093 A 
ATOM      7  O   UNL     1       7.917  -7.774  -0.342  0.00  0.00    -0.441 OA
ATOM      8  C   UNL     1       9.080  -8.359  -0.010  0.00  0.00    +0.199 C 
ATOM      9  C   UNL     1      10.242  -7.665   0.040  0.00  0.00    +0.098 C 
ATOM     10  C   UNL     1      10.290  -6.197  -0.276  0.00  0.00    +0.101 C 
ENDROOT
BRANCH  10  11
ATOM     11  C   UNL     1      10.861  -6.002  -1.657  0.00  0.00    +0.002 A 
ATOM     12  C   UNL     1      10.217  -6.542  -2.755  0.00  0.00    +0.046 A 
ATOM     13  C   UNL     1      10.742  -6.362  -4.023  0.00  0.00    +0.020 A 
ATOM     14  C   UNL     1      11.911  -5.643  -4.191  0.00  0.00    +0.003 A 
ATOM     15  C   UNL     1      12.555  -5.103  -3.094  0.00  0.00    +0.020 A 
ATOM     16  C   UNL     1      12.027  -5.277  -1.827  0.00  0.00    +0.046 A 
ATOM     17 CL   UNL     1      12.832  -4.591  -0.450  0.00  0.00    -0.083 Cl
ATOM     18 CL   UNL     1       8.751  -7.446  -2.543  0.00  0.00    -0.083 Cl
ENDBRANCH  10  11
BRANCH   8  19
ATOM     19  N   UNL     1       9.091  -9.699   0.287  0.00  0.00    -0.328 N 
ATOM     20  H   UNL     1       8.267 -10.209   0.256  0.00  0.00    +0.145 HD
ATOM     21  H   UNL     1       9.923 -10.135   0.528  0.00  0.00    +0.145 HD
ENDBRANCH   8  19
BRANCH   9  22
ATOM     22  C   UNL     1      11.450  -8.345   0.401  0.00  0.00    +0.101 C 
ATOM     23  N   UNL     1      12.408  -8.884   0.688  0.00  0.00    -0.191 NA
ENDBRANCH   9  22
BRANCH   1  24
ATOM     24  O   UNL     1       5.127  -3.944  -0.070  0.00  0.00    -0.423 OA
BRANCH  24  25
ATOM     25  C   UNL     1       4.643  -3.379  -1.188  0.00  0.00    +0.350 C 
ATOM     26  O   UNL     1       5.340  -3.289  -2.171  0.00  0.00    -0.247 OA
BRANCH  25  27
ATOM     27  C   UNL     1       3.229  -2.857  -1.216  0.00  0.00    +0.349 C 
BRANCH  27  28
ATOM     28  O   UNL     1       2.951  -2.307  -2.505  0.00  0.00    -0.481 OA
BRANCH  28  32
ATOM     29  C   UNL     1      -0.818  -0.737  -3.097  0.00  0.00    +0.000 A 
ATOM     30  C   UNL     1       0.108  -0.714  -4.123  0.00  0.00    +0.004 A 
ATOM     31  C   UNL     1       1.371  -1.239  -3.928  0.00  0.00    +0.045 A 
ATOM     32  C   UNL     1       1.709  -1.789  -2.700  0.00  0.00    +0.121 A 
ATOM     33  C   UNL     1       0.778  -1.811  -1.672  0.00  0.00    +0.045 A 
ATOM     34  C   UNL     1      -0.483  -1.285  -1.872  0.00  0.00    +0.004 A 
ENDBRANCH  28  32
ENDBRANCH  27  28
ENDBRANCH  25  27
ENDBRANCH  24  25
ENDBRANCH   1  24
TORSDOF 8
