REMARK  Name = ZINC13500083
REMARK  12 active torsions:
REMARK  status: ('A' for Active; 'I' for Inactive)
REMARK    1  A    between atoms: C_1  and  C_2
REMARK    2  A    between atoms: C_2  and  C_3
REMARK    3  A    between atoms: C_3  and  C_4
REMARK    4  A    between atoms: C_4  and  C_6
REMARK    5  A    between atoms: C_4  and  N_75
REMARK    6  A    between atoms: N_10  and  C_11
REMARK    7  A    between atoms: C_11  and  C_12
REMARK    8  A    between atoms: C_18  and  C_19
REMARK    9  A    between atoms: C_18  and  N_75
REMARK   10  A    between atoms: C_23  and  C_32
REMARK   11  A    between atoms: C_25  and  C_31
REMARK   12  A    between atoms: C_33  and  N_75
REMARK                            x       y       z     vdW  Elec       q    Type
REMARK                         _______ _______ _______ _____ _____    ______ ____
ROOT
ATOM      1  N   UNL     1       5.591   2.191  -1.967  0.00  0.00    +0.391 N 
ATOM      2  H   UNL     1       6.154   2.909  -1.496  0.00  0.00    -0.080 HD
ENDROOT
BRANCH   1   3
ATOM      3  C   UNL     1       5.775   2.318  -3.428  0.00  0.00    -0.067 C 
ATOM      4  C   UNL     1       5.539   3.775  -3.831  0.00  0.00    -0.015 C 
ATOM      5  C   UNL     1       5.747   3.927  -5.339  0.00  0.00    -0.002 C 
ATOM      6  C   UNL     1       4.760   3.026  -6.084  0.00  0.00    -0.000 C 
ATOM      7  C   UNL     1       4.997   1.569  -5.681  0.00  0.00    -0.002 C 
ATOM      8  C   UNL     1       4.788   1.416  -4.173  0.00  0.00    -0.015 C 
ENDBRANCH   1   3
BRANCH   1   9
ATOM      9  C   UNL     1       4.169   2.391  -1.618  0.00  0.00    +0.003 C 
BRANCH   9  10
ATOM     10  C   UNL     1       3.373   1.145  -1.914  0.00  0.00    +0.138 A 
ATOM     11  N   UNL     1       3.675  -0.079  -1.559  0.00  0.00    -0.115 NA
ATOM     12  N   UNL     1       2.753  -0.862  -2.002  0.00  0.00    -0.023 NA
ATOM     13  N   UNL     1       1.867  -0.167  -2.627  0.00  0.00    -0.044 NA
ATOM     14  N   UNL     1       2.212   1.075  -2.592  0.00  0.00    -0.226 N 
BRANCH  14  15
ATOM     15  C   UNL     1       1.482   2.199  -3.184  0.00  0.00    +0.182 C 
BRANCH  15  16
ATOM     16  C   UNL     1       0.507   2.751  -2.176  0.00  0.00    -0.026 A 
ATOM     17  C   UNL     1       0.899   3.760  -1.316  0.00  0.00    +0.005 A 
ATOM     18  C   UNL     1       0.004   4.266  -0.392  0.00  0.00    +0.000 A 
ATOM     19  C   UNL     1      -1.280   3.760  -0.323  0.00  0.00    +0.000 A 
ATOM     20  C   UNL     1      -1.674   2.755  -1.187  0.00  0.00    +0.000 A 
ATOM     21  C   UNL     1      -0.780   2.249  -2.112  0.00  0.00    +0.005 A 
ENDBRANCH  15  16
ENDBRANCH  14  15
ENDBRANCH   9  10
BRANCH   9  22
ATOM     22  C   UNL     1       4.071   2.716  -0.126  0.00  0.00    -0.008 C 
BRANCH  22  24
ATOM     23  C   UNL     1       4.555   4.439   1.617  0.00  0.00    +0.004 C 
ATOM     24  C   UNL     1       4.759   4.054   0.150  0.00  0.00    -0.005 C 
ENDBRANCH  22  24
ENDBRANCH   9  22
ENDBRANCH   1   9
BRANCH   1  25
ATOM     25  C   UNL     1       6.039   0.857  -1.515  0.00  0.00    -0.036 C 
BRANCH  25  26
ATOM     26  C   UNL     1       7.546   0.825  -1.524  0.00  0.00    +0.001 A 
ATOM     27  C   UNL     1       8.235   1.116  -0.393  0.00  0.00    +0.017 A 
ATOM     28  C   UNL     1       9.697   1.075  -0.435  0.00  0.00    -0.001 A 
ATOM     29  C   UNL     1      10.462   1.365   0.700  0.00  0.00    +0.013 A 
ATOM     30  C   UNL     1      11.825   1.318   0.628  0.00  0.00    -0.050 A 
ATOM     31  C   UNL     1      12.459   0.985  -0.561  0.00  0.00    +0.008 A 
ATOM     32  C   UNL     1      11.726   0.695  -1.692  0.00  0.00    -0.026 A 
ATOM     33  C   UNL     1      10.336   0.737  -1.643  0.00  0.00    +0.052 A 
ATOM     34  N   UNL     1       9.578   0.451  -2.758  0.00  0.00    -0.322 N 
ATOM     35  H   UNL     1      10.020   0.218  -3.589  0.00  0.00    +0.169 HD
ATOM     36  C   UNL     1       8.235   0.485  -2.708  0.00  0.00    +0.251 A 
ATOM     37  O   UNL     1       7.596   0.222  -3.712  0.00  0.00    -0.268 OA
ATOM     38  C   UNL     1      12.427   0.335  -2.976  0.00  0.00    +0.046 C 
ATOM     39  C   UNL     1      12.649   1.631   1.851  0.00  0.00    +0.044 C 
ENDBRANCH  25  26
ENDBRANCH   1  25
TORSDOF 9
