REMARK  Name = ZINC20137978
REMARK  16 active torsions:
REMARK  status: ('A' for Active; 'I' for Inactive)
REMARK    1  A    between atoms: C_1  and  C_2
REMARK    2  A    between atoms: C_2  and  O_3
REMARK    3  A    between atoms: O_3  and  C_4
REMARK    4  A    between atoms: C_4  and  C_5
REMARK    5  A    between atoms: C_4  and  O_33
REMARK    6  A    between atoms: C_5  and  C_6
REMARK    7  A    between atoms: C_6  and  N_7
REMARK    8  A    between atoms: C_8  and  C_10
REMARK    9  A    between atoms: C_10  and  C_11
REMARK   10  A    between atoms: C_11  and  C_12
REMARK   11  A    between atoms: N_14  and  C_15
REMARK   12  A    between atoms: C_21  and  C_32
REMARK   13  A    between atoms: C_23  and  N_25
REMARK   14  A    between atoms: C_28  and  C_31
REMARK   15  A    between atoms: O_33  and  C_34
REMARK   16  A    between atoms: C_34  and  C_35
REMARK                            x       y       z     vdW  Elec       q    Type
REMARK                         _______ _______ _______ _____ _____    ______ ____
ROOT
ATOM      1  C   UNL     1       1.374   0.542  -1.920  0.00  0.00    +0.218 C 
ATOM      2  O   UNL     1       1.642  -0.624  -2.123  0.00  0.00    -0.275 OA
ATOM      3  N   UNL     1       0.151   1.016  -2.227  0.00  0.00    -0.285 N 
ATOM      4  H   UNL     1      -0.116   2.053  -1.977  0.00  0.00    +0.155 HD
ENDROOT
BRANCH   3   5
ATOM      5  C   UNL     1      -0.781   0.188  -2.865  0.00  0.00    +0.034 A 
ATOM      6  C   UNL     1      -0.339  -0.795  -3.757  0.00  0.00    +0.025 A 
ATOM      7  C   UNL     1      -1.222  -1.616  -4.386  0.00  0.00    +0.028 A 
ATOM      8  C   UNL     1      -2.601  -1.477  -4.152  0.00  0.00    +0.048 A 
ATOM      9  C   UNL     1      -3.055  -0.480  -3.255  0.00  0.00    +0.003 A 
ATOM     10  C   UNL     1      -2.126   0.352  -2.613  0.00  0.00    +0.033 A 
ATOM     11  C   UNL     1      -4.439  -0.344  -3.022  0.00  0.00    -0.038 A 
ATOM     12  C   UNL     1      -5.289  -1.183  -3.677  0.00  0.00    +0.045 A 
ATOM     13  C   UNL     1      -4.778  -2.151  -4.554  0.00  0.00    +0.099 A 
ATOM     14  N   UNL     1      -3.484  -2.273  -4.766  0.00  0.00    -0.343 N 
ATOM     15  C   UNL     1      -4.964   0.704  -2.075  0.00  0.00    +0.044 C 
ATOM     16  H   UNL     1      -3.134  -3.049  -5.463  0.00  0.00    +0.167 HD
BRANCH  13  17
ATOM     17  N   UNL     1      -5.657  -2.999  -5.213  0.00  0.00    -0.317 N 
ATOM     18  C   UNL     1      -6.655  -2.236  -5.972  0.00  0.00    +0.107 C 
ATOM     19  C   UNL     1      -7.690  -3.195  -6.565  0.00  0.00    +0.022 C 
ATOM     20  C   UNL     1      -6.982  -4.198  -7.481  0.00  0.00    -0.011 C 
ATOM     21  C   UNL     1      -5.915  -4.945  -6.677  0.00  0.00    +0.022 C 
ATOM     22  C   UNL     1      -4.931  -3.935  -6.081  0.00  0.00    +0.107 C 
ATOM     23  C   UNL     1      -8.003  -5.198  -8.029  0.00  0.00    +0.007 C 
ENDBRANCH  13  17
ENDBRANCH   3   5
BRANCH   1  24
ATOM     24  C   UNL     1       2.413   1.462  -1.331  0.00  0.00    +0.105 C 
BRANCH  24  25
ATOM     25  C   UNL     1       3.705   0.681  -1.084  0.00  0.00    +0.105 C 
BRANCH  25  27
ATOM     26  N   UNL     1       5.969   1.128  -0.194  0.00  0.00    -0.315 N 
ATOM     27  C   UNL     1       4.743   1.601  -0.495  0.00  0.00    +0.213 C 
ATOM     28  O   UNL     1       4.476   2.766  -0.293  0.00  0.00    -0.276 OA
ATOM     29  H   UNL     1       6.211   0.071  -0.377  0.00  0.00    +0.149 HD
BRANCH  26  30
ATOM     30  C   UNL     1       6.978   2.022   0.379  0.00  0.00    +0.109 C 
BRANCH  30  31
ATOM     31  C   UNL     1       8.271   1.241   0.626  0.00  0.00    +0.080 C 
BRANCH  31  32
ATOM     32  C   UNL     1       9.325   2.175   1.224  0.00  0.00    +0.251 C 
BRANCH  32  33
ATOM     33  O   UNL     1       8.896   2.613   2.514  0.00  0.00    -0.352 OA
BRANCH  33  35
ATOM     34  C   UNL     1       8.798   4.314   4.228  0.00  0.00    +0.034 C 
ATOM     35  C   UNL     1       9.438   3.875   2.909  0.00  0.00    +0.159 C 
ENDBRANCH  33  35
ENDBRANCH  32  33
BRANCH  32  36
ATOM     36  O   UNL     1      10.565   1.476   1.346  0.00  0.00    -0.352 OA
BRANCH  36  37
ATOM     37  C   UNL     1      11.675   2.316   1.671  0.00  0.00    +0.159 C 
ATOM     38  C   UNL     1      12.967   1.499   1.609  0.00  0.00    +0.034 C 
ENDBRANCH  36  37
ENDBRANCH  32  36
ENDBRANCH  31  32
ENDBRANCH  30  31
ENDBRANCH  26  30
ENDBRANCH  25  27
ENDBRANCH  24  25
ENDBRANCH   1  24
TORSDOF 12
