REMARK  Name = ZINC39534444
REMARK  11 active torsions:
REMARK  status: ('A' for Active; 'I' for Inactive)
REMARK    1  A    between atoms: C_1  and  C_2
REMARK    2  A    between atoms: C_2  and  C_3
REMARK    3  A    between atoms: C_2  and  S_4
REMARK    4  A    between atoms: S_4  and  C_7
REMARK    5  A    between atoms: C_10  and  C_13
REMARK    6  A    between atoms: C_13  and  C_15
REMARK    7  A    between atoms: C_13  and  N_18
REMARK    8  A    between atoms: C_15  and  N_16
REMARK    9  A    between atoms: N_16  and  O_17
REMARK   10  A    between atoms: C_22  and  C_25
REMARK   11  A    between atoms: C_30  and  O_31
REMARK                            x       y       z     vdW  Elec       q    Type
REMARK                         _______ _______ _______ _____ _____    ______ ____
ROOT
ATOM      1  C   UNL     1      -1.158  -6.622   0.498  0.00  0.00    +0.103 C 
ENDROOT
BRANCH   1   2
ATOM      2  N   UNL     1      -0.292  -7.037   1.610  0.00  0.00    -0.297 NA
ATOM      3  C   UNL     1       0.979  -6.299   1.591  0.00  0.00    +0.066 C 
ATOM      4  C   UNL     1       1.826  -6.716   2.795  0.00  0.00    -0.066 C 
ATOM      5  N   UNL     1       2.078  -8.162   2.740  0.00  0.00    +0.385 N 
ATOM      6  C   UNL     1       0.801  -8.886   2.785  0.00  0.00    -0.023 C 
ATOM      7  C   UNL     1      -0.054  -8.487   1.580  0.00  0.00    +0.074 C 
ATOM      8  H   UNL     1       2.562  -8.386   1.883  0.00  0.00    -0.085 HD
ATOM      9  H   UNL     1       2.647  -8.434   3.528  0.00  0.00    -0.085 HD
BRANCH   6  10
ATOM     10  C   UNL     1       1.063 -10.369   2.746  0.00  0.00    -0.019 A 
ATOM     11  C   UNL     1       2.272 -10.846   2.278  0.00  0.00    +0.005 A 
ATOM     12  C   UNL     1       2.513 -12.207   2.242  0.00  0.00    +0.000 A 
ATOM     13  C   UNL     1       1.544 -13.094   2.674  0.00  0.00    +0.004 A 
ATOM     14  C   UNL     1       0.334 -12.623   3.143  0.00  0.00    +0.045 A 
ATOM     15  C   UNL     1       0.092 -11.257   3.185  0.00  0.00    +0.118 A 
BRANCH  15  16
ATOM     16  O   UNL     1      -1.096 -10.791   3.652  0.00  0.00    -0.507 OA
ATOM     17  H   UNL     1      -1.775 -10.693   2.970  0.00  0.00    +0.292 HD
ENDBRANCH  15  16
ENDBRANCH   6  10
ENDBRANCH   1   2
BRANCH   1  21
ATOM     18  C   UNL     1      -1.985  -2.444   0.818  0.00  0.00    +0.088 A 
ATOM     19  C   UNL     1      -1.740  -3.007  -0.421  0.00  0.00    +0.027 A 
ATOM     20  C   UNL     1      -1.472  -4.359  -0.524  0.00  0.00    +0.007 A 
ATOM     21  C   UNL     1      -1.449  -5.148   0.611  0.00  0.00    -0.029 A 
ATOM     22  C   UNL     1      -1.694  -4.585   1.849  0.00  0.00    +0.007 A 
ATOM     23  C   UNL     1      -1.957  -3.232   1.953  0.00  0.00    +0.027 A 
BRANCH  18  24
ATOM     24  S   UNL     1      -2.327  -0.720   0.949  0.00  0.00    -0.001 S 
ATOM     25  O   UNL     1      -3.095  -0.592   2.138  0.00  0.00    -0.169 OA
ATOM     26  O   UNL     1      -2.877  -0.362  -0.311  0.00  0.00    -0.169 OA
BRANCH  24  28
ATOM     27  C   UNL     1      -0.889   1.559   1.418  0.00  0.00    +0.032 C 
ATOM     28  C   UNL     1      -0.704   0.061   1.167  0.00  0.00    +0.130 C 
ATOM     29  C   UNL     1       0.010  -0.572   2.363  0.00  0.00    +0.032 C 
ENDBRANCH  24  28
ENDBRANCH  18  24
ENDBRANCH   1  21
BRANCH   1  30
ATOM     30  C   UNL     1      -2.470  -7.407   0.554  0.00  0.00    +0.134 C 
BRANCH  30  31
ATOM     31  N   UNL     1      -3.302  -7.054  -0.604  0.00  0.00    -0.202 NA
ATOM     32  H   UNL     1      -2.840  -7.295  -1.468  0.00  0.00    +0.154 HD
BRANCH  31  33
ATOM     33  O   UNL     1      -4.618  -7.688  -0.517  0.00  0.00    -0.315 OA
ATOM     34  H   UNL     1      -5.202  -7.484  -1.260  0.00  0.00    +0.236 HD
ENDBRANCH  31  33
ENDBRANCH  30  31
ENDBRANCH   1  30
TORSDOF 9
