REMARK  Name = ZINC20130547
REMARK  15 active torsions:
REMARK  status: ('A' for Active; 'I' for Inactive)
REMARK    1  A    between atoms: C_1  and  C_2
REMARK    2  A    between atoms: C_6  and  C_37
REMARK    3  A    between atoms: C_7  and  N_8
REMARK    4  A    between atoms: C_9  and  C_11
REMARK    5  A    between atoms: C_11  and  S_12
REMARK    6  A    between atoms: S_12  and  C_13
REMARK    7  A    between atoms: C_14  and  C_35
REMARK    8  A    between atoms: C_15  and  C_27
REMARK    9  A    between atoms: C_17  and  C_21
REMARK   10  A    between atoms: C_18  and  C_20
REMARK   11  A    between atoms: C_21  and  O_23
REMARK   12  A    between atoms: O_23  and  C_24
REMARK   13  A    between atoms: C_24  and  C_25
REMARK   14  A    between atoms: C_32  and  O_33
REMARK   15  A    between atoms: O_33  and  C_34
REMARK                            x       y       z     vdW  Elec       q    Type
REMARK                         _______ _______ _______ _____ _____    ______ ____
ROOT
ATOM      1  C   UNL     1       3.700   2.423   1.586  0.00  0.00    +0.080 C 
ATOM      2  C   UNL     1       4.836   2.165   2.288  0.00  0.00    +0.069 C 
ATOM      3  C   UNL     1       6.066   3.011   2.118  0.00  0.00    +0.104 C 
ATOM      4  C   UNL     1       5.730   4.311   1.446  0.00  0.00    +0.066 C 
ATOM      5  C   UNL     1       4.572   4.487   0.787  0.00  0.00    +0.016 C 
ATOM      6  N   UNL     1       3.646   3.485   0.710  0.00  0.00    -0.312 N 
ATOM      7  C   UNL     1       4.291   5.810   0.122  0.00  0.00    +0.061 C 
ATOM      8  H   UNL     1       2.856   3.528  -0.054  0.00  0.00    +0.152 HD
ENDROOT
BRANCH   3   9
ATOM      9  C   UNL     1       7.074   2.266   1.281  0.00  0.00    +0.007 A 
ATOM     10  C   UNL     1       6.762   1.900  -0.014  0.00  0.00    +0.008 A 
ATOM     11  C   UNL     1       7.688   1.222  -0.784  0.00  0.00    +0.001 A 
ATOM     12  C   UNL     1       8.925   0.897  -0.256  0.00  0.00    +0.004 A 
ATOM     13  C   UNL     1       9.240   1.256   1.040  0.00  0.00    +0.046 A 
ATOM     14  C   UNL     1       8.314   1.943   1.813  0.00  0.00    +0.124 A 
BRANCH  14  15
ATOM     15  O   UNL     1       8.622   2.297   3.088  0.00  0.00    -0.495 OA
ATOM     16  C   UNL     1       9.917   1.931   3.569  0.00  0.00    +0.277 C 
ENDBRANCH  14  15
ENDBRANCH   3   9
BRANCH   4  17
ATOM     17  C   UNL     1       6.656   5.377   1.508  0.00  0.00    +0.338 C 
ATOM     18  O   UNL     1       6.400   6.438   0.968  0.00  0.00    -0.245 OA
BRANCH  17  19
ATOM     19  O   UNL     1       7.824   5.220   2.165  0.00  0.00    -0.457 OA
BRANCH  19  20
ATOM     20  C   UNL     1       8.713   6.338   2.187  0.00  0.00    +0.259 C 
BRANCH  20  21
ATOM     21  C   UNL     1       9.955   5.978   2.960  0.00  0.00    +0.006 C 
ATOM     22  C   UNL     1      11.135   6.295   2.488  0.00  0.00    +0.007 C 
ENDBRANCH  20  21
ENDBRANCH  19  20
ENDBRANCH  17  19
ENDBRANCH   4  17
BRANCH   2  23
ATOM     23  C   UNL     1       4.861   1.064   3.203  0.00  0.00    +0.098 C 
ATOM     24  N   UNL     1       4.881   0.190   3.928  0.00  0.00    -0.191 NA
ENDBRANCH   2  23
BRANCH   1  25
ATOM     25  S   UNL     1       2.285   1.395   1.802  0.00  0.00    -0.100 S 
BRANCH  25  26
ATOM     26  C   UNL     1       1.134   2.201   0.661  0.00  0.00    +0.171 C 
BRANCH  26  28
ATOM     27  N   UNL     1      -1.199   1.892  -0.101  0.00  0.00    -0.284 N 
ATOM     28  C   UNL     1      -0.184   1.471   0.680  0.00  0.00    +0.227 C 
ATOM     29  O   UNL     1      -0.331   0.502   1.395  0.00  0.00    -0.275 OA
ATOM     30  H   UNL     1      -1.086   2.805  -0.704  0.00  0.00    +0.155 HD
BRANCH  27  37
ATOM     31  C   UNL     1      -1.062  -0.896  -0.653  0.00  0.00    +0.045 C 
ATOM     32  C   UNL     1      -2.374  -0.195  -0.411  0.00  0.00    -0.029 A 
ATOM     33  C   UNL     1      -3.556  -0.908  -0.448  0.00  0.00    +0.005 A 
ATOM     34  C   UNL     1      -4.761  -0.265  -0.232  0.00  0.00    +0.001 A 
ATOM     35  C   UNL     1      -4.786   1.094   0.027  0.00  0.00    +0.005 A 
ATOM     36  C   UNL     1      -3.607   1.812   0.071  0.00  0.00    -0.029 A 
ATOM     37  C   UNL     1      -2.395   1.168  -0.145  0.00  0.00    +0.039 A 
ATOM     38  C   UNL     1      -3.635   3.291   0.354  0.00  0.00    +0.045 C 
ENDBRANCH  27  37
ENDBRANCH  26  28
ENDBRANCH  25  26
ENDBRANCH   1  25
TORSDOF 11
