REMARK  Name = ZINC49181976
REMARK  9 active torsions:
REMARK  status: ('A' for Active; 'I' for Inactive)
REMARK    1  A    between atoms: C_1  and  C_2
REMARK    2  A    between atoms: C_2  and  C_3
REMARK    3  A    between atoms: C_3  and  C_4
REMARK    4  A    between atoms: C_9  and  O_20
REMARK    5  A    between atoms: C_11  and  O_19
REMARK    6  A    between atoms: C_13  and  O_18
REMARK    7  A    between atoms: C_15  and  O_17
REMARK    8  A    between atoms: C_21  and  O_24
REMARK    9  A    between atoms: O_24  and  C_25
REMARK                            x       y       z     vdW  Elec       q    Type
REMARK                         _______ _______ _______ _____ _____    ______ ____
ROOT
ATOM      1  C   UNL     1      -1.413  -2.063   0.004  0.00  0.00    +0.126 C 
ATOM      2  C   UNL     1      -2.836  -2.601   0.118  0.00  0.00    +0.065 C 
ATOM      3  C   UNL     1      -2.869  -4.090  -0.166  0.00  0.00    -0.030 C 
ATOM      4  C   UNL     1      -1.896  -4.687  -0.788  0.00  0.00    +0.018 C 
ATOM      5  C   UNL     1      -1.912  -6.164  -1.114  0.00  0.00    +0.176 C 
ATOM      6  C   UNL     1      -2.928  -6.910  -0.257  0.00  0.00    +0.178 C 
ATOM      7  C   UNL     1      -4.264  -6.163  -0.359  0.00  0.00    +0.178 C 
ATOM      8  C   UNL     1      -4.097  -4.816   0.335  0.00  0.00    +0.172 C 
ATOM      9  C   UNL     1      -0.652  -3.942  -1.227  0.00  0.00    +0.280 C 
ATOM     10  O   UNL     1      -0.867  -2.536  -1.234  0.00  0.00    -0.344 OA
ENDROOT
BRANCH   8  11
ATOM     11  O   UNL     1      -5.251  -4.013   0.082  0.00  0.00    -0.385 OA
ATOM     12  H   UNL     1      -6.081  -4.413   0.376  0.00  0.00    +0.210 HD
ENDBRANCH   8  11
BRANCH   7  13
ATOM     13  O   UNL     1      -4.604  -5.964  -1.733  0.00  0.00    -0.386 OA
ATOM     14  H   UNL     1      -4.699  -6.783  -2.238  0.00  0.00    +0.210 HD
ENDBRANCH   7  13
BRANCH   6  15
ATOM     15  O   UNL     1      -3.080  -8.247  -0.740  0.00  0.00    -0.386 OA
ATOM     16  H   UNL     1      -3.713  -8.777  -0.237  0.00  0.00    +0.210 HD
ENDBRANCH   6  15
BRANCH   5  17
ATOM     17  O   UNL     1      -2.250  -6.335  -2.492  0.00  0.00    -0.385 OA
ATOM     18  H   UNL     1      -2.281  -7.258  -2.779  0.00  0.00    +0.210 HD
ENDBRANCH   5  17
BRANCH   9  19
ATOM     19  O   UNL     1       0.417  -4.244  -0.327  0.00  0.00    -0.351 OA
ATOM     20  C   UNL     1       1.674  -3.683  -0.709  0.00  0.00    +0.197 C 
ENDBRANCH   9  19
BRANCH   1  21
ATOM     21  C   UNL     1      -1.433  -0.534   0.013  0.00  0.00    +0.032 C 
BRANCH  21  23
ATOM     22  C   UNL     1      -0.019   1.526   0.010  0.00  0.00    +0.004 C 
ATOM     23  C   UNL     1       0.002  -0.004   0.002  0.00  0.00    -0.001 C 
ENDBRANCH  21  23
ENDBRANCH   1  21
TORSDOF 7
