REMARK  Name = ZINC13592317
REMARK  6 active torsions:
REMARK  status: ('A' for Active; 'I' for Inactive)
REMARK    1  A    between atoms: C_1  and  C_2
REMARK    2  A    between atoms: C_5  and  C_35
REMARK    3  A    between atoms: N_8  and  S_10
REMARK    4  A    between atoms: S_10  and  C_13
REMARK    5  A    between atoms: C_16  and  C_19
REMARK    6  A    between atoms: C_19  and  C_21
REMARK                            x       y       z     vdW  Elec       q    Type
REMARK                         _______ _______ _______ _____ _____    ______ ____
ROOT
ATOM      1  C   UNL     1       2.676   2.463   2.024  0.00  0.00    +0.106 A 
ATOM      2  C   UNL     1       3.477   3.124   1.110  0.00  0.00    +0.029 A 
ATOM      3  C   UNL     1       3.249   4.455   0.825  0.00  0.00    +0.013 A 
ATOM      4  C   UNL     1       2.208   5.133   1.460  0.00  0.00    +0.022 A 
ATOM      5  C   UNL     1       1.404   4.460   2.381  0.00  0.00    +0.013 A 
ATOM      6  C   UNL     1       1.639   3.128   2.654  0.00  0.00    +0.029 A 
ENDROOT
BRANCH   1   7
ATOM      7  S   UNL     1       2.974   0.763   2.383  0.00  0.00    +0.061 S 
ATOM      8  O   UNL     1       2.428   0.519   3.672  0.00  0.00    -0.153 OA
ATOM      9  O   UNL     1       4.339   0.517   2.075  0.00  0.00    -0.153 OA
BRANCH   7  15
ATOM     10  C   UNL     1      -0.252   1.449   0.447  0.00  0.00    +0.009 C 
ATOM     11  C   UNL     1      -0.224  -0.080   0.507  0.00  0.00    +0.002 C 
ATOM     12  C   UNL     1       0.293  -0.634  -0.822  0.00  0.00    +0.009 C 
ATOM     13  C   UNL     1       1.694  -0.082  -1.096  0.00  0.00    +0.002 C 
ATOM     14  C   UNL     1       2.644  -0.531   0.018  0.00  0.00    +0.112 C 
ATOM     15  N   UNL     1       2.079  -0.128   1.313  0.00  0.00    -0.176 NA
ATOM     16  C   UNL     1       0.703  -0.530   1.641  0.00  0.00    +0.112 C 
ATOM     17  C   UNL     1       2.197  -0.610  -2.441  0.00  0.00    +0.009 C 
ENDBRANCH   7  15
ENDBRANCH   1   7
BRANCH   4  18
ATOM     18  C   UNL     1       1.958   6.561   1.159  0.00  0.00    +0.188 C 
ATOM     19  O   UNL     1       2.662   7.146   0.354  0.00  0.00    -0.287 OA
BRANCH  18  20
ATOM     20  C   UNL     1       0.909   7.241   1.800  0.00  0.00    +0.075 C 
ATOM     21  C   UNL     1       0.770   8.602   1.640  0.00  0.00    +0.038 C 
ATOM     22  C   UNL     1       1.942   9.487   1.456  0.00  0.00    +0.003 A 
ATOM     23  C   UNL     1       3.233   8.973   1.600  0.00  0.00    +0.059 A 
ATOM     24  C   UNL     1       4.325   9.800   1.421  0.00  0.00    +0.167 A 
ATOM     25  C   UNL     1       4.133  11.144   1.096  0.00  0.00    +0.167 A 
ATOM     26  C   UNL     1       2.849  11.651   0.957  0.00  0.00    +0.054 A 
ATOM     27  C   UNL     1       1.750  10.833   1.139  0.00  0.00    -0.033 A 
ATOM     28  C   UNL     1       0.369  11.415   1.001  0.00  0.00    +0.054 C 
ATOM     29  C   UNL     1      -0.655  10.324   0.691  0.00  0.00    +0.106 C 
ATOM     30  N   UNL     1      -0.475   9.213   1.636  0.00  0.00    -0.343 N 
ATOM     31  O   UNL     1       5.354  11.738   0.971  0.00  0.00    -0.453 OA
ATOM     32  C   UNL     1       6.283  10.853   1.624  0.00  0.00    +0.466 C 
ATOM     33  O   UNL     1       5.666   9.558   1.501  0.00  0.00    -0.453 OA
ATOM     34  H   UNL     1      -1.189   8.926   2.227  0.00  0.00    +0.146 HD
ENDBRANCH  18  20
ENDBRANCH   4  18
TORSDOF 4
