REMARK  Name = ZINC16701428
REMARK  5 active torsions:
REMARK  status: ('A' for Active; 'I' for Inactive)
REMARK    1  A    between atoms: C_1  and  C_2
REMARK    2  A    between atoms: C_4  and  N_20
REMARK    3  A    between atoms: C_7  and  S_8
REMARK    4  A    between atoms: S_8  and  N_11
REMARK    5  A    between atoms: N_11  and  C_12
REMARK                            x       y       z     vdW  Elec       q    Type
REMARK                         _______ _______ _______ _____ _____    ______ ____
ROOT
ATOM      1  C   UNL     1      -2.763   2.313   5.749  0.00  0.00    +0.046 C 
ATOM      2  C   UNL     1      -3.330   2.579   4.378  0.00  0.00    -0.022 A 
ATOM      3  C   UNL     1      -2.638   2.169   3.255  0.00  0.00    +0.030 A 
ATOM      4  C   UNL     1      -3.161   2.414   1.992  0.00  0.00    +0.060 A 
ATOM      5  C   UNL     1      -4.375   3.075   1.862  0.00  0.00    +0.027 A 
ATOM      6  C   UNL     1      -5.064   3.478   2.990  0.00  0.00    +0.031 A 
ATOM      7  C   UNL     1      -4.541   3.232   4.246  0.00  0.00    +0.111 A 
ENDROOT
BRANCH   4   8
ATOM      8  N   UNL     1      -2.463   2.000   0.852  0.00  0.00    -0.144 N 
ATOM      9  C   UNL     1      -1.142   1.800   0.765  0.00  0.00    +0.240 C 
ATOM     10  O   UNL     1      -0.423   2.006   1.719  0.00  0.00    -0.274 OA
ATOM     11  C   UNL     1      -0.572   1.317  -0.535  0.00  0.00    +0.122 C 
ATOM     12  C   UNL     1      -1.600   1.604  -1.661  0.00  0.00    +0.198 C 
ATOM     13  S   UNL     1      -3.132   1.666  -0.646  0.00  0.00    +0.052 S 
ATOM     14  O   UNL     1      -3.916   2.804  -0.979  0.00  0.00    -0.155 OA
ATOM     15  O   UNL     1      -3.716   0.376  -0.529  0.00  0.00    -0.155 OA
ENDBRANCH   4   8
BRANCH   7  16
ATOM     16  S   UNL     1      -5.419   3.754   5.681  0.00  0.00    +0.073 S 
ATOM     17  O   UNL     1      -4.487   4.449   6.498  0.00  0.00    -0.150 OA
ATOM     18  O   UNL     1      -6.625   4.351   5.225  0.00  0.00    -0.150 OA
BRANCH  16  19
ATOM     19  N   UNL     1      -5.852   2.390   6.514  0.00  0.00    -0.216 N 
ATOM     20  H   UNL     1      -5.523   2.246   7.415  0.00  0.00    +0.174 HD
BRANCH  19  21
ATOM     21  C   UNL     1      -6.691   1.445   5.918  0.00  0.00    +0.053 A 
ATOM     22  C   UNL     1      -7.843   1.855   5.259  0.00  0.00    +0.063 A 
ATOM     23  C   UNL     1      -8.669   0.918   4.665  0.00  0.00    +0.128 A 
ATOM     24  C   UNL     1      -8.354  -0.428   4.736  0.00  0.00    +0.076 A 
ATOM     25  C   UNL     1      -7.210  -0.840   5.398  0.00  0.00    +0.128 A 
ATOM     26  C   UNL     1      -6.378   0.094   5.989  0.00  0.00    +0.063 A 
ATOM     27  F   UNL     1      -6.906  -2.155   5.467  0.00  0.00    -0.205 F 
ATOM     28  F   UNL     1      -9.787   1.317   4.019  0.00  0.00    -0.205 F 
ENDBRANCH  19  21
ENDBRANCH  16  19
ENDBRANCH   7  16
TORSDOF 4
