REMARK  Name = ZINC35992069
REMARK  11 active torsions:
REMARK  status: ('A' for Active; 'I' for Inactive)
REMARK    1  A    between atoms: C_1  and  C_2
REMARK    2  A    between atoms: C_2  and  N_3
REMARK    3  A    between atoms: C_4  and  C_26
REMARK    4  A    between atoms: C_5  and  C_21
REMARK    5  A    between atoms: C_6  and  C_11
REMARK    6  A    between atoms: C_14  and  C_17
REMARK    7  A    between atoms: C_21  and  O_23
REMARK    8  A    between atoms: O_23  and  C_24
REMARK    9  A    between atoms: C_24  and  C_25
REMARK   10  A    between atoms: C_26  and  N_27
REMARK   11  A    between atoms: C_33  and  C_35
REMARK                            x       y       z     vdW  Elec       q    Type
REMARK                         _______ _______ _______ _____ _____    ______ ____
ROOT
ATOM      1  N   UNL     1       0.671  -0.459   1.231  0.00  0.00    -0.258 N 
ATOM      2  C   UNL     1       2.028  -0.568   1.115  0.00  0.00    +0.041 C 
ATOM      3  C   UNL     1       2.778  -1.045   2.131  0.00  0.00    +0.080 C 
ATOM      4  C   UNL     1       2.064  -1.454   3.403  0.00  0.00    +0.144 C 
ATOM      5  N   UNL     1       0.600  -1.297   3.427  0.00  0.00    -0.288 N 
ATOM      6  C   UNL     1      -0.009  -0.801   2.332  0.00  0.00    +0.307 C 
ATOM      7  O   UNL     1      -1.217  -0.664   2.343  0.00  0.00    -0.252 OA
ATOM      8  H   UNL     1       0.087  -1.542   4.213  0.00  0.00    +0.151 HD
ENDROOT
BRANCH   4   9
ATOM      9  C   UNL     1       2.380  -2.904   3.667  0.00  0.00    -0.022 A 
ATOM     10  C   UNL     1       1.703  -3.894   2.980  0.00  0.00    +0.006 A 
ATOM     11  C   UNL     1       1.992  -5.224   3.222  0.00  0.00    +0.013 A 
ATOM     12  C   UNL     1       2.958  -5.564   4.150  0.00  0.00    +0.055 A 
ATOM     13  C   UNL     1       3.636  -4.573   4.836  0.00  0.00    +0.013 A 
ATOM     14  C   UNL     1       3.350  -3.243   4.591  0.00  0.00    +0.006 A 
BRANCH  12  15
ATOM     15  C   UNL     1       3.273  -7.014   4.414  0.00  0.00    +0.417 C 
ATOM     16  F   UNL     1       4.288  -7.436   3.550  0.00  0.00    -0.166 F 
ATOM     17  F   UNL     1       3.695  -7.165   5.739  0.00  0.00    -0.166 F 
ATOM     18  F   UNL     1       2.126  -7.786   4.199  0.00  0.00    -0.166 F 
ENDBRANCH  12  15
ENDBRANCH   4   9
BRANCH   1  20
ATOM     19  C   UNL     1      -0.185   1.589   0.204  0.00  0.00    +0.025 C 
ATOM     20  C   UNL     1      -0.080   0.067   0.088  0.00  0.00    +0.111 C 
ENDBRANCH   1  20
BRANCH   3  21
ATOM     21  C   UNL     1       4.183  -1.159   2.012  0.00  0.00    +0.339 C 
ATOM     22  O   UNL     1       4.687  -2.237   1.757  0.00  0.00    -0.245 OA
BRANCH  21  23
ATOM     23  O   UNL     1       4.965  -0.072   2.180  0.00  0.00    -0.462 OA
BRANCH  23  24
ATOM     24  C   UNL     1       6.375  -0.260   2.045  0.00  0.00    +0.229 C 
ATOM     25  C   UNL     1       7.091   1.074   2.268  0.00  0.00    +0.048 C 
ENDBRANCH  23  24
ENDBRANCH  21  23
ENDBRANCH   3  21
BRANCH   2  26
ATOM     26  C   UNL     1       2.698  -0.149  -0.169  0.00  0.00    +0.136 C 
BRANCH  26  27
ATOM     27  N   UNL     1       2.296  -1.058  -1.250  0.00  0.00    -0.294 NA
ATOM     28  C   UNL     1       2.801  -2.417  -1.011  0.00  0.00    +0.104 C 
ATOM     29  C   UNL     1       2.214  -3.369  -2.058  0.00  0.00    +0.123 C 
ATOM     30  N   UNL     1       2.498  -2.826  -3.395  0.00  0.00    -0.299 N 
ATOM     31  C   UNL     1       2.144  -1.424  -3.667  0.00  0.00    +0.123 C 
ATOM     32  C   UNL     1       2.735  -0.549  -2.556  0.00  0.00    +0.104 C 
ATOM     33  C   UNL     1       3.068  -3.592  -4.346  0.00  0.00    +0.219 C 
ATOM     34  O   UNL     1       3.353  -4.746  -4.104  0.00  0.00    -0.275 OA
BRANCH  33  35
ATOM     35  C   UNL     1       3.351  -3.016  -5.709  0.00  0.00    +0.075 C 
ATOM     36  C   UNL     1       2.526  -3.545  -6.885  0.00  0.00    +0.013 C 
ATOM     37  C   UNL     1       3.999  -3.937  -6.745  0.00  0.00    +0.013 C 
ENDBRANCH  33  35
ENDBRANCH  26  27
ENDBRANCH   2  26
TORSDOF 9
