REMARK  Name = ZINC08959019
REMARK  18 active torsions:
REMARK  status: ('A' for Active; 'I' for Inactive)
REMARK    1  A    between atoms: C_1  and  C_2
REMARK    2  A    between atoms: C_2  and  O_3
REMARK    3  A    between atoms: O_3  and  C_4
REMARK    4  A    between atoms: C_4  and  C_6
REMARK    5  A    between atoms: C_6  and  C_39
REMARK    6  A    between atoms: C_7  and  C_8
REMARK    7  A    between atoms: C_11  and  C_14
REMARK    8  A    between atoms: C_14  and  C_15
REMARK    9  A    between atoms: C_14  and  C_30
REMARK   10  A    between atoms: C_18  and  C_21
REMARK   11  A    between atoms: C_22  and  C_23
REMARK   12  A    between atoms: C_22  and  C_28
REMARK   13  A    between atoms: C_23  and  O_25
REMARK   14  A    between atoms: O_25  and  C_26
REMARK   15  A    between atoms: C_26  and  C_27
REMARK   16  A    between atoms: C_33  and  N_36
REMARK   17  A    between atoms: N_36  and  C_37
REMARK   18  A    between atoms: N_36  and  C_38
REMARK                            x       y       z     vdW  Elec       q    Type
REMARK                         _______ _______ _______ _____ _____    ______ ____
ROOT
ATOM      1  C   UNL     1       4.106  -4.181   7.037  0.00  0.00    +0.112 C 
ENDROOT
BRANCH   1   5
ATOM      2  C   UNL     1       2.566  -5.482   3.957  0.00  0.00    +0.041 A 
ATOM      3  N   UNL     1       3.452  -5.575   5.010  0.00  0.00    -0.358 N 
ATOM      4  H   UNL     1       4.067  -6.308   5.169  0.00  0.00    +0.166 HD
ATOM      5  C   UNL     1       3.319  -4.471   5.785  0.00  0.00    +0.030 A 
ATOM      6  C   UNL     1       2.364  -3.668   5.250  0.00  0.00    +0.024 A 
ATOM      7  C   UNL     1       1.880  -4.283   4.096  0.00  0.00    +0.027 A 
BRANCH   2   9
ATOM      8  C   UNL     1       3.066  -7.638   2.978  0.00  0.00    +0.137 C 
ATOM      9  C   UNL     1       2.392  -6.427   2.928  0.00  0.00    +0.051 C 
BRANCH   8  10
ATOM     10  C   UNL     1       2.793  -8.671   1.973  0.00  0.00    +0.350 C 
ATOM     11  O   UNL     1       1.976  -8.465   1.097  0.00  0.00    -0.244 OA
BRANCH  10  12
ATOM     12  O   UNL     1       3.449  -9.848   2.021  0.00  0.00    -0.461 OA
BRANCH  12  14
ATOM     13  C   UNL     1       3.970 -12.071   1.228  0.00  0.00    +0.048 C 
ATOM     14  C   UNL     1       3.133 -10.808   1.011  0.00  0.00    +0.229 C 
ENDBRANCH  12  14
ENDBRANCH  10  12
ENDBRANCH   8  10
BRANCH   8  15
ATOM     15  C   UNL     1       4.029  -7.880   4.010  0.00  0.00    +0.106 C 
ATOM     16  N   UNL     1       4.793  -8.071   4.829  0.00  0.00    -0.191 NA
ENDBRANCH   8  15
ENDBRANCH   2   9
ENDBRANCH   1   5
BRANCH   1  17
ATOM     17  C   UNL     1       3.914  -5.306   8.021  0.00  0.00    +0.030 A 
ATOM     18  N   UNL     1       3.844  -5.170   9.368  0.00  0.00    -0.358 N 
ATOM     19  H   UNL     1       3.907  -4.334   9.857  0.00  0.00    +0.166 HD
ATOM     20  C   UNL     1       3.665  -6.418   9.928  0.00  0.00    +0.041 A 
ATOM     21  C   UNL     1       3.627  -7.337   8.888  0.00  0.00    +0.027 A 
ATOM     22  C   UNL     1       3.780  -6.618   7.702  0.00  0.00    +0.024 A 
BRANCH  20  23
ATOM     23  C   UNL     1       3.545  -6.706  11.300  0.00  0.00    +0.051 C 
ATOM     24  C   UNL     1       3.486  -5.673  12.223  0.00  0.00    +0.137 C 
BRANCH  24  25
ATOM     25  C   UNL     1       3.513  -5.971  13.659  0.00  0.00    +0.350 C 
ATOM     26  O   UNL     1       3.587  -7.123  14.040  0.00  0.00    -0.244 OA
BRANCH  25  27
ATOM     27  O   UNL     1       3.456  -4.966  14.557  0.00  0.00    -0.461 OA
BRANCH  27  28
ATOM     28  C   UNL     1       3.487  -5.328  15.939  0.00  0.00    +0.229 C 
ATOM     29  C   UNL     1       3.414  -4.065  16.799  0.00  0.00    +0.048 C 
ENDBRANCH  27  28
ENDBRANCH  25  27
ENDBRANCH  24  25
BRANCH  24  30
ATOM     30  C   UNL     1       3.399  -4.316  11.775  0.00  0.00    +0.106 C 
ATOM     31  N   UNL     1       3.331  -3.239  11.419  0.00  0.00    -0.191 NA
ENDBRANCH  24  30
ENDBRANCH  20  23
ENDBRANCH   1  17
BRANCH   1  32
ATOM     32  C   UNL     1       5.568  -4.056   6.695  0.00  0.00    -0.033 A 
ATOM     33  C   UNL     1       6.234  -5.120   6.114  0.00  0.00    +0.006 A 
ATOM     34  C   UNL     1       7.574  -5.009   5.799  0.00  0.00    +0.023 A 
ATOM     35  C   UNL     1       8.253  -3.827   6.066  0.00  0.00    +0.029 A 
ATOM     36  C   UNL     1       7.581  -2.760   6.649  0.00  0.00    +0.023 A 
ATOM     37  C   UNL     1       6.239  -2.876   6.957  0.00  0.00    +0.006 A 
BRANCH  35  38
ATOM     38  N   UNL     1       9.608  -3.711   5.749  0.00  0.00    -0.336 N 
ATOM     39  C   UNL     1      10.286  -4.790   5.026  0.00  0.00    +0.129 C 
ATOM     40  C   UNL     1      10.352  -2.511   6.139  0.00  0.00    +0.129 C 
ENDBRANCH  35  38
ENDBRANCH   1  32
TORSDOF 14
