REMARK  Name = ZINC08837390
REMARK  10 active torsions:
REMARK  status: ('A' for Active; 'I' for Inactive)
REMARK    1  A    between atoms: C_1  and  C_2
REMARK    2  A    between atoms: C_2  and  N_57
REMARK    3  A    between atoms: C_3  and  C_4
REMARK    4  A    between atoms: C_3  and  N_57
REMARK    5  A    between atoms: C_5  and  C_6
REMARK    6  A    between atoms: C_5  and  N_57
REMARK    7  A    between atoms: C_6  and  N_7
REMARK    8  A    between atoms: C_8  and  C_26
REMARK    9  A    between atoms: C_11  and  C_12
REMARK   10  A    between atoms: C_11  and  O_21
REMARK                            x       y       z     vdW  Elec       q    Type
REMARK                         _______ _______ _______ _____ _____    ______ ____
ROOT
ATOM      1  N   UNL     1       2.024  -0.025  -2.805  0.00  0.00    -0.285 N 
ATOM      2  C   UNL     1       2.450   0.591  -4.065  0.00  0.00    +0.147 C 
ATOM      3  C   UNL     1       2.666  -0.537  -5.046  0.00  0.00    +0.074 C 
ATOM      4  C   UNL     1       3.074  -0.425  -6.365  0.00  0.00    +0.168 C 
ATOM      5  C   UNL     1       2.372  -1.719  -4.354  0.00  0.00    +0.249 C 
ATOM      6  O   UNL     1       2.429  -2.847  -4.810  0.00  0.00    -0.282 OA
ATOM      7  C   UNL     1       1.983  -1.359  -2.964  0.00  0.00    +0.288 C 
ATOM      8  O   UNL     1       1.671  -2.154  -2.101  0.00  0.00    -0.266 OA
ENDROOT
BRANCH   4   9
ATOM      9  C   UNL     1       3.365  -1.628  -7.145  0.00  0.00    +0.171 A 
ATOM     10  C   UNL     1       2.918  -1.875  -8.409  0.00  0.00    +0.061 A 
ATOM     11  C   UNL     1       3.429  -3.142  -8.786  0.00  0.00    +0.021 A 
ATOM     12  C   UNL     1       3.322  -3.924  -9.941  0.00  0.00    +0.011 A 
ATOM     13  C   UNL     1       3.950  -5.135 -10.000  0.00  0.00    +0.001 A 
ATOM     14  C   UNL     1       4.694  -5.597  -8.922  0.00  0.00    +0.004 A 
ATOM     15  C   UNL     1       4.812  -4.842  -7.774  0.00  0.00    +0.047 A 
ATOM     16  C   UNL     1       4.183  -3.606  -7.691  0.00  0.00    +0.136 A 
ATOM     17  O   UNL     1       4.123  -2.665  -6.727  0.00  0.00    -0.452 OA
ENDBRANCH   4   9
BRANCH   2  18
ATOM     18  C   UNL     1       1.377   1.519  -4.574  0.00  0.00    +0.013 A 
ATOM     19  C   UNL     1       0.047   1.249  -4.311  0.00  0.00    +0.008 A 
ATOM     20  C   UNL     1      -0.937   2.100  -4.778  0.00  0.00    +0.001 A 
ATOM     21  C   UNL     1      -0.592   3.223  -5.507  0.00  0.00    +0.003 A 
ATOM     22  C   UNL     1       0.736   3.496  -5.770  0.00  0.00    +0.039 A 
ATOM     23  C   UNL     1       1.723   2.646  -5.299  0.00  0.00    +0.129 A 
ATOM     24  F   UNL     1       3.023   2.915  -5.551  0.00  0.00    -0.205 F 
ENDBRANCH   2  18
BRANCH   4  25
ATOM     25  O   UNL     1       3.202   0.795  -6.932  0.00  0.00    -0.503 OA
ATOM     26  H   UNL     1       3.502   0.692  -7.880  0.00  0.00    +0.292 HD
ENDBRANCH   4  25
BRANCH   1  27
ATOM     27  C   UNL     1       1.701   0.695  -1.570  0.00  0.00    +0.090 C 
BRANCH  27  28
ATOM     28  C   UNL     1       2.984   0.945  -0.776  0.00  0.00    -0.060 C 
BRANCH  28  29
ATOM     29  N   UNL     1       2.640   1.670   0.466  0.00  0.00    +0.380 N 
ATOM     30  H   UNL     1       1.821   1.224   0.896  0.00  0.00    -0.082 HD
BRANCH  29  32
ATOM     31  C   UNL     1       3.870   0.193   1.977  0.00  0.00    -0.017 C 
ATOM     32  C   UNL     1       3.772   1.612   1.415  0.00  0.00    -0.082 C 
ENDBRANCH  29  32
BRANCH  29  33
ATOM     33  C   UNL     1       2.313   3.077   0.154  0.00  0.00    -0.082 C 
ATOM     34  C   UNL     1       1.748   3.742   1.411  0.00  0.00    -0.017 C 
ENDBRANCH  29  33
ENDBRANCH  28  29
ENDBRANCH  27  28
ENDBRANCH   1  27
TORSDOF 8
