REMARK  Name = ZINC38779270
REMARK  7 active torsions:
REMARK  status: ('A' for Active; 'I' for Inactive)
REMARK    1  A    between atoms: C_4  and  C_7
REMARK    2  A    between atoms: C_7  and  N_8
REMARK    3  A    between atoms: C_12  and  S_15
REMARK    4  A    between atoms: S_15  and  C_16
REMARK    5  A    between atoms: C_16  and  C_18
REMARK    6  A    between atoms: C_16  and  C_24
REMARK    7  A    between atoms: C_24  and  C_26
REMARK                            x       y       z     vdW  Elec       q    Type
REMARK                         _______ _______ _______ _____ _____    ______ ____
ROOT
ATOM      1  C   UNL     1       6.005  -5.255   2.538  0.00  0.00    +0.150 C 
ENDROOT
BRANCH   1   2
ATOM      2  C   UNL     1       4.944  -4.572   3.361  0.00  0.00    -0.027 A 
ATOM      3  C   UNL     1       4.965  -4.674   4.739  0.00  0.00    +0.005 A 
ATOM      4  C   UNL     1       3.992  -4.047   5.494  0.00  0.00    +0.000 A 
ATOM      5  C   UNL     1       2.997  -3.317   4.871  0.00  0.00    +0.000 A 
ATOM      6  C   UNL     1       2.977  -3.213   3.493  0.00  0.00    +0.000 A 
ATOM      7  C   UNL     1       3.953  -3.837   2.738  0.00  0.00    +0.005 A 
ENDBRANCH   1   2
BRANCH   1   8
ATOM      8  C   UNL     1       5.955  -6.741   2.788  0.00  0.00    +0.179 C 
ATOM      9  O   UNL     1       6.686  -7.242   3.618  0.00  0.00    -0.291 OA
BRANCH   8  10
ATOM     10  C   UNL     1       5.059  -7.549   2.057  0.00  0.00    +0.024 C 
ATOM     11  C   UNL     1       4.886  -8.917   2.169  0.00  0.00    +0.006 A 
ATOM     12  C   UNL     1       5.494  -9.901   2.983  0.00  0.00    +0.010 A 
ATOM     13  C   UNL     1       5.122 -11.197   2.879  0.00  0.00    +0.001 A 
ATOM     14  C   UNL     1       4.134 -11.628   1.979  0.00  0.00    +0.002 A 
ATOM     15  C   UNL     1       3.493 -10.769   1.157  0.00  0.00    +0.026 A 
ATOM     16  C   UNL     1       3.838  -9.339   1.206  0.00  0.00    +0.043 A 
ATOM     17  N   UNL     1       3.389  -8.312   0.542  0.00  0.00    -0.380 N 
ATOM     18  C   UNL     1       4.082  -7.101   0.993  0.00  0.00    +0.152 C 
ATOM     19  H   UNL     1       2.701  -8.344  -0.141  0.00  0.00    +0.160 HD
ENDBRANCH   8  10
ENDBRANCH   1   8
BRANCH   1  20
ATOM     20  S   UNL     1       7.638  -4.618   3.006  0.00  0.00    -0.110 S 
BRANCH  20  25
ATOM     21  N   UNL     1       4.152  -0.952   1.338  0.00  0.00    -0.318 N 
ATOM     22  C   UNL     1       5.346  -1.620   1.576  0.00  0.00    +0.174 C 
ATOM     23  N   UNL     1       6.188  -2.086   0.706  0.00  0.00    -0.163 NA
ATOM     24  N   UNL     1       7.351  -2.736   1.053  0.00  0.00    -0.244 N 
ATOM     25  C   UNL     1       7.587  -2.874   2.508  0.00  0.00    +0.212 C 
ATOM     26  S   UNL     1       6.082  -2.031   3.150  0.00  0.00    -0.054 S 
ATOM     27  H   UNL     1       3.610  -0.648   2.082  0.00  0.00    +0.148 HD
ATOM     28  H   UNL     1       7.972  -3.079   0.392  0.00  0.00    +0.170 HD
BRANCH  21  29
ATOM     29  C   UNL     1       3.711  -0.707  -0.038  0.00  0.00    +0.138 C 
BRANCH  29  33
ATOM     30  C   UNL     1      -0.017   1.378   0.010  0.00  0.00    +0.000 A 
ATOM     31  C   UNL     1       1.171   2.086   0.002  0.00  0.00    +0.000 A 
ATOM     32  C   UNL     1       2.377   1.411  -0.013  0.00  0.00    +0.005 A 
ATOM     33  C   UNL     1       2.396   0.029  -0.020  0.00  0.00    -0.030 A 
ATOM     34  C   UNL     1       1.208  -0.679  -0.012  0.00  0.00    +0.005 A 
ATOM     35  C   UNL     1       0.002  -0.004   0.002  0.00  0.00    +0.000 A 
ENDBRANCH  29  33
ENDBRANCH  21  29
ENDBRANCH  20  25
ENDBRANCH   1  20
TORSDOF 7
