REMARK  Name = ZINC08964566
REMARK  12 active torsions:
REMARK  status: ('A' for Active; 'I' for Inactive)
REMARK    1  A    between atoms: C_1  and  C_2
REMARK    2  A    between atoms: C_2  and  C_44
REMARK    3  A    between atoms: C_4  and  C_9
REMARK    4  A    between atoms: C_9  and  C_11
REMARK    5  A    between atoms: C_9  and  N_14
REMARK    6  A    between atoms: C_11  and  C_12
REMARK    7  A    between atoms: C_15  and  C_17
REMARK    8  A    between atoms: C_17  and  O_18
REMARK    9  A    between atoms: O_18  and  N_19
REMARK   10  A    between atoms: C_23  and  C_43
REMARK   11  A    between atoms: C_28  and  C_42
REMARK   12  A    between atoms: C_39  and  O_41
REMARK                            x       y       z     vdW  Elec       q    Type
REMARK                         _______ _______ _______ _____ _____    ______ ____
ROOT
ATOM      1  N   UNL     1      -4.082   4.501  -2.194  0.00  0.00    -0.089 NA
ATOM      2  C   UNL     1      -2.992   3.879  -1.852  0.00  0.00    +0.080 C 
ATOM      3  C   UNL     1      -3.036   2.537  -1.154  0.00  0.00    +0.059 C 
ATOM      4  C   UNL     1      -1.999   1.611  -1.774  0.00  0.00    +0.017 C 
ATOM      5  C   UNL     1      -0.618   2.215  -1.861  0.00  0.00    -0.007 C 
ATOM      6  C   UNL     1       0.275   1.807  -0.696  0.00  0.00    +0.002 C 
ATOM      7  C   UNL     1      -0.342   2.293   0.621  0.00  0.00    +0.005 C 
ATOM      8  C   UNL     1       0.486   1.744   1.778  0.00  0.00    +0.010 C 
ATOM      9  C   UNL     1       1.938   2.157   1.697  0.00  0.00    -0.003 C 
ATOM     10  C   UNL     1       2.570   1.965   0.315  0.00  0.00    +0.001 C 
ATOM     11  C   UNL     1       1.668   2.417  -0.832  0.00  0.00    -0.003 C 
ATOM     12  C   UNL     1       1.602   3.937  -0.919  0.00  0.00    +0.008 C 
ATOM     13  C   UNL     1       0.782   4.363  -2.146  0.00  0.00    +0.031 C 
ATOM     14  C   UNL     1      -0.580   3.700  -2.039  0.00  0.00    -0.062 C 
ATOM     15  C   UNL     1      -1.663   4.456  -2.127  0.00  0.00    +0.026 C 
ATOM     16  C   UNL     1       3.805   2.902   0.354  0.00  0.00    +0.007 C 
ATOM     17  C   UNL     1       3.411   4.071   1.277  0.00  0.00    +0.032 C 
ATOM     18  C   UNL     1       2.161   3.630   2.060  0.00  0.00    +0.121 C 
ATOM     19  C   UNL     1       2.720   1.300   2.708  0.00  0.00    +0.014 C 
ATOM     20  C   UNL     1       0.000   1.611  -3.127  0.00  0.00    +0.016 C 
ENDROOT
BRANCH  18  21
ATOM     21  O   UNL     1       2.395   3.756   3.466  0.00  0.00    -0.391 OA
ATOM     22  H   UNL     1       2.544   4.665   3.761  0.00  0.00    +0.210 HD
ENDBRANCH  18  21
BRANCH   1  23
ATOM     23  O   UNL     1      -5.344   3.922  -1.916  0.00  0.00    -0.384 OA
BRANCH  23  24
ATOM     24  C   UNL     1      -6.453   4.713  -2.346  0.00  0.00    +0.358 C 
BRANCH  24  26
ATOM     25  N   UNL     1      -8.922   4.567  -2.314  0.00  0.00    -0.309 N 
ATOM     26  C   UNL     1      -7.738   4.005  -2.002  0.00  0.00    +0.254 C 
ATOM     27  O   UNL     1      -7.707   2.928  -1.443  0.00  0.00    -0.272 OA
ATOM     28  H   UNL     1      -8.950   5.460  -2.692  0.00  0.00    +0.149 HD
BRANCH  25  29
ATOM     29  C   UNL     1     -10.167   3.830  -2.084  0.00  0.00    +0.087 C 
BRANCH  29  33
ATOM     30  C   UNL     1      -9.620   1.364  -6.397  0.00  0.00    +0.041 C 
ATOM     31  C   UNL     1     -10.542   2.275  -5.585  0.00  0.00    +0.064 C 
ATOM     32  C   UNL     1      -9.920   2.538  -4.212  0.00  0.00    +0.040 C 
ATOM     33  C   UNL     1     -10.820   3.499  -3.428  0.00  0.00    +0.015 C 
ATOM     34  C   UNL     1     -11.004   4.785  -4.239  0.00  0.00    +0.033 C 
ATOM     35  C   UNL     1     -11.585   4.435  -5.611  0.00  0.00    +0.161 C 
ATOM     36  O   UNL     1     -10.715   3.515  -6.274  0.00  0.00    -0.374 OA
ATOM     37  C   UNL     1     -11.902   1.597  -5.408  0.00  0.00    +0.041 C 
ENDBRANCH  29  33
BRANCH  29  38
ATOM     38  C   UNL     1     -11.122   4.688  -1.251  0.00  0.00    +0.147 C 
BRANCH  38  39
ATOM     39  C   UNL     1     -10.540   4.895   0.124  0.00  0.00    +0.358 C 
ATOM     40  O   UNL     1      -9.525   4.323   0.443  0.00  0.00    -0.246 OA
ATOM     41  O   UNL     1     -11.150   5.716   0.993  0.00  0.00    -0.246 OA
ENDBRANCH  38  39
ENDBRANCH  29  38
ENDBRANCH  25  29
ENDBRANCH  24  26
ENDBRANCH  23  24
ENDBRANCH   1  23
TORSDOF 8
