REMARK  Name = ZINC43276726
REMARK  12 active torsions:
REMARK  status: ('A' for Active; 'I' for Inactive)
REMARK    1  A    between atoms: C_1  and  C_2
REMARK    2  A    between atoms: C_2  and  C_3
REMARK    3  A    between atoms: C_2  and  C_4
REMARK    4  A    between atoms: C_4  and  C_5
REMARK    5  A    between atoms: C_4  and  S_12
REMARK    6  A    between atoms: N_7  and  C_8
REMARK    7  A    between atoms: C_8  and  C_9
REMARK    8  A    between atoms: C_8  and  C_10
REMARK    9  A    between atoms: C_8  and  C_11
REMARK   10  A    between atoms: S_12  and  C_13
REMARK   11  A    between atoms: C_16  and  C_19
REMARK   12  A    between atoms: N_17  and  N_18
REMARK                            x       y       z     vdW  Elec       q    Type
REMARK                         _______ _______ _______ _____ _____    ______ ____
ROOT
ATOM      1  C   UNL     1      -0.695  -2.756  -1.556  0.00  0.00    +0.209 A 
ATOM      2  N   UNL     1      -0.282  -1.907  -2.470  0.00  0.00    -0.121 NA
ATOM      3  N   UNL     1       0.185  -2.543  -3.484  0.00  0.00    -0.127 NA
ATOM      4  C   UNL     1       0.099  -3.837  -3.280  0.00  0.00    +0.182 A 
ATOM      5  N   UNL     1      -0.463  -4.013  -2.036  0.00  0.00    -0.224 N 
ENDROOT
BRANCH   4   6
ATOM      6  C   UNL     1       0.529  -4.904  -4.208  0.00  0.00    +0.021 A 
ATOM      7  C   UNL     1       0.098  -6.217  -4.014  0.00  0.00    +0.014 A 
ATOM      8  C   UNL     1       0.502  -7.208  -4.884  0.00  0.00    +0.039 A 
ATOM      9  C   UNL     1       1.335  -6.903  -5.949  0.00  0.00    +0.123 A 
ATOM     10  C   UNL     1       1.766  -5.601  -6.146  0.00  0.00    +0.039 A 
ATOM     11  C   UNL     1       1.363  -4.601  -5.285  0.00  0.00    +0.014 A 
ATOM     12  F   UNL     1       1.728  -7.878  -6.797  0.00  0.00    -0.205 F 
ENDBRANCH   4   6
BRANCH   5  13
ATOM     13  N   UNL     1      -0.733  -5.198  -1.413  0.00  0.00    -0.295 N 
ATOM     14  H   UNL     1      -1.662  -5.521  -1.638  0.00  0.00    +0.163 HD
ATOM     15  H   UNL     1      -0.042  -5.895  -1.645  0.00  0.00    +0.163 HD
ENDBRANCH   5  13
BRANCH   1  16
ATOM     16  S   UNL     1      -1.409  -2.348   0.003  0.00  0.00    -0.071 S 
BRANCH  16  17
ATOM     17  C   UNL     1      -1.433  -0.534   0.013  0.00  0.00    +0.143 C 
BRANCH  17  18
ATOM     18  C   UNL     1      -2.139  -0.048   1.253  0.00  0.00    +0.227 C 
ATOM     19  O   UNL     1      -2.180  -0.749   2.241  0.00  0.00    -0.275 OA
ATOM     20  N   UNL     1      -2.724   1.167   1.263  0.00  0.00    -0.310 N 
ATOM     21  H   UNL     1      -2.691   1.727   0.472  0.00  0.00    +0.149 HD
BRANCH  20  22
ATOM     22  C   UNL     1      -3.409   1.639   2.468  0.00  0.00    +0.026 C 
ATOM     23  C   UNL     1      -2.416   1.698   3.631  0.00  0.00    +0.031 C 
ATOM     24  C   UNL     1      -3.981   3.035   2.216  0.00  0.00    +0.031 C 
ATOM     25  C   UNL     1      -4.547   0.677   2.818  0.00  0.00    +0.031 C 
ENDBRANCH  20  22
ENDBRANCH  17  18
BRANCH  17  27
ATOM     26  C   UNL     1      -0.019   1.526   0.010  0.00  0.00    +0.009 C 
ATOM     27  C   UNL     1       0.002  -0.004   0.002  0.00  0.00    +0.005 C 
ATOM     28  C   UNL     1       0.742  -0.511   1.242  0.00  0.00    +0.009 C 
ENDBRANCH  17  27
ENDBRANCH  16  17
ENDBRANCH   1  16
TORSDOF 7
