REMARK  Name = ZINC02710597
REMARK  6 active torsions:
REMARK  status: ('A' for Active; 'I' for Inactive)
REMARK    1  A    between atoms: C_1  and  C_2
REMARK    2  A    between atoms: C_2  and  O_3
REMARK    3  A    between atoms: O_3  and  C_4
REMARK    4  A    between atoms: C_4  and  C_6
REMARK    5  A    between atoms: C_12  and  C_13
REMARK    6  A    between atoms: C_12  and  N_42
REMARK                            x       y       z     vdW  Elec       q    Type
REMARK                         _______ _______ _______ _____ _____    ______ ____
ROOT
ATOM      1  C   UNL     1      -0.002   1.212  -7.258  0.00  0.00    -0.020 C 
ENDROOT
BRANCH   1   2
ATOM      2  C   UNL     1      -0.823   1.447  -8.500  0.00  0.00    +0.058 A 
ATOM      3  C   UNL     1      -1.637   0.543  -9.089  0.00  0.00    +0.111 A 
ATOM      4  N   UNL     1      -2.193   1.152 -10.181  0.00  0.00    -0.292 N 
ATOM      5  C   UNL     1      -3.078   0.722 -11.128  0.00  0.00    +0.113 A 
ATOM      6  C   UNL     1      -3.469   1.542 -12.127  0.00  0.00    +0.058 A 
ATOM      7  C   UNL     1      -2.967   2.853 -12.204  0.00  0.00    +0.025 A 
ATOM      8  C   UNL     1      -2.085   3.294 -11.268  0.00  0.00    +0.048 A 
ATOM      9  C   UNL     1      -1.688   2.426 -10.231  0.00  0.00    +0.139 A 
ATOM     10  N   UNL     1      -0.862   2.580  -9.206  0.00  0.00    -0.233 NA
ATOM     11 CL   UNL     1      -4.595   0.975 -13.320  0.00  0.00    -0.082 Cl
ATOM     12 BR   UNL     1      -1.953  -1.229  -8.510  0.00  0.00    -0.028 Br
ENDBRANCH   1   2
BRANCH   1  18
ATOM     13  C   UNL     1      -0.887   1.682  -3.629  0.00  0.00    +0.081 C 
ATOM     14  C   UNL     1      -2.321   1.148  -3.667  0.00  0.00    +0.011 C 
ATOM     15  C   UNL     1      -2.980   1.571  -4.983  0.00  0.00    -0.018 C 
ATOM     16  C   UNL     1      -2.150   1.045  -6.156  0.00  0.00    -0.078 C 
ATOM     17  C   UNL     1      -0.118   1.152  -4.841  0.00  0.00    -0.064 C 
ATOM     18  N   UNL     1      -0.789   1.615  -6.074  0.00  0.00    +0.384 N 
ATOM     19  H   UNL     1      -0.857   2.639  -6.052  0.00  0.00    -0.081 HD
BRANCH  13  20
ATOM     20  C   UNL     1      -0.211   1.220  -2.363  0.00  0.00    +0.308 C 
ATOM     21  O   UNL     1       0.783   0.536  -2.424  0.00  0.00    -0.251 OA
BRANCH  20  22
ATOM     22  O   UNL     1      -0.715   1.567  -1.168  0.00  0.00    -0.465 OA
BRANCH  22  24
ATOM     23  C   UNL     1      -0.729   1.579   1.267  0.00  0.00    +0.048 C 
ATOM     24  C   UNL     1      -0.013   1.086   0.008  0.00  0.00    +0.229 C 
ENDBRANCH  22  24
ENDBRANCH  20  22
ENDBRANCH  13  20
ENDBRANCH   1  18
TORSDOF 5
