REMARK  Name = ZINC17156788
REMARK  7 active torsions:
REMARK  status: ('A' for Active; 'I' for Inactive)
REMARK    1  A    between atoms: C_1  and  C_2
REMARK    2  A    between atoms: C_2  and  C_4
REMARK    3  A    between atoms: C_2  and  N_12
REMARK    4  A    between atoms: C_4  and  C_5
REMARK    5  A    between atoms: C_5  and  C_6
REMARK    6  A    between atoms: C_13  and  C_15
REMARK    7  A    between atoms: C_15  and  C_16
REMARK                            x       y       z     vdW  Elec       q    Type
REMARK                         _______ _______ _______ _____ _____    ______ ____
ROOT
ATOM      1  N   UNL     1       4.077  -1.275  -0.901  0.00  0.00    -0.313 N 
ATOM      2  C   UNL     1       5.126  -1.916  -0.348  0.00  0.00    +0.215 C 
ATOM      3  O   UNL     1       6.218  -1.389  -0.329  0.00  0.00    -0.276 OA
ATOM      4  H   UNL     1       3.087  -1.753  -0.918  0.00  0.00    +0.149 HD
ENDROOT
BRANCH   1   6
ATOM      5  C   UNL     1       4.750  -0.073  -2.922  0.00  0.00    +0.028 C 
ATOM      6  C   UNL     1       4.257   0.059  -1.480  0.00  0.00    +0.070 C 
BRANCH   6   7
ATOM      7  C   UNL     1       2.922   0.806  -1.464  0.00  0.00    +0.026 C 
BRANCH   7   8
ATOM      8  C   UNL     1       2.490   1.048  -0.016  0.00  0.00    +0.037 C 
BRANCH   8   9
ATOM      9  C   UNL     1       1.175   1.783   0.000  0.00  0.00    -0.047 A 
ATOM     10  C   UNL     1      -0.013   1.076   0.008  0.00  0.00    +0.003 A 
ATOM     11  C   UNL     1      -1.219   1.751   0.017  0.00  0.00    +0.000 A 
ATOM     12  C   UNL     1      -1.238   3.133   0.029  0.00  0.00    +0.000 A 
ATOM     13  C   UNL     1      -0.050   3.840   0.022  0.00  0.00    +0.000 A 
ATOM     14  C   UNL     1       1.156   3.165   0.008  0.00  0.00    +0.003 A 
ENDBRANCH   8   9
ENDBRANCH   7   8
ENDBRANCH   6   7
ENDBRANCH   1   6
BRANCH   2  15
ATOM     15  C   UNL     1       4.941  -3.288   0.248  0.00  0.00    +0.119 C 
BRANCH  15  16
ATOM     16  C   UNL     1       6.276  -3.786   0.804  0.00  0.00    +0.146 C 
ATOM     17  C   UNL     1       6.119  -5.196   1.312  0.00  0.00    +0.231 C 
ATOM     18  O   UNL     1       6.466  -6.110   0.595  0.00  0.00    -0.274 OA
ATOM     19  N   UNL     1       5.617  -5.486   2.509  0.00  0.00    -0.284 N 
ATOM     20  C   UNL     1       5.276  -4.580   3.508  0.00  0.00    +0.047 A 
ATOM     21  C   UNL     1       4.446  -4.995   4.546  0.00  0.00    +0.024 A 
ATOM     22  C   UNL     1       4.077  -4.110   5.538  0.00  0.00    +0.002 A 
ATOM     23  C   UNL     1       4.527  -2.803   5.515  0.00  0.00    +0.001 A 
ATOM     24  C   UNL     1       5.355  -2.377   4.493  0.00  0.00    +0.016 A 
ATOM     25  C   UNL     1       5.730  -3.262   3.495  0.00  0.00    +0.030 A 
ATOM     26  S   UNL     1       6.794  -2.728   2.191  0.00  0.00    -0.110 S 
ATOM     27  H   UNL     1       5.434  -6.534   2.788  0.00  0.00    +0.155 HD
ENDBRANCH  15  16
ENDBRANCH   2  15
TORSDOF 6
