REMARK  Name = ZINC08635611
REMARK  6 active torsions:
REMARK  status: ('A' for Active; 'I' for Inactive)
REMARK    1  A    between atoms: C_16  and  C_17
REMARK    2  A    between atoms: C_16  and  N_67
REMARK    3  A    between atoms: C_25  and  C_27
REMARK    4  A    between atoms: C_27  and  N_28
REMARK    5  A    between atoms: N_28  and  S_29
REMARK    6  A    between atoms: S_29  and  C_32
REMARK                            x       y       z     vdW  Elec       q    Type
REMARK                         _______ _______ _______ _____ _____    ______ ____
ROOT
ATOM      1  C   UNL     1       1.354   2.039   2.429  0.00  0.00    -0.041 C 
ATOM      2  C   UNL     1       1.051   3.537   2.528  0.00  0.00    -0.077 C 
ATOM      3  C   UNL     1       3.132   3.934   3.706  0.00  0.00    -0.078 C 
ATOM      4  C   UNL     1       3.494   2.448   3.637  0.00  0.00    -0.015 C 
ATOM      5  C   UNL     1       2.202   1.623   3.637  0.00  0.00    -0.015 C 
ATOM      6  C   UNL     1       1.419   1.941   4.917  0.00  0.00    -0.011 C 
ATOM      7  C   UNL     1       1.114   3.441   4.951  0.00  0.00    -0.053 C 
ATOM      8  N   UNL     1       1.664   4.106   3.750  0.00  0.00    +0.383 N 
ATOM      9  H   UNL     1       1.447   5.109   3.796  0.00  0.00    -0.081 HD
ENDROOT
BRANCH   1  10
ATOM     10  C   UNL     1       0.044   1.250   2.425  0.00  0.00    -0.077 C 
BRANCH  10  24
ATOM     11  C   UNL     1       0.030   5.271  -1.427  0.00  0.00    +0.007 A 
ATOM     12  C   UNL     1       0.069   3.881  -1.584  0.00  0.00    +0.022 A 
ATOM     13  C   UNL     1      -0.920   3.099  -1.074  0.00  0.00    +0.023 A 
ATOM     14  N   UNL     1      -1.987   3.656  -0.455  0.00  0.00    -0.312 N 
ATOM     15  C   UNL     1      -2.010   4.992  -0.223  0.00  0.00    +0.251 A 
ATOM     16  O   UNL     1      -2.916   5.474   0.438  0.00  0.00    -0.268 OA
ATOM     17  C   UNL     1      -1.006   5.826  -0.734  0.00  0.00    +0.070 A 
ATOM     18  C   UNL     1      -3.156   2.890  -0.023  0.00  0.00    +0.126 C 
ATOM     19  C   UNL     1      -2.881   1.397   0.043  0.00  0.00    -0.007 C 
ATOM     20  C   UNL     1      -2.160   0.956  -1.234  0.00  0.00    +0.011 C 
ATOM     21  C   UNL     1      -0.771   1.602  -1.226  0.00  0.00    +0.020 C 
ATOM     22  C   UNL     1      -0.013   1.086   0.008  0.00  0.00    -0.069 C 
ATOM     23  C   UNL     1      -2.069   1.035   1.276  0.00  0.00    -0.074 C 
ATOM     24  N   UNL     1      -0.716   1.599   1.205  0.00  0.00    +0.380 N 
ATOM     25  H   UNL     1      -0.786   2.621   1.137  0.00  0.00    -0.082 HD
ENDBRANCH  10  24
ENDBRANCH   1  10
BRANCH   7  26
ATOM     26  C   UNL     1      -0.400   3.654   4.988  0.00  0.00    +0.090 C 
BRANCH  26  27
ATOM     27  N   UNL     1      -0.694   5.087   4.897  0.00  0.00    -0.191 NA
ATOM     28  H   UNL     1       0.011   5.737   5.045  0.00  0.00    +0.148 HD
BRANCH  27  29
ATOM     29  S   UNL     1      -2.229   5.596   4.541  0.00  0.00    +0.058 S 
ATOM     30  O   UNL     1      -2.198   7.017   4.552  0.00  0.00    -0.153 OA
ATOM     31  O   UNL     1      -2.651   4.852   3.407  0.00  0.00    -0.153 OA
BRANCH  29  32
ATOM     32  C   UNL     1      -3.264   5.105   5.880  0.00  0.00    +0.105 A 
ATOM     33  C   UNL     1      -3.893   3.874   5.852  0.00  0.00    +0.030 A 
ATOM     34  C   UNL     1      -4.700   3.486   6.904  0.00  0.00    +0.022 A 
ATOM     35  C   UNL     1      -4.889   4.335   7.981  0.00  0.00    +0.041 A 
ATOM     36  C   UNL     1      -4.264   5.569   8.005  0.00  0.00    +0.022 A 
ATOM     37  C   UNL     1      -3.452   5.954   6.955  0.00  0.00    +0.030 A 
ATOM     38 CL   UNL     1      -5.908   3.851   9.300  0.00  0.00    -0.084 Cl
ENDBRANCH  29  32
ENDBRANCH  27  29
ENDBRANCH  26  27
ENDBRANCH   7  26
TORSDOF 6
