REMARK  Name = ZINC08995317
REMARK  14 active torsions:
REMARK  status: ('A' for Active; 'I' for Inactive)
REMARK    1  A    between atoms: C_1  and  C_2
REMARK    2  A    between atoms: C_5  and  C_8
REMARK    3  A    between atoms: C_8  and  C_10
REMARK    4  A    between atoms: C_8  and  N_17
REMARK    5  A    between atoms: N_12  and  C_13
REMARK    6  A    between atoms: C_13  and  C_14
REMARK    7  A    between atoms: C_13  and  C_15
REMARK    8  A    between atoms: C_13  and  C_16
REMARK    9  A    between atoms: N_17  and  C_18
REMARK   10  A    between atoms: C_18  and  C_19
REMARK   11  A    between atoms: C_24  and  C_26
REMARK   12  A    between atoms: C_26  and  C_27
REMARK   13  A    between atoms: C_27  and  C_28
REMARK   14  A    between atoms: C_33  and  C_37
REMARK                            x       y       z     vdW  Elec       q    Type
REMARK                         _______ _______ _______ _____ _____    ______ ____
ROOT
ATOM      1  N   UNL     1       2.026   4.967   1.096  0.00  0.00    -0.279 N 
ATOM      2  C   UNL     1       0.886   5.439   1.638  0.00  0.00    +0.217 C 
ATOM      3  O   UNL     1       0.524   5.044   2.727  0.00  0.00    -0.276 OA
ENDROOT
BRANCH   1   4
ATOM      4  C   UNL     1       2.828   3.978   1.820  0.00  0.00    +0.193 C 
BRANCH   4   9
ATOM      5  C   UNL     1      -0.364  -0.736   2.810  0.00  0.00    +0.044 C 
ATOM      6  C   UNL     1       0.469   0.493   2.552  0.00  0.00    -0.050 A 
ATOM      7  C   UNL     1       1.246   1.027   3.563  0.00  0.00    +0.004 A 
ATOM      8  C   UNL     1       2.009   2.155   3.326  0.00  0.00    +0.006 A 
ATOM      9  C   UNL     1       1.996   2.749   2.078  0.00  0.00    -0.018 A 
ATOM     10  C   UNL     1       1.215   2.218   1.069  0.00  0.00    +0.006 A 
ATOM     11  C   UNL     1       0.456   1.087   1.304  0.00  0.00    +0.004 A 
ENDBRANCH   4   9
BRANCH   4  12
ATOM     12  C   UNL     1       4.032   3.606   0.995  0.00  0.00    +0.238 C 
ATOM     13  O   UNL     1       3.891   3.234  -0.151  0.00  0.00    -0.273 OA
ATOM     14  N   UNL     1       5.267   3.687   1.530  0.00  0.00    -0.309 N 
ATOM     15  H   UNL     1       5.380   3.984   2.446  0.00  0.00    +0.149 HD
BRANCH  14  16
ATOM     16  C   UNL     1       6.438   3.324   0.727  0.00  0.00    +0.026 C 
ATOM     17  C   UNL     1       6.510   4.227  -0.506  0.00  0.00    +0.031 C 
ATOM     18  C   UNL     1       7.706   3.504   1.565  0.00  0.00    +0.031 C 
ATOM     19  C   UNL     1       6.321   1.864   0.284  0.00  0.00    +0.031 C 
ENDBRANCH  14  16
ENDBRANCH   4  12
ENDBRANCH   1   4
BRANCH   1  20
ATOM     20  C   UNL     1       2.463   5.444  -0.219  0.00  0.00    +0.183 C 
BRANCH  20  21
ATOM     21  C   UNL     1       1.747   4.672  -1.297  0.00  0.00    +0.122 A 
ATOM     22  C   UNL     1       0.582   5.021  -1.872  0.00  0.00    +0.046 A 
ATOM     23  C   UNL     1       0.279   4.020  -2.824  0.00  0.00    +0.041 A 
ATOM     24  C   UNL     1       1.277   3.120  -2.773  0.00  0.00    +0.195 A 
ATOM     25  O   UNL     1       2.163   3.520  -1.847  0.00  0.00    -0.466 OA
ENDBRANCH  20  21
ENDBRANCH   1  20
BRANCH   2  26
ATOM     26  C   UNL     1       0.061   6.456   0.893  0.00  0.00    +0.105 C 
BRANCH  26  27
ATOM     27  C   UNL     1      -1.171   6.821   1.723  0.00  0.00    +0.105 C 
BRANCH  27  28
ATOM     28  C   UNL     1      -1.996   7.838   0.978  0.00  0.00    +0.219 C 
ATOM     29  O   UNL     1      -1.634   8.232  -0.111  0.00  0.00    -0.275 OA
ATOM     30  N   UNL     1      -3.136   8.309   1.520  0.00  0.00    -0.270 N 
ATOM     31  C   UNL     1      -3.957   9.163   0.785  0.00  0.00    +0.125 A 
ATOM     32  C   UNL     1      -5.063   9.748   1.392  0.00  0.00    +0.047 A 
ATOM     33  C   UNL     1      -5.867  10.596   0.652  0.00  0.00    -0.046 A 
ATOM     34  C   UNL     1      -5.542  10.824  -0.679  0.00  0.00    +0.023 A 
ATOM     35  C   UNL     1      -4.432  10.205  -1.218  0.00  0.00    +0.113 A 
ATOM     36  N   UNL     1      -3.680   9.405  -0.487  0.00  0.00    -0.240 NA
ATOM     37  C   UNL     1      -7.071  11.255   1.274  0.00  0.00    +0.044 C 
ATOM     38  H   UNL     1      -3.385   8.055   2.422  0.00  0.00    +0.156 HD
ENDBRANCH  27  28
ENDBRANCH  26  27
ENDBRANCH   2  26
TORSDOF 9
