REMARK  Name = ZINC36309324
REMARK  15 active torsions:
REMARK  status: ('A' for Active; 'I' for Inactive)
REMARK    1  A    between atoms: C_1  and  O_2
REMARK    2  A    between atoms: O_2  and  C_3
REMARK    3  A    between atoms: C_8  and  O_9
REMARK    4  A    between atoms: O_9  and  C_10
REMARK    5  A    between atoms: C_10  and  C_11
REMARK    6  A    between atoms: C_21  and  C_23
REMARK    7  A    between atoms: C_23  and  N_24
REMARK    8  A    between atoms: N_24  and  C_25
REMARK    9  A    between atoms: N_24  and  C_34
REMARK   10  A    between atoms: C_25  and  C_26
REMARK   11  A    between atoms: C_26  and  C_28
REMARK   12  A    between atoms: C_26  and  O_33
REMARK   13  A    between atoms: C_28  and  O_29
REMARK   14  A    between atoms: O_29  and  C_30
REMARK   15  A    between atoms: C_30  and  C_31
REMARK                            x       y       z     vdW  Elec       q    Type
REMARK                         _______ _______ _______ _____ _____    ______ ____
ROOT
ATOM      1  C   UNL     1       1.068  -4.920  -0.035  0.00  0.00    +0.144 C 
ATOM      2  C   UNL     1       1.915  -4.372  -1.182  0.00  0.00    -0.014 A 
ATOM      3  C   UNL     1       1.747  -4.763  -2.509  0.00  0.00    +0.013 A 
ATOM      4  C   UNL     1       2.532  -4.233  -3.475  0.00  0.00    +0.046 A 
ATOM      5  S   UNL     1       3.574  -3.127  -2.536  0.00  0.00    -0.101 S 
ATOM      6  C   UNL     1       2.890  -3.456  -0.933  0.00  0.00    -0.004 A 
ATOM      7  C   UNL     1       3.288  -2.873   0.384  0.00  0.00    +0.061 C 
ATOM      8  C   UNL     1       2.170  -3.148   1.402  0.00  0.00    +0.113 C 
ATOM      9  N   UNL     1       1.716  -4.537   1.227  0.00  0.00    -0.292 N 
ATOM     10  C   UNL     1       1.892  -5.444   2.208  0.00  0.00    +0.200 C 
ATOM     11  O   UNL     1       1.515  -6.586   2.053  0.00  0.00    -0.278 OA
ENDROOT
BRANCH   1  12
ATOM     12  C   UNL     1      -0.339  -4.322  -0.098  0.00  0.00    +0.256 C 
BRANCH  12  13
ATOM     13  O   UNL     1      -0.249  -2.896  -0.123  0.00  0.00    -0.486 OA
BRANCH  13  19
ATOM     14  C   UNL     1      -1.406  -0.813  -0.206  0.00  0.00    +0.161 A 
ATOM     15  C   UNL     1      -2.600  -0.113  -0.269  0.00  0.00    +0.049 A 
ATOM     16  C   UNL     1      -3.801  -0.797  -0.299  0.00  0.00    +0.004 A 
ATOM     17  C   UNL     1      -3.814  -2.179  -0.266  0.00  0.00    +0.004 A 
ATOM     18  C   UNL     1      -2.626  -2.884  -0.203  0.00  0.00    +0.049 A 
ATOM     19  C   UNL     1      -1.419  -2.204  -0.179  0.00  0.00    +0.162 A 
BRANCH  14  21
ATOM     20  C   UNL     1      -0.286   1.285  -0.207  0.00  0.00    +0.277 C 
ATOM     21  O   UNL     1      -0.223  -0.142  -0.176  0.00  0.00    -0.491 OA
ENDBRANCH  14  21
ENDBRANCH  13  19
ENDBRANCH  12  13
ENDBRANCH   1  12
BRANCH  10  22
ATOM     22  C   UNL     1       2.559  -5.039   3.497  0.00  0.00    +0.019 C 
BRANCH  22  23
ATOM     23  N   UNL     1       2.762  -6.227   4.338  0.00  0.00    +0.389 N 
ATOM     24  H   UNL     1       1.886  -6.714   4.449  0.00  0.00    -0.081 HD
BRANCH  23  25
ATOM     25  C   UNL     1       3.264  -5.814   5.655  0.00  0.00    -0.068 C 
ATOM     26  C   UNL     1       2.460  -6.246   6.884  0.00  0.00    -0.017 C 
ATOM     27  C   UNL     1       2.443  -4.784   6.433  0.00  0.00    -0.017 C 
ENDBRANCH  23  25
BRANCH  23  28
ATOM     28  C   UNL     1       3.740  -7.117   3.698  0.00  0.00    -0.044 C 
BRANCH  28  29
ATOM     29  C   UNL     1       3.859  -8.410   4.508  0.00  0.00    +0.124 C 
BRANCH  29  30
ATOM     30  O   UNL     1       4.292  -8.102   5.835  0.00  0.00    -0.391 OA
ATOM     31  H   UNL     1       5.150  -7.659   5.876  0.00  0.00    +0.210 HD
ENDBRANCH  29  30
BRANCH  29  32
ATOM     32  C   UNL     1       4.877  -9.337   3.842  0.00  0.00    +0.190 C 
BRANCH  32  33
ATOM     33  O   UNL     1       4.904 -10.589   4.531  0.00  0.00    -0.365 OA
BRANCH  33  34
ATOM     34  C   UNL     1       5.828 -11.533   3.986  0.00  0.00    +0.248 C 
BRANCH  34  35
ATOM     35  C   UNL     1       5.773 -12.780   4.767  0.00  0.00    -0.077 C 
ATOM     36  C   UNL     1       5.730 -13.774   5.389  0.00  0.00    +0.006 C 
ENDBRANCH  34  35
ENDBRANCH  33  34
ENDBRANCH  32  33
ENDBRANCH  29  32
ENDBRANCH  28  29
ENDBRANCH  23  28
ENDBRANCH  22  23
ENDBRANCH  10  22
TORSDOF 14
