REMARK  Name = ZINC22291631
REMARK  9 active torsions:
REMARK  status: ('A' for Active; 'I' for Inactive)
REMARK    1  A    between atoms: C_1  and  C_2
REMARK    2  A    between atoms: N_5  and  C_8
REMARK    3  A    between atoms: C_8  and  C_9
REMARK    4  A    between atoms: C_15  and  C_17
REMARK    5  A    between atoms: C_17  and  C_19
REMARK    6  A    between atoms: C_17  and  N_23
REMARK    7  A    between atoms: C_19  and  C_20
REMARK    8  A    between atoms: C_20  and  C_21
REMARK    9  A    between atoms: C_20  and  C_22
REMARK                            x       y       z     vdW  Elec       q    Type
REMARK                         _______ _______ _______ _____ _____    ______ ____
ROOT
ATOM      1  C   UNL     1      -0.587  -5.290   3.423  0.00  0.00    +0.034 A 
ATOM      2  C   UNL     1      -1.178  -5.696   4.574  0.00  0.00    +0.070 A 
ATOM      3  S   UNL     1       0.253  -5.968   5.605  0.00  0.00    -0.060 S 
ATOM      4  C   UNL     1       1.433  -5.544   4.482  0.00  0.00    +0.165 A 
ATOM      5  N   UNL     1       0.732  -5.231   3.414  0.00  0.00    -0.231 NA
ATOM      6  N   UNL     1       2.814  -5.532   4.643  0.00  0.00    -0.263 N 
ATOM      7  C   UNL     1       3.358  -5.894   5.821  0.00  0.00    +0.240 C 
ATOM      8  O   UNL     1       2.644  -6.230   6.742  0.00  0.00    -0.273 OA
ATOM      9  H   UNL     1       3.385  -5.263   3.907  0.00  0.00    +0.157 HD
ENDROOT
BRANCH   1  10
ATOM     10  C   UNL     1      -1.399  -4.929   2.206  0.00  0.00    -0.022 C 
BRANCH  10  15
ATOM     11  C   UNL     1      -1.769   0.638   1.025  0.00  0.00    +0.007 C 
ATOM     12  C   UNL     1      -1.490  -0.863   0.933  0.00  0.00    -0.018 C 
ATOM     13  C   UNL     1      -2.803  -1.638   1.073  0.00  0.00    -0.016 C 
ATOM     14  C   UNL     1      -2.507  -3.139   1.059  0.00  0.00    -0.078 C 
ATOM     15  N   UNL     1      -1.618  -3.476   2.177  0.00  0.00    +0.383 N 
ATOM     16  C   UNL     1      -0.329  -2.793   2.011  0.00  0.00    -0.078 C 
ATOM     17  C   UNL     1      -0.541  -1.278   2.062  0.00  0.00    -0.016 C 
ATOM     18  H   UNL     1      -2.043  -3.185   3.044  0.00  0.00    -0.081 HD
ENDBRANCH  10  15
ENDBRANCH   1  10
BRANCH   7  19
ATOM     19  C   UNL     1       4.855  -5.881   5.995  0.00  0.00    +0.170 C 
BRANCH  19  20
ATOM     20  N   UNL     1       5.192  -6.312   7.354  0.00  0.00    -0.230 N 
ATOM     21  C   UNL     1       4.874  -7.527   7.840  0.00  0.00    +0.227 C 
ATOM     22  O   UNL     1       4.469  -8.474   7.201  0.00  0.00    -0.275 OA
ATOM     23  C   UNL     1       5.119  -7.489   9.358  0.00  0.00    +0.091 C 
ATOM     24  C   UNL     1       3.803  -6.985   9.955  0.00  0.00    +0.040 C 
ATOM     25  C   UNL     1       3.990  -6.126  11.157  0.00  0.00    -0.030 C 
ATOM     26  C   UNL     1       5.098  -5.553  11.490  0.00  0.00    -0.030 C 
ATOM     27  C   UNL     1       6.372  -5.720  10.723  0.00  0.00    +0.040 C 
ATOM     28  C   UNL     1       6.210  -6.407   9.398  0.00  0.00    +0.091 C 
ATOM     29  C   UNL     1       5.857  -5.529   8.233  0.00  0.00    +0.227 C 
ATOM     30  O   UNL     1       6.115  -4.351   8.107  0.00  0.00    -0.275 OA
ENDBRANCH  19  20
BRANCH  19  31
ATOM     31  C   UNL     1       5.494  -6.835   4.984  0.00  0.00    +0.035 C 
BRANCH  31  32
ATOM     32  C   UNL     1       7.018  -6.770   5.115  0.00  0.00    -0.015 C 
ATOM     33  C   UNL     1       7.652  -7.827   4.209  0.00  0.00    +0.007 C 
ATOM     34  C   UNL     1       7.506  -5.382   4.698  0.00  0.00    +0.007 C 
ENDBRANCH  31  32
ENDBRANCH  19  31
ENDBRANCH   7  19
TORSDOF 6
