REMARK  Name = ZINC35990592
REMARK  5 active torsions:
REMARK  status: ('A' for Active; 'I' for Inactive)
REMARK    1  A    between atoms: C_1  and  C_2
REMARK    2  A    between atoms: C_6  and  C_18
REMARK    3  A    between atoms: N_9  and  C_11
REMARK    4  A    between atoms: N_19  and  C_20
REMARK    5  A    between atoms: C_23  and  N_26
REMARK                            x       y       z     vdW  Elec       q    Type
REMARK                         _______ _______ _______ _____ _____    ______ ____
ROOT
ATOM      1  C   UNL     1      -0.036   1.502   0.012  0.00  0.00    +0.068 C 
ATOM      2  C   UNL     1      -0.012  -0.004   0.003  0.00  0.00    +0.073 A 
ATOM      3  C   UNL     1      -0.099  -0.824  -1.143  0.00  0.00    +0.082 A 
ATOM      4  C   UNL     1      -0.222  -0.584  -2.525  0.00  0.00    +0.134 A 
ATOM      5  N   UNL     1      -0.276  -1.628  -3.345  0.00  0.00    -0.217 NA
ATOM      6  C   UNL     1      -0.216  -2.865  -2.883  0.00  0.00    +0.130 A 
ATOM      7  N   UNL     1      -0.101  -3.138  -1.602  0.00  0.00    -0.213 NA
ATOM      8  C   UNL     1      -0.039  -2.160  -0.701  0.00  0.00    +0.169 A 
ATOM      9  N   UNL     1       0.079  -2.114   0.659  0.00  0.00    -0.212 N 
ATOM     10  N   UNL     1       0.097  -0.770   1.052  0.00  0.00    -0.169 NA
ATOM     11  C   UNL     1      -0.283  -4.007  -3.864  0.00  0.00    +0.088 C 
ATOM     12  N   UNL     1      -0.286   0.705  -3.017  0.00  0.00    -0.326 N 
ATOM     13  H   UNL     1      -0.168   1.459  -2.417  0.00  0.00    +0.148 HD
ENDROOT
BRANCH   9  14
ATOM     14  C   UNL     1       0.170  -3.221   1.514  0.00  0.00    +0.086 A 
ATOM     15  C   UNL     1       0.150  -4.507   0.991  0.00  0.00    +0.029 A 
ATOM     16  C   UNL     1       0.240  -5.596   1.835  0.00  0.00    +0.002 A 
ATOM     17  C   UNL     1       0.350  -5.407   3.201  0.00  0.00    +0.002 A 
ATOM     18  C   UNL     1       0.370  -4.128   3.726  0.00  0.00    +0.022 A 
ATOM     19  C   UNL     1       0.286  -3.034   2.885  0.00  0.00    +0.066 A 
ATOM     20 CL   UNL     1       0.319  -1.428   3.544  0.00  0.00    -0.081 Cl
ENDBRANCH   9  14
BRANCH  12  21
ATOM     21  C   UNL     1      -0.531   0.934  -4.443  0.00  0.00    +0.072 C 
ATOM     22  C   UNL     1       0.794   0.866  -5.205  0.00  0.00    +0.020 C 
ATOM     23  C   UNL     1       1.745   1.939  -4.673  0.00  0.00    -0.014 C 
ATOM     24  C   UNL     1       1.116   3.320  -4.866  0.00  0.00    -0.075 C 
ATOM     25  C   UNL     1      -0.209   3.389  -4.104  0.00  0.00    -0.014 C 
ATOM     26  C   UNL     1      -1.160   2.315  -4.636  0.00  0.00    +0.020 C 
BRANCH  24  27
ATOM     27  N   UNL     1       2.030   4.350  -4.355  0.00  0.00    +0.380 N 
ATOM     28  H   UNL     1       2.903   4.305  -4.858  0.00  0.00    -0.090 HD
ATOM     29  H   UNL     1       1.615   5.261  -4.483  0.00  0.00    -0.090 HD
ATOM     30  H   UNL     1       2.198   4.193  -3.373  0.00  0.00    -0.090 HD
ENDBRANCH  24  27
ENDBRANCH  12  21
TORSDOF 3
