REMARK  Name = ZINC63824461
REMARK  3 active torsions:
REMARK  status: ('A' for Active; 'I' for Inactive)
REMARK    1  A    between atoms: C_1  and  C_2
REMARK    2  A    between atoms: C_4  and  C_21
REMARK    3  A    between atoms: N_12  and  C_14
REMARK                            x       y       z     vdW  Elec       q    Type
REMARK                         _______ _______ _______ _____ _____    ______ ____
ROOT
ATOM      1  C   UNL     1      -0.023   1.480  -0.251  0.00  0.00    +0.062 C 
ATOM      2  C   UNL     1      -0.014  -0.026  -0.245  0.00  0.00    +0.022 C 
ATOM      3  C   UNL     1      -1.068  -0.765  -0.041  0.00  0.00    -0.004 C 
ATOM      4  C   UNL     1      -2.525  -0.387   0.080  0.00  0.00    +0.061 C 
ATOM      5  C   UNL     1      -3.250  -1.095  -1.074  0.00  0.00    +0.108 C 
ATOM      6  C   UNL     1      -2.699  -2.463  -1.320  0.00  0.00    +0.216 C 
ATOM      7  O   UNL     1      -3.418  -3.230  -1.924  0.00  0.00    -0.276 OA
ATOM      8  N   UNL     1      -1.509  -2.936  -0.951  0.00  0.00    -0.292 N 
ATOM      9  C   UNL     1      -0.624  -2.219  -0.041  0.00  0.00    +0.210 C 
ATOM     10  N   UNL     1       0.763  -2.164  -0.506  0.00  0.00    -0.210 N 
ATOM     11  N   UNL     1       1.114  -0.802  -0.463  0.00  0.00    -0.265 N 
ATOM     12  H   UNL     1      -1.219  -3.793  -1.302  0.00  0.00    +0.151 HD
ATOM     13  H   UNL     1       2.015  -0.457  -0.568  0.00  0.00    +0.170 HD
ENDROOT
BRANCH   4  14
ATOM     14  C   UNL     1      -2.684   1.106  -0.045  0.00  0.00    -0.004 A 
ATOM     15  C   UNL     1      -2.953   1.868   1.077  0.00  0.00    +0.008 A 
ATOM     16  C   UNL     1      -3.099   3.238   0.964  0.00  0.00    +0.020 A 
ATOM     17  C   UNL     1      -2.976   3.848  -0.272  0.00  0.00    +0.044 A 
ATOM     18  C   UNL     1      -2.707   3.087  -1.395  0.00  0.00    +0.058 A 
ATOM     19  C   UNL     1      -2.556   1.715  -1.281  0.00  0.00    +0.129 A 
ATOM     20  F   UNL     1      -2.288   0.971  -2.377  0.00  0.00    -0.205 F 
ATOM     21 CL   UNL     1      -3.161   5.568  -0.413  0.00  0.00    -0.083 Cl
ENDBRANCH   4  14
BRANCH  10  22
ATOM     22  C   UNL     1       1.563  -3.230  -0.910  0.00  0.00    +0.162 A 
ATOM     23  C   UNL     1       2.874  -3.003  -1.328  0.00  0.00    +0.052 A 
ATOM     24  C   UNL     1       3.629  -4.095  -1.720  0.00  0.00    +0.077 A 
ATOM     25  C   UNL     1       3.033  -5.353  -1.673  0.00  0.00    +0.289 A 
ATOM     26  O   UNL     1       3.735  -6.453  -2.047  0.00  0.00    -0.264 OA
ATOM     27  N   UNL     1       1.782  -5.474  -1.262  0.00  0.00    -0.105 NA
ATOM     28  N   UNL     1       1.082  -4.463  -0.893  0.00  0.00    -0.129 NA
ENDBRANCH  10  22
TORSDOF 2
