REMARK  Name = ZINC60354832
REMARK  10 active torsions:
REMARK  status: ('A' for Active; 'I' for Inactive)
REMARK    1  A    between atoms: C_1  and  C_2
REMARK    2  A    between atoms: C_5  and  C_7
REMARK    3  A    between atoms: C_7  and  C_9
REMARK    4  A    between atoms: C_7  and  N_29
REMARK    5  A    between atoms: C_9  and  N_10
REMARK    6  A    between atoms: C_11  and  C_13
REMARK    7  A    between atoms: C_16  and  S_19
REMARK    8  A    between atoms: S_19  and  N_22
REMARK    9  A    between atoms: N_22  and  C_23
REMARK   10  A    between atoms: C_23  and  C_24
REMARK                            x       y       z     vdW  Elec       q    Type
REMARK                         _______ _______ _______ _____ _____    ______ ____
ROOT
ATOM      1  N   UNL     1       3.248  -4.589   1.308  0.00  0.00    -0.312 N 
ATOM      2  C   UNL     1       3.861  -5.017   2.429  0.00  0.00    +0.244 C 
ATOM      3  O   UNL     1       3.659  -4.451   3.486  0.00  0.00    -0.270 OA
ATOM      4  H   UNL     1       3.410  -5.041   0.465  0.00  0.00    +0.149 HD
ENDROOT
BRANCH   2   5
ATOM      5  C   UNL     1       4.780  -6.174   2.374  0.00  0.00    +0.037 A 
ATOM      6  C   UNL     1       5.020  -6.822   1.162  0.00  0.00    +0.015 A 
ATOM      7  C   UNL     1       5.879  -7.900   1.117  0.00  0.00    +0.029 A 
ATOM      8  C   UNL     1       6.502  -8.340   2.271  0.00  0.00    +0.105 A 
ATOM      9  C   UNL     1       6.269  -7.702   3.477  0.00  0.00    +0.029 A 
ATOM     10  C   UNL     1       5.417  -6.619   3.534  0.00  0.00    +0.015 A 
BRANCH   8  11
ATOM     11  S   UNL     1       7.597  -9.719   2.206  0.00  0.00    +0.059 S 
ATOM     12  O   UNL     1       7.630 -10.274   3.514  0.00  0.00    -0.153 OA
ATOM     13  O   UNL     1       7.225 -10.479   1.065  0.00  0.00    -0.153 OA
BRANCH  11  14
ATOM     14  N   UNL     1       9.114  -9.126   1.905  0.00  0.00    -0.185 NA
ATOM     15  H   UNL     1       9.564  -9.345   1.075  0.00  0.00    +0.148 HD
BRANCH  14  16
ATOM     16  C   UNL     1       9.775  -8.270   2.893  0.00  0.00    +0.148 C 
BRANCH  16  17
ATOM     17  C   UNL     1      11.243  -8.169   2.568  0.00  0.00    +0.005 A 
ATOM     18  C   UNL     1      11.884  -7.266   1.787  0.00  0.00    +0.012 A 
ATOM     19  C   UNL     1      13.254  -7.367   1.631  0.00  0.00    +0.008 A 
ATOM     20  C   UNL     1      13.915  -8.367   2.263  0.00  0.00    +0.045 A 
ATOM     21  S   UNL     1      12.590  -9.203   3.119  0.00  0.00    -0.100 S 
ENDBRANCH  16  17
ENDBRANCH  14  16
ENDBRANCH  11  14
ENDBRANCH   8  11
ENDBRANCH   2   5
BRANCH   1  22
ATOM     22  C   UNL     1       2.338  -3.443   1.362  0.00  0.00    +0.097 C 
BRANCH  22  23
ATOM     23  C   UNL     1       1.678  -3.250  -0.005  0.00  0.00    +0.016 C 
BRANCH  23  28
ATOM     24  C   UNL     1      -2.285  -6.370  -0.010  0.00  0.00    +0.086 C 
ATOM     25  C   UNL     1      -0.926  -5.791  -0.311  0.00  0.00    +0.102 A 
ATOM     26  C   UNL     1       0.007  -6.345  -1.105  0.00  0.00    +0.044 A 
ATOM     27  C   UNL     1       1.118  -5.471  -1.103  0.00  0.00    +0.043 A 
ATOM     28  C   UNL     1       0.797  -4.434  -0.309  0.00  0.00    +0.093 A 
ATOM     29  O   UNL     1      -0.445  -4.630   0.164  0.00  0.00    -0.466 OA
ENDBRANCH  23  28
BRANCH  23  30
ATOM     30  N   UNL     1       0.866  -2.026   0.011  0.00  0.00    +0.387 N 
ATOM     31  C   UNL     1       1.732  -0.840   0.232  0.00  0.00    -0.078 C 
ATOM     32  C   UNL     1       0.882   0.329  -0.327  0.00  0.00    -0.020 C 
ATOM     33  C   UNL     1       0.197  -0.301  -1.561  0.00  0.00    -0.020 C 
ATOM     34  C   UNL     1       0.228  -1.820  -1.307  0.00  0.00    -0.078 C 
ATOM     35  H   UNL     1       0.164  -2.084   0.733  0.00  0.00    -0.081 HD
ENDBRANCH  23  30
ENDBRANCH  22  23
ENDBRANCH   1  22
TORSDOF 9
