REMARK  Name = ZINC22204120
REMARK  14 active torsions:
REMARK  status: ('A' for Active; 'I' for Inactive)
REMARK    1  A    between atoms: C_1  and  C_2
REMARK    2  A    between atoms: C_4  and  C_26
REMARK    3  A    between atoms: C_5  and  O_9
REMARK    4  A    between atoms: C_6  and  C_8
REMARK    5  A    between atoms: O_9  and  C_10
REMARK    6  A    between atoms: C_10  and  C_11
REMARK    7  A    between atoms: C_11  and  C_13
REMARK    8  A    between atoms: C_11  and  O_25
REMARK    9  A    between atoms: C_13  and  N_14
REMARK   10  A    between atoms: N_14  and  C_15
REMARK   11  A    between atoms: C_17  and  C_23
REMARK   12  A    between atoms: C_17  and  C_24
REMARK   13  A    between atoms: C_19  and  C_21
REMARK   14  A    between atoms: C_19  and  C_22
REMARK                            x       y       z     vdW  Elec       q    Type
REMARK                         _______ _______ _______ _____ _____    ______ ____
ROOT
ATOM      1  C   UNL     1       0.552   4.313  -3.990  0.00  0.00    +0.115 C 
ENDROOT
BRANCH   1   2
ATOM      2  N   UNL     1       1.204   3.099  -3.482  0.00  0.00    -0.311 NA
ATOM      3  H   UNL     1       0.979   2.255  -4.150  0.00  0.00    +0.122 HD
BRANCH   2   4
ATOM      4  C   UNL     1       0.727   2.770  -2.128  0.00  0.00    +0.051 C 
ATOM      5  C   UNL     1       1.795   1.952  -1.403  0.00  0.00    +0.006 C 
ATOM      6  C   UNL     1       1.318   1.579  -0.002  0.00  0.00    -0.072 C 
ATOM      7  N   UNL     1      -0.012   1.005   0.008  0.00  0.00    +0.386 N 
ATOM      8  C   UNL     1      -1.048   1.551  -0.843  0.00  0.00    -0.072 C 
ATOM      9  C   UNL     1      -0.543   1.927  -2.233  0.00  0.00    +0.006 C 
ATOM     10  C   UNL     1      -2.143   0.475  -1.020  0.00  0.00    -0.010 C 
ATOM     11  C   UNL     1      -1.713   2.771  -0.192  0.00  0.00    -0.010 C 
ATOM     12  C   UNL     1       1.397   2.808   0.911  0.00  0.00    -0.010 C 
ATOM     13  C   UNL     1       2.301   0.528   0.560  0.00  0.00    -0.010 C 
ATOM     14  H   UNL     1       0.043  -0.052  -0.291  0.00  0.00    -0.084 HD
ATOM     15  H   UNL     1      -0.435   1.079   1.020  0.00  0.00    -0.084 HD
ENDBRANCH   2   4
ENDBRANCH   1   2
BRANCH   1  16
ATOM     16  C   UNL     1       1.072   4.622  -5.395  0.00  0.00    +0.166 C 
BRANCH  16  17
ATOM     17  O   UNL     1       2.485   4.826  -5.346  0.00  0.00    -0.387 OA
ATOM     18  H   UNL     1       3.145   4.021  -4.989  0.00  0.00    +0.210 HD
ENDBRANCH  16  17
BRANCH  16  19
ATOM     19  C   UNL     1       0.392   5.887  -5.924  0.00  0.00    +0.261 C 
BRANCH  19  20
ATOM     20  O   UNL     1       0.789   6.110  -7.279  0.00  0.00    -0.489 OA
BRANCH  20  25
ATOM     21  C   UNL     1      -1.358  10.632  -9.860  0.00  0.00    +0.044 C 
ATOM     22  C   UNL     1      -0.784   9.422  -9.169  0.00  0.00    -0.050 A 
ATOM     23  C   UNL     1       0.406   9.525  -8.473  0.00  0.00    +0.010 A 
ATOM     24  C   UNL     1       0.935   8.418  -7.839  0.00  0.00    -0.008 A 
ATOM     25  C   UNL     1       0.271   7.201  -7.901  0.00  0.00    +0.126 A 
ATOM     26  C   UNL     1      -0.920   7.099  -8.606  0.00  0.00    -0.008 A 
ATOM     27  C   UNL     1      -1.448   8.211  -9.233  0.00  0.00    +0.010 A 
ATOM     28  C   UNL     1      -1.641   5.778  -8.681  0.00  0.00    +0.047 C 
ATOM     29  C   UNL     1       2.232   8.530  -7.080  0.00  0.00    +0.047 C 
ENDBRANCH  20  25
ENDBRANCH  19  20
ENDBRANCH  16  19
ENDBRANCH   1  16
TORSDOF 7
