REMARK  Name = ZINC08988182
REMARK  11 active torsions:
REMARK  status: ('A' for Active; 'I' for Inactive)
REMARK    1  A    between atoms: C_1  and  N_58
REMARK    2  A    between atoms: C_2  and  N_58
REMARK    3  A    between atoms: C_3  and  C_4
REMARK    4  A    between atoms: C_3  and  N_58
REMARK    5  A    between atoms: C_4  and  C_5
REMARK    6  A    between atoms: C_5  and  N_6
REMARK    7  A    between atoms: C_7  and  C_25
REMARK    8  A    between atoms: C_10  and  C_11
REMARK    9  A    between atoms: C_10  and  O_20
REMARK   10  A    between atoms: C_29  and  O_31
REMARK   11  A    between atoms: O_31  and  C_32
REMARK                            x       y       z     vdW  Elec       q    Type
REMARK                         _______ _______ _______ _____ _____    ______ ____
ROOT
ATOM      1  N   UNL     1       1.383   1.943   0.010  0.00  0.00    -0.284 N 
ATOM      2  C   UNL     1      -0.002   1.493   0.180  0.00  0.00    +0.145 C 
ATOM      3  C   UNL     1      -0.002  -0.000  -0.050  0.00  0.00    +0.074 C 
ATOM      4  C   UNL     1      -1.094  -0.851   0.009  0.00  0.00    +0.168 C 
ATOM      5  C   UNL     1       1.324  -0.352  -0.333  0.00  0.00    +0.249 C 
ATOM      6  O   UNL     1       1.729  -1.475  -0.576  0.00  0.00    -0.282 OA
ATOM      7  C   UNL     1       2.152   0.882  -0.286  0.00  0.00    +0.288 C 
ATOM      8  O   UNL     1       3.349   0.925  -0.486  0.00  0.00    -0.266 OA
ENDROOT
BRANCH   4   9
ATOM      9  C   UNL     1      -0.903  -2.296  -0.112  0.00  0.00    +0.171 A 
ATOM     10  C   UNL     1      -1.627  -3.122  -0.917  0.00  0.00    +0.061 A 
ATOM     11  C   UNL     1      -1.115  -4.430  -0.731  0.00  0.00    +0.021 A 
ATOM     12  C   UNL     1      -1.436  -5.681  -1.270  0.00  0.00    +0.011 A 
ATOM     13  C   UNL     1      -0.743  -6.789  -0.874  0.00  0.00    +0.001 A 
ATOM     14  C   UNL     1       0.279  -6.683   0.060  0.00  0.00    +0.004 A 
ATOM     15  C   UNL     1       0.612  -5.460   0.604  0.00  0.00    +0.047 A 
ATOM     16  C   UNL     1      -0.080  -4.320   0.216  0.00  0.00    +0.136 A 
ATOM     17  O   UNL     1       0.017  -3.020   0.563  0.00  0.00    -0.452 OA
ENDBRANCH   4   9
BRANCH   2  18
ATOM     18  C   UNL     1      -0.893   2.171  -0.829  0.00  0.00    -0.019 A 
ATOM     19  C   UNL     1      -0.438   2.388  -2.116  0.00  0.00    +0.006 A 
ATOM     20  C   UNL     1      -1.254   3.005  -3.046  0.00  0.00    +0.004 A 
ATOM     21  C   UNL     1      -2.523   3.416  -2.687  0.00  0.00    +0.045 A 
ATOM     22  C   UNL     1      -2.980   3.205  -1.395  0.00  0.00    +0.120 A 
ATOM     23  C   UNL     1      -2.161   2.580  -0.465  0.00  0.00    +0.051 A 
BRANCH  22  24
ATOM     24  O   UNL     1      -4.229   3.608  -1.040  0.00  0.00    -0.495 OA
ATOM     25  C   UNL     1      -5.016   4.244  -2.048  0.00  0.00    +0.277 C 
ENDBRANCH  22  24
ENDBRANCH   2  18
BRANCH   4  26
ATOM     26  O   UNL     1      -2.336  -0.346   0.176  0.00  0.00    -0.503 OA
ATOM     27  H   UNL     1      -3.000  -1.093   0.196  0.00  0.00    +0.292 HD
ENDBRANCH   4  26
BRANCH   1  28
ATOM     28  C   UNL     1       1.851   3.325   0.142  0.00  0.00    +0.107 C 
BRANCH  28  29
ATOM     29  C   UNL     1       2.257   3.589   1.593  0.00  0.00    +0.000 C 
BRANCH  29  30
ATOM     30  C   UNL     1       2.747   5.032   1.731  0.00  0.00    -0.078 C 
BRANCH  30  33
ATOM     31  C   UNL     1       4.309   4.482   3.498  0.00  0.00    -0.097 C 
ATOM     32  C   UNL     1       3.386   6.716   3.349  0.00  0.00    -0.097 C 
ATOM     33  N   UNL     1       3.115   5.278   3.141  0.00  0.00    +0.376 N 
ATOM     34  H   UNL     1       2.334   4.996   3.744  0.00  0.00    -0.083 HD
ENDBRANCH  30  33
ENDBRANCH  29  30
ENDBRANCH  28  29
ENDBRANCH   1  28
TORSDOF 8
