REMARK  Name = ZINC47138299
REMARK  8 active torsions:
REMARK  status: ('A' for Active; 'I' for Inactive)
REMARK    1  A    between atoms: C_1  and  O_2
REMARK    2  A    between atoms: O_2  and  C_3
REMARK    3  A    between atoms: C_5  and  C_10
REMARK    4  A    between atoms: C_8  and  O_9
REMARK    5  A    between atoms: N_14  and  C_28
REMARK    6  A    between atoms: N_16  and  N_17
REMARK    7  A    between atoms: C_18  and  C_19
REMARK    8  A    between atoms: C_28  and  C_29
REMARK                            x       y       z     vdW  Elec       q    Type
REMARK                         _______ _______ _______ _____ _____    ______ ____
ROOT
ATOM      1  C   UNL     1      -5.277  -0.042  -3.077  0.00  0.00    +0.028 C 
ATOM      2  C   UNL     1      -6.402  -0.630  -2.594  0.00  0.00    +0.078 C 
ATOM      3  C   UNL     1      -7.674  -0.012  -2.174  0.00  0.00    +0.259 C 
ATOM      4  O   UNL     1      -7.845   1.192  -2.228  0.00  0.00    -0.269 OA
ATOM      5  N   UNL     1      -8.620  -0.826  -1.736  0.00  0.00    -0.237 N 
ATOM      6  C   UNL     1      -8.407  -2.186  -1.682  0.00  0.00    +0.190 C 
ATOM      7  N   UNL     1      -9.234  -3.130  -1.277  0.00  0.00    -0.126 NA
ATOM      8  S   UNL     1      -6.742  -2.360  -2.303  0.00  0.00    -0.047 S 
ENDROOT
BRANCH   1  11
ATOM      9  C   UNL     1      -1.818  -1.041  -4.129  0.00  0.00    +0.162 A 
ATOM     10  C   UNL     1      -2.960  -0.286  -3.944  0.00  0.00    +0.057 A 
ATOM     11  C   UNL     1      -4.060  -0.840  -3.278  0.00  0.00    -0.020 A 
ATOM     12  C   UNL     1      -3.997  -2.156  -2.805  0.00  0.00    +0.012 A 
ATOM     13  C   UNL     1      -2.854  -2.901  -2.995  0.00  0.00    +0.050 A 
ATOM     14  C   UNL     1      -1.766  -2.353  -3.659  0.00  0.00    +0.158 A 
BRANCH   9  16
ATOM     15  C   UNL     1      -0.871   0.842  -5.230  0.00  0.00    +0.277 C 
ATOM     16  O   UNL     1      -0.748  -0.507  -4.776  0.00  0.00    -0.491 OA
ENDBRANCH   9  16
BRANCH  14  17
ATOM     17  O   UNL     1      -0.643  -3.095  -3.848  0.00  0.00    -0.503 OA
ATOM     18  H   UNL     1       0.002  -3.021  -3.132  0.00  0.00    +0.292 HD
ENDBRANCH  14  17
ENDBRANCH   1  11
BRANCH   7  19
ATOM     19  N   UNL     1     -10.415  -2.818  -0.861  0.00  0.00    -0.155 NA
ATOM     20  C   UNL     1     -11.196  -3.739  -0.363  0.00  0.00    +0.144 C 
BRANCH  20  21
ATOM     21  C   UNL     1     -10.747  -5.139  -0.317  0.00  0.00    +0.015 A 
ATOM     22  C   UNL     1      -9.385  -5.437  -0.203  0.00  0.00    +0.011 A 
ATOM     23  C   UNL     1      -8.971  -6.751  -0.160  0.00  0.00    +0.002 A 
ATOM     24  C   UNL     1      -9.899  -7.776  -0.230  0.00  0.00    +0.021 A 
ATOM     25  C   UNL     1     -11.249  -7.491  -0.344  0.00  0.00    +0.060 A 
ATOM     26  C   UNL     1     -11.680  -6.179  -0.382  0.00  0.00    +0.068 A 
ATOM     27 CL   UNL     1     -13.374  -5.823  -0.517  0.00  0.00    -0.081 Cl
ATOM     28 CL   UNL     1     -12.403  -8.785  -0.432  0.00  0.00    -0.082 Cl
ENDBRANCH  20  21
ENDBRANCH   7  19
BRANCH   5  29
ATOM     29  C   UNL     1      -9.907  -0.276  -1.303  0.00  0.00    +0.190 C 
BRANCH  29  30
ATOM     30  C   UNL     1     -10.848  -0.217  -2.478  0.00  0.00    +0.123 A 
ATOM     31  C   UNL     1     -11.696  -1.191  -2.856  0.00  0.00    +0.046 A 
ATOM     32  C   UNL     1     -12.382  -0.716  -3.997  0.00  0.00    +0.041 A 
ATOM     33  C   UNL     1     -11.913   0.519  -4.249  0.00  0.00    +0.195 A 
ATOM     34  O   UNL     1     -10.988   0.819  -3.322  0.00  0.00    -0.466 OA
ENDBRANCH  29  30
ENDBRANCH   5  29
TORSDOF 7
