REMARK  Name = ZINC53620495
REMARK  7 active torsions:
REMARK  status: ('A' for Active; 'I' for Inactive)
REMARK    1  A    between atoms: C_1  and  C_2
REMARK    2  A    between atoms: C_6  and  C_8
REMARK    3  A    between atoms: C_11  and  O_14
REMARK    4  A    between atoms: O_14  and  C_15
REMARK    5  A    between atoms: C_15  and  C_16
REMARK    6  A    between atoms: C_19  and  C_21
REMARK    7  A    between atoms: C_24  and  C_28
REMARK                            x       y       z     vdW  Elec       q    Type
REMARK                         _______ _______ _______ _____ _____    ______ ____
ROOT
ATOM      1  C   UNL     1      -0.013   1.086   0.008  0.00  0.00    +0.066 C 
ATOM      2  C   UNL     1      -0.742   1.585  -1.213  0.00  0.00    +0.054 A 
ATOM      3  N   UNL     1      -2.045   1.798  -1.199  0.00  0.00    -0.229 NA
ATOM      4  C   UNL     1      -2.674   2.233  -2.269  0.00  0.00    +0.165 A 
ATOM      5  N   UNL     1      -4.027   2.507  -2.424  0.00  0.00    -0.261 N 
ATOM      6  C   UNL     1      -4.873   2.328  -1.390  0.00  0.00    +0.250 C 
ATOM      7  O   UNL     1      -4.451   1.927  -0.322  0.00  0.00    -0.270 OA
ATOM      8  S   UNL     1      -1.440   2.380  -3.405  0.00  0.00    -0.053 S 
ATOM      9  C   UNL     1      -0.088   1.841  -2.373  0.00  0.00    +0.059 A 
ATOM     10  H   UNL     1      -4.362   2.827  -3.276  0.00  0.00    +0.157 HD
ENDROOT
BRANCH   9  11
ATOM     11  C   UNL     1       1.377   1.706  -2.700  0.00  0.00    +0.250 C 
ATOM     12  N   UNL     1       1.778   2.723  -3.698  0.00  0.00    -0.265 NA
ATOM     13  C   UNL     1       3.140   3.158  -3.322  0.00  0.00    +0.187 C 
ATOM     14  N   UNL     1       3.491   2.382  -2.109  0.00  0.00    -0.177 NA
ATOM     15  O   UNL     1       2.182   1.994  -1.534  0.00  0.00    -0.274 OA
ATOM     16  H   UNL     1       1.766   2.339  -4.631  0.00  0.00    +0.127 HD
ATOM     17  H   UNL     1       4.036   1.566  -2.346  0.00  0.00    +0.156 HD
BRANCH  13  18
ATOM     18  C   UNL     1       4.110   2.853  -4.434  0.00  0.00    +0.023 A 
ATOM     19  C   UNL     1       5.430   2.555  -4.359  0.00  0.00    +0.014 A 
ATOM     20  C   UNL     1       6.129   2.307  -5.525  0.00  0.00    +0.008 A 
ATOM     21  C   UNL     1       5.474   2.370  -6.710  0.00  0.00    +0.045 A 
ATOM     22  S   UNL     1       3.816   2.783  -6.194  0.00  0.00    -0.099 S 
ENDBRANCH  13  18
ENDBRANCH   9  11
BRANCH   6  23
ATOM     23  C   UNL     1      -6.310   2.618  -1.554  0.00  0.00    +0.037 A 
ATOM     24  C   UNL     1      -6.797   3.074  -2.783  0.00  0.00    +0.016 A 
ATOM     25  C   UNL     1      -8.139   3.344  -2.932  0.00  0.00    +0.046 A 
ATOM     26  C   UNL     1      -9.009   3.164  -1.862  0.00  0.00    +0.121 A 
ATOM     27  C   UNL     1      -8.528   2.712  -0.639  0.00  0.00    +0.046 A 
ATOM     28  C   UNL     1      -7.189   2.433  -0.484  0.00  0.00    +0.016 A 
BRANCH  26  29
ATOM     29  O   UNL     1     -10.331   3.432  -2.013  0.00  0.00    -0.488 OA
BRANCH  29  30
ATOM     30  C   UNL     1     -11.168   3.225  -0.874  0.00  0.00    +0.256 C 
BRANCH  30  31
ATOM     31  C   UNL     1     -12.592   3.572  -1.228  0.00  0.00    +0.006 C 
ATOM     32  C   UNL     1     -13.569   2.776  -0.868  0.00  0.00    +0.007 C 
ENDBRANCH  30  31
ENDBRANCH  29  30
ENDBRANCH  26  29
ENDBRANCH   6  23
TORSDOF 6
