REMARK  Name = ZINC11933323
REMARK  12 active torsions:
REMARK  status: ('A' for Active; 'I' for Inactive)
REMARK    1  A    between atoms: C_1  and  C_2
REMARK    2  A    between atoms: C_5  and  C_29
REMARK    3  A    between atoms: C_6  and  O_8
REMARK    4  A    between atoms: O_8  and  C_9
REMARK    5  A    between atoms: C_9  and  C_10
REMARK    6  A    between atoms: C_12  and  C_15
REMARK    7  A    between atoms: N_17  and  C_18
REMARK    8  A    between atoms: C_18  and  C_19
REMARK    9  A    between atoms: C_21  and  C_25
REMARK   10  A    between atoms: C_25  and  C_26
REMARK   11  A    between atoms: C_25  and  C_27
REMARK   12  A    between atoms: C_25  and  C_28
REMARK                            x       y       z     vdW  Elec       q    Type
REMARK                         _______ _______ _______ _____ _____    ______ ____
ROOT
ATOM      1  C   UNL     1      -0.723   1.911   1.250  0.00  0.00    +0.175 A 
ATOM      2  C   UNL     1      -0.156   2.181   2.448  0.00  0.00    +0.084 A 
ATOM      3  C   UNL     1      -1.249   2.599   3.257  0.00  0.00    +0.168 A 
ATOM      4  N   UNL     1      -2.311   2.539   2.493  0.00  0.00    -0.073 NA
ATOM      5  O   UNL     1      -2.032   2.165   1.378  0.00  0.00    -0.355 OA
ENDROOT
BRANCH   3   6
ATOM      6  C   UNL     1      -1.196   3.020   4.679  0.00  0.00    +0.266 C 
ATOM      7  O   UNL     1      -0.135   3.029   5.271  0.00  0.00    -0.268 OA
ATOM      8  N   UNL     1      -2.325   3.391   5.314  0.00  0.00    -0.304 N 
ATOM      9  H   UNL     1      -3.172   3.384   4.842  0.00  0.00    +0.149 HD
BRANCH   8  10
ATOM     10  C   UNL     1      -2.273   3.807   6.718  0.00  0.00    +0.162 C 
BRANCH  10  11
ATOM     11  C   UNL     1      -3.659   4.168   7.186  0.00  0.00    +0.080 A 
ATOM     12  C   UNL     1      -4.550   3.317   7.848  0.00  0.00    +0.049 A 
ATOM     13  C   UNL     1      -5.682   4.013   8.101  0.00  0.00    +0.042 A 
ATOM     14  N   UNL     1      -5.517   5.259   7.609  0.00  0.00    -0.281 N 
ATOM     15  H   UNL     1      -6.188   5.999   7.644  0.00  0.00    +0.189 HD
ATOM     16  N   UNL     1      -4.239   5.332   7.039  0.00  0.00    -0.177 NA
BRANCH  13  17
ATOM     17  C   UNL     1      -6.909   3.490   8.802  0.00  0.00    +0.004 C 
ATOM     18  C   UNL     1      -8.008   4.554   8.767  0.00  0.00    +0.017 C 
ATOM     19  C   UNL     1      -7.401   2.226   8.094  0.00  0.00    +0.017 C 
ATOM     20  C   UNL     1      -6.565   3.160  10.255  0.00  0.00    +0.017 C 
ENDBRANCH  13  17
ENDBRANCH  10  11
ENDBRANCH   8  10
ENDBRANCH   3   6
BRANCH   1  21
ATOM     21  C   UNL     1      -0.017   1.425   0.010  0.00  0.00    +0.306 C 
BRANCH  21  22
ATOM     22  O   UNL     1       0.002  -0.004   0.002  0.00  0.00    -0.484 OA
BRANCH  22  28
ATOM     23  C   UNL     1       2.391   0.379  -4.237  0.00  0.00    +0.044 C 
ATOM     24  C   UNL     1       1.781  -0.455  -3.140  0.00  0.00    -0.047 A 
ATOM     25  C   UNL     1       1.835  -1.835  -3.209  0.00  0.00    +0.004 A 
ATOM     26  C   UNL     1       1.275  -2.602  -2.204  0.00  0.00    +0.007 A 
ATOM     27  C   UNL     1       0.661  -1.991  -1.128  0.00  0.00    -0.009 A 
ATOM     28  C   UNL     1       0.606  -0.607  -1.056  0.00  0.00    +0.124 A 
ATOM     29  C   UNL     1       1.163   0.161  -2.068  0.00  0.00    +0.049 A 
ATOM     30  C   UNL     1       0.051  -2.828  -0.033  0.00  0.00    +0.047 C 
ENDBRANCH  22  28
ENDBRANCH  21  22
ENDBRANCH   1  21
TORSDOF 7
