REMARK  Name = ZINC36077440
REMARK  4 active torsions:
REMARK  status: ('A' for Active; 'I' for Inactive)
REMARK    1  A    between atoms: C_6  and  C_7
REMARK    2  A    between atoms: C_10  and  C_13
REMARK    3  A    between atoms: C_15  and  N_20
REMARK    4  A    between atoms: C_18  and  O_19
REMARK                            x       y       z     vdW  Elec       q    Type
REMARK                         _______ _______ _______ _____ _____    ______ ____
ROOT
ATOM      1  C   UNL     1      -1.293  -0.775   0.011  0.00  0.00    +0.125 C 
ATOM      2  C   UNL     1      -1.618  -1.306  -1.400  0.00  0.00    +0.086 C 
ATOM      3  C   UNL     1      -1.635  -2.808  -1.228  0.00  0.00    +0.072 C 
ATOM      4  N   UNL     1      -1.379  -3.104  -0.001  0.00  0.00    -0.190 NA
ATOM      5  N   UNL     1      -1.163  -1.996   0.821  0.00  0.00    -0.261 N 
ATOM      6  H   UNL     1      -0.960  -2.025   1.769  0.00  0.00    +0.169 HD
ENDROOT
BRANCH   1  12
ATOM      7  C   UNL     1      -0.017   1.378   0.010  0.00  0.00    +0.007 A 
ATOM      8  C   UNL     1       1.171   2.086   0.002  0.00  0.00    +0.020 A 
ATOM      9  C   UNL     1       2.378   1.410  -0.013  0.00  0.00    +0.041 A 
ATOM     10  C   UNL     1       2.396   0.027  -0.021  0.00  0.00    +0.020 A 
ATOM     11  C   UNL     1       1.208  -0.679  -0.013  0.00  0.00    +0.007 A 
ATOM     12  C   UNL     1       0.002  -0.004   0.002  0.00  0.00    -0.025 A 
ATOM     13 CL   UNL     1       3.870   2.298  -0.023  0.00  0.00    -0.084 Cl
ENDBRANCH   1  12
BRANCH   3  14
ATOM     14  C   UNL     1      -1.903  -3.783  -2.301  0.00  0.00    +0.041 A 
ATOM     15  C   UNL     1      -2.163  -3.344  -3.601  0.00  0.00    +0.046 A 
ATOM     16  C   UNL     1      -2.413  -4.262  -4.599  0.00  0.00    +0.127 A 
ATOM     17  C   UNL     1      -2.407  -5.617  -4.319  0.00  0.00    +0.036 A 
ATOM     18  C   UNL     1      -2.151  -6.065  -3.036  0.00  0.00    +0.048 A 
ATOM     19  C   UNL     1      -1.892  -5.157  -2.023  0.00  0.00    +0.126 A 
BRANCH  16  20
ATOM     20  N   UNL     1      -2.690  -3.795  -5.977  0.00  0.00    +0.056 N 
ATOM     21  O   UNL     1      -2.696  -2.612  -6.224  0.00  0.00    -0.126 OA
ATOM     22  O   UNL     1      -2.909  -4.598  -6.854  0.00  0.00    -0.126 OA
ENDBRANCH  16  20
BRANCH  19  23
ATOM     23  O   UNL     1      -1.634  -5.596  -0.764  0.00  0.00    -0.506 OA
ATOM     24  H   UNL     1      -2.422  -5.692  -0.211  0.00  0.00    +0.292 HD
ENDBRANCH  19  23
ENDBRANCH   3  14
TORSDOF 4
