REMARK  Name = ZINC58003075
REMARK  6 active torsions:
REMARK  status: ('A' for Active; 'I' for Inactive)
REMARK    1  A    between atoms: C_1  and  C_2
REMARK    2  A    between atoms: C_2  and  C_4
REMARK    3  A    between atoms: C_2  and  N_12
REMARK    4  A    between atoms: C_4  and  C_5
REMARK    5  A    between atoms: N_12  and  C_13
REMARK    6  A    between atoms: C_17  and  N_19
REMARK                            x       y       z     vdW  Elec       q    Type
REMARK                         _______ _______ _______ _____ _____    ______ ____
ROOT
ATOM      1  N   UNL     1       0.688  -0.476  -1.203  0.00  0.00    -0.341 N 
ATOM      2  H   UNL     1       1.632  -0.695  -1.170  0.00  0.00    +0.146 HD
ENDROOT
BRANCH   1   3
ATOM      3  C   UNL     1      -0.019  -0.613  -2.401  0.00  0.00    +0.030 A 
ATOM      4  C   UNL     1      -1.370  -0.295  -2.451  0.00  0.00    +0.023 A 
ATOM      5  C   UNL     1      -2.065  -0.431  -3.637  0.00  0.00    +0.004 A 
ATOM      6  C   UNL     1      -1.418  -0.882  -4.772  0.00  0.00    +0.033 A 
ATOM      7  C   UNL     1      -0.073  -1.199  -4.725  0.00  0.00    +0.128 A 
ATOM      8  C   UNL     1       0.630  -1.061  -3.544  0.00  0.00    +0.055 A 
BRANCH   7   9
ATOM      9  N   UNL     1       0.616  -1.683  -5.943  0.00  0.00    +0.056 N 
ATOM     10  O   UNL     1       0.003  -1.800  -6.978  0.00  0.00    -0.126 OA
ATOM     11  O   UNL     1       1.792  -1.960  -5.902  0.00  0.00    -0.126 OA
ENDBRANCH   7   9
ENDBRANCH   1   3
BRANCH   1  13
ATOM     12  C   UNL     1      -0.019   1.526   0.010  0.00  0.00    +0.028 C 
ATOM     13  C   UNL     1       0.002  -0.004   0.002  0.00  0.00    +0.072 C 
BRANCH  13  14
ATOM     14  C   UNL     1       0.742  -0.511   1.242  0.00  0.00    +0.057 C 
BRANCH  14  15
ATOM     15  C   UNL     1       0.657  -2.014   1.298  0.00  0.00    -0.045 A 
ATOM     16  C   UNL     1      -0.396  -2.622   1.955  0.00  0.00    +0.006 A 
ATOM     17  C   UNL     1      -0.476  -4.001   2.007  0.00  0.00    +0.038 A 
ATOM     18  C   UNL     1       0.500  -4.774   1.400  0.00  0.00    +0.123 A 
ATOM     19  C   UNL     1       1.554  -4.164   0.742  0.00  0.00    +0.038 A 
ATOM     20  C   UNL     1       1.629  -2.785   0.687  0.00  0.00    +0.006 A 
ATOM     21  F   UNL     1       0.423  -6.122   1.451  0.00  0.00    -0.205 F 
ENDBRANCH  14  15
ENDBRANCH  13  14
ENDBRANCH   1  13
TORSDOF 5
