REMARK  Name = ZINC00740944
REMARK  11 active torsions:
REMARK  status: ('A' for Active; 'I' for Inactive)
REMARK    1  A    between atoms: C_1  and  C_2
REMARK    2  A    between atoms: C_2  and  C_3
REMARK    3  A    between atoms: C_2  and  N_4
REMARK    4  A    between atoms: N_4  and  C_5
REMARK    5  A    between atoms: C_5  and  C_6
REMARK    6  A    between atoms: N_8  and  C_9
REMARK    7  A    between atoms: N_8  and  C_15
REMARK    8  A    between atoms: C_9  and  C_10
REMARK    9  A    between atoms: C_15  and  C_16
REMARK   10  A    between atoms: C_22  and  C_24
REMARK   11  A    between atoms: C_28  and  N_30
REMARK                            x       y       z     vdW  Elec       q    Type
REMARK                         _______ _______ _______ _____ _____    ______ ____
ROOT
ATOM      1  N   UNL     1      -1.351   0.081   0.758  0.00  0.00    -0.286 N 
ATOM      2  C   UNL     1      -1.458   1.313   1.294  0.00  0.00    +0.247 C 
ATOM      3  O   UNL     1      -2.514   1.912   1.234  0.00  0.00    -0.270 OA
ENDROOT
BRANCH   2   4
ATOM      4  C   UNL     1      -0.292   1.936   1.954  0.00  0.00    +0.039 A 
ATOM      5  C   UNL     1       1.002   1.614   1.542  0.00  0.00    +0.014 A 
ATOM      6  C   UNL     1       2.086   2.198   2.161  0.00  0.00    +0.023 A 
ATOM      7  C   UNL     1       1.893   3.103   3.192  0.00  0.00    +0.071 A 
ATOM      8  C   UNL     1       0.612   3.427   3.606  0.00  0.00    +0.145 A 
ATOM      9  C   UNL     1      -0.480   2.854   2.990  0.00  0.00    +0.047 A 
ATOM     10 CL   UNL     1       3.264   3.835   3.968  0.00  0.00    -0.081 Cl
BRANCH   8  11
ATOM     11  N   UNL     1       0.415   4.395   4.708  0.00  0.00    +0.058 N 
ATOM     12  O   UNL     1      -0.703   4.678   5.071  0.00  0.00    -0.126 OA
ATOM     13  O   UNL     1       1.371   4.902   5.246  0.00  0.00    -0.126 OA
ENDBRANCH   8  11
ENDBRANCH   2   4
BRANCH   1  15
ATOM     14  C   UNL     1       0.460   0.823  -0.708  0.00  0.00    +0.028 C 
ATOM     15  C   UNL     1      -0.098  -0.334   0.122  0.00  0.00    +0.071 C 
ATOM     16  C   UNL     1       0.916  -0.725   1.200  0.00  0.00    +0.028 C 
ENDBRANCH   1  15
BRANCH   1  17
ATOM     17  C   UNL     1      -2.487  -0.842   0.812  0.00  0.00    +0.204 C 
BRANCH  17  18
ATOM     18  C   UNL     1      -2.410  -1.660   2.076  0.00  0.00    +0.233 C 
ATOM     19  O   UNL     1      -1.497  -1.488   2.855  0.00  0.00    -0.274 OA
ATOM     20  N   UNL     1      -3.357  -2.582   2.340  0.00  0.00    -0.290 N 
BRANCH  20  21
ATOM     21  C   UNL     1      -4.460  -2.790   1.399  0.00  0.00    +0.182 C 
BRANCH  21  22
ATOM     22  C   UNL     1      -4.072  -3.844   0.395  0.00  0.00    +0.122 A 
ATOM     23  C   UNL     1      -4.284  -5.166   0.520  0.00  0.00    +0.046 A 
ATOM     24  C   UNL     1      -3.765  -5.776  -0.645  0.00  0.00    +0.041 A 
ATOM     25  C   UNL     1      -3.266  -4.790  -1.412  0.00  0.00    +0.195 A 
ATOM     26  O   UNL     1      -3.460  -3.621  -0.780  0.00  0.00    -0.466 OA
ENDBRANCH  21  22
ENDBRANCH  20  21
BRANCH  20  27
ATOM     27  C   UNL     1      -3.282  -3.377   3.569  0.00  0.00    +0.139 C 
BRANCH  27  28
ATOM     28  C   UNL     1      -4.035  -2.656   4.689  0.00  0.00    +0.136 C 
ATOM     29  C   UNL     1      -3.938  -3.463   6.008  0.00  0.00    +0.035 C 
ATOM     30  C   UNL     1      -4.148  -2.339   7.058  0.00  0.00    +0.031 C 
ATOM     31  C   UNL     1      -3.469  -1.128   6.383  0.00  0.00    +0.160 C 
ATOM     32  O   UNL     1      -3.413  -1.392   4.974  0.00  0.00    -0.375 OA
ENDBRANCH  27  28
ENDBRANCH  20  27
ENDBRANCH  17  18
ENDBRANCH   1  17
TORSDOF 9
