REMARK  Name = ZINC48495363
REMARK  8 active torsions:
REMARK  status: ('A' for Active; 'I' for Inactive)
REMARK    1  A    between atoms: C_1  and  C_2
REMARK    2  A    between atoms: C_2  and  C_3
REMARK    3  A    between atoms: C_3  and  C_4
REMARK    4  A    between atoms: C_4  and  C_6
REMARK    5  A    between atoms: C_4  and  N_7
REMARK    6  A    between atoms: C_8  and  C_10
REMARK    7  A    between atoms: N_12  and  C_13
REMARK    8  A    between atoms: C_18  and  C_19
REMARK                            x       y       z     vdW  Elec       q    Type
REMARK                         _______ _______ _______ _____ _____    ______ ____
ROOT
ATOM      1  C   UNL     1       0.335  -4.235  -2.600  0.00  0.00    +0.303 C 
ATOM      2  O   UNL     1       0.296  -3.531  -3.588  0.00  0.00    -0.265 OA
ATOM      3  N   UNL     1       0.920  -5.448  -2.660  0.00  0.00    -0.278 N 
ATOM      4  H   UNL     1       1.024  -5.976  -1.853  0.00  0.00    +0.155 HD
ENDROOT
BRANCH   3   5
ATOM      5  C   UNL     1       1.379  -5.943  -3.883  0.00  0.00    +0.037 A 
ATOM      6  C   UNL     1       0.816  -5.493  -5.071  0.00  0.00    +0.024 A 
ATOM      7  C   UNL     1       1.270  -5.985  -6.279  0.00  0.00    +0.016 A 
ATOM      8  C   UNL     1       2.285  -6.925  -6.306  0.00  0.00    +0.014 A 
ATOM      9  C   UNL     1       2.848  -7.375  -5.125  0.00  0.00    +0.019 A 
ATOM     10  C   UNL     1       2.402  -6.882  -3.915  0.00  0.00    -0.028 A 
ATOM     11  C   UNL     1       3.020  -7.368  -2.629  0.00  0.00    +0.046 C 
ATOM     12  I   UNL     1       2.971  -7.669  -8.141  0.00  0.00    -0.044 I 
ENDBRANCH   3   5
BRANCH   1  14
ATOM     13  N   UNL     1      -0.850  -2.545  -1.259  0.00  0.00    -0.305 N 
ATOM     14  C   UNL     1      -0.265  -3.757  -1.319  0.00  0.00    +0.300 C 
ATOM     15  O   UNL     1      -0.225  -4.461  -0.331  0.00  0.00    -0.265 OA
ATOM     16  H   UNL     1      -0.881  -1.982  -2.049  0.00  0.00    +0.149 HD
BRANCH  13  17
ATOM     17  C   UNL     1      -1.438  -2.076  -0.002  0.00  0.00    +0.070 C 
ATOM     18  C   UNL     1      -2.867  -2.609   0.122  0.00  0.00    +0.028 C 
BRANCH  17  19
ATOM     19  C   UNL     1      -1.462  -0.546   0.011  0.00  0.00    +0.022 C 
BRANCH  19  21
ATOM     20  C   UNL     1      -0.051   1.516   0.025  0.00  0.00    +0.004 C 
ATOM     21  C   UNL     1      -0.027  -0.014   0.012  0.00  0.00    -0.002 C 
ENDBRANCH  19  21
ENDBRANCH  17  19
ENDBRANCH  13  17
ENDBRANCH   1  14
TORSDOF 5
