REMARK  Name = ZINC48344934
REMARK  10 active torsions:
REMARK  status: ('A' for Active; 'I' for Inactive)
REMARK    1  A    between atoms: C_1  and  C_2
REMARK    2  A    between atoms: C_2  and  C_27
REMARK    3  A    between atoms: C_3  and  C_4
REMARK    4  A    between atoms: C_6  and  C_11
REMARK    5  A    between atoms: C_8  and  C_9
REMARK    6  A    between atoms: C_8  and  C_10
REMARK    7  A    between atoms: N_13  and  C_14
REMARK    8  A    between atoms: C_14  and  C_15
REMARK    9  A    between atoms: C_15  and  C_17
REMARK   10  A    between atoms: C_15  and  N_22
REMARK                            x       y       z     vdW  Elec       q    Type
REMARK                         _______ _______ _______ _____ _____    ______ ____
ROOT
ATOM      1  C   UNL     1       2.352  -1.626   2.550  0.00  0.00    +0.217 C 
ATOM      2  O   UNL     1       2.884  -2.123   1.580  0.00  0.00    -0.275 OA
ATOM      3  N   UNL     1       1.480  -2.346   3.283  0.00  0.00    -0.316 N 
ATOM      4  H   UNL     1       1.055  -1.948   4.059  0.00  0.00    +0.149 HD
ENDROOT
BRANCH   1   6
ATOM      5  C   UNL     1       1.548   0.830   2.799  0.00  0.00    +0.030 C 
ATOM      6  C   UNL     1       2.667  -0.204   2.936  0.00  0.00    +0.088 C 
ATOM      7  C   UNL     1       2.719   0.838   1.816  0.00  0.00    -0.016 C 
ATOM      8  C   UNL     1       3.744   1.966   1.948  0.00  0.00    +0.012 C 
ATOM      9  C   UNL     1       2.448   0.356   0.389  0.00  0.00    +0.012 C 
BRANCH   5  12
ATOM     10  C   UNL     1      -0.685   2.546   2.853  0.00  0.00    +0.038 C 
ATOM     11  C   UNL     1      -0.824   1.146   2.314  0.00  0.00    -0.079 C 
ATOM     12  C   UNL     1       0.214   0.348   2.289  0.00  0.00    -0.023 C 
ATOM     13  C   UNL     1      -2.158   0.664   1.803  0.00  0.00    +0.038 C 
ENDBRANCH   5  12
ENDBRANCH   1   6
BRANCH   3  14
ATOM     14  C   UNL     1       1.174  -3.728   2.908  0.00  0.00    +0.096 C 
BRANCH  14  15
ATOM     15  C   UNL     1       0.171  -4.317   3.903  0.00  0.00    +0.016 C 
BRANCH  15  16
ATOM     16  N   UNL     1      -0.032  -5.742   3.609  0.00  0.00    +0.387 N 
ATOM     17  C   UNL     1       1.214  -6.503   3.882  0.00  0.00    -0.078 C 
ATOM     18  C   UNL     1       0.708  -7.953   4.080  0.00  0.00    -0.020 C 
ATOM     19  C   UNL     1      -0.628  -7.753   4.831  0.00  0.00    -0.020 C 
ATOM     20  C   UNL     1      -1.056  -6.308   4.514  0.00  0.00    -0.078 C 
ATOM     21  H   UNL     1      -0.311  -5.863   2.648  0.00  0.00    -0.081 HD
ENDBRANCH  15  16
BRANCH  15  22
ATOM     22  C   UNL     1      -1.142  -3.587   3.783  0.00  0.00    +0.093 A 
ATOM     23  C   UNL     1      -1.575  -2.607   4.596  0.00  0.00    +0.043 A 
ATOM     24  C   UNL     1      -2.847  -2.212   4.121  0.00  0.00    +0.041 A 
ATOM     25  C   UNL     1      -3.115  -2.975   3.045  0.00  0.00    +0.195 A 
ATOM     26  O   UNL     1      -2.077  -3.802   2.842  0.00  0.00    -0.469 OA
ENDBRANCH  15  22
ENDBRANCH  14  15
ENDBRANCH   3  14
TORSDOF 6
