REMARK  Name = ZINC20686386
REMARK  7 active torsions:
REMARK  status: ('A' for Active; 'I' for Inactive)
REMARK    1  A    between atoms: C_1  and  N_2
REMARK    2  A    between atoms: N_2  and  C_3
REMARK    3  A    between atoms: N_2  and  C_4
REMARK    4  A    between atoms: C_7  and  C_10
REMARK    5  A    between atoms: C_23  and  C_26
REMARK    6  A    between atoms: C_26  and  O_28
REMARK    7  A    between atoms: O_28  and  C_29
REMARK                            x       y       z     vdW  Elec       q    Type
REMARK                         _______ _______ _______ _____ _____    ______ ____
ROOT
ATOM      1  C   UNL     1       0.353  -2.392  -5.392  0.00  0.00    +0.105 C 
ATOM      2  C   UNL     1      -1.116  -2.743  -5.637  0.00  0.00    +0.029 C 
ATOM      3  C   UNL     1      -1.835  -1.460  -6.142  0.00  0.00    +0.033 C 
ATOM      4  C   UNL     1      -1.513  -1.432  -7.623  0.00  0.00    -0.030 C 
ATOM      5  C   UNL     1      -1.177  -2.626  -8.043  0.00  0.00    -0.023 C 
ATOM      6  C   UNL     1      -1.216  -3.619  -6.905  0.00  0.00    +0.049 C 
ATOM      7  C   UNL     1      -0.066  -4.578  -7.002  0.00  0.00    -0.019 A 
ATOM      8  C   UNL     1      -0.100  -5.534  -8.007  0.00  0.00    +0.006 A 
ATOM      9  C   UNL     1       0.928  -6.446  -8.157  0.00  0.00    +0.001 A 
ATOM     10  C   UNL     1       2.010  -6.420  -7.305  0.00  0.00    +0.017 A 
ATOM     11  C   UNL     1       2.063  -5.467  -6.287  0.00  0.00    +0.080 A 
ATOM     12  C   UNL     1       1.013  -4.539  -6.135  0.00  0.00    +0.045 A 
ATOM     13  N   UNL     1       1.104  -3.615  -5.107  0.00  0.00    -0.336 N 
ATOM     14  H   UNL     1       1.655  -3.715  -4.160  0.00  0.00    +0.147 HD
ENDROOT
BRANCH   1  18
ATOM     15  C   UNL     1       0.644   0.269  -2.060  0.00  0.00    +0.029 A 
ATOM     16  C   UNL     1       0.493  -1.096  -1.850  0.00  0.00    +0.023 A 
ATOM     17  C   UNL     1       0.395  -1.952  -2.929  0.00  0.00    +0.007 A 
ATOM     18  C   UNL     1       0.456  -1.454  -4.217  0.00  0.00    -0.027 A 
ATOM     19  C   UNL     1       0.611  -0.097  -4.430  0.00  0.00    +0.007 A 
ATOM     20  C   UNL     1       0.706   0.766  -3.356  0.00  0.00    +0.023 A 
BRANCH  15  22
ATOM     21  C   UNL     1       0.905   2.577  -1.195  0.00  0.00    +0.129 C 
ATOM     22  N   UNL     1       0.740   1.139  -0.971  0.00  0.00    -0.336 N 
ATOM     23  C   UNL     1       0.675   0.612   0.395  0.00  0.00    +0.129 C 
ENDBRANCH  15  22
ENDBRANCH   1  18
BRANCH  11  24
ATOM     24  C   UNL     1       3.215  -5.431  -5.371  0.00  0.00    +0.341 C 
ATOM     25  O   UNL     1       3.207  -4.684  -4.413  0.00  0.00    -0.245 OA
BRANCH  24  26
ATOM     26  O   UNL     1       4.280  -6.227  -5.595  0.00  0.00    -0.464 OA
ATOM     27  C   UNL     1       5.379  -6.138  -4.651  0.00  0.00    +0.280 C 
ENDBRANCH  24  26
ENDBRANCH  11  24
TORSDOF 4
