REMARK  Name = ZINC21729674
REMARK  9 active torsions:
REMARK  status: ('A' for Active; 'I' for Inactive)
REMARK    1  A    between atoms: C_1  and  C_2
REMARK    2  A    between atoms: C_5  and  N_8
REMARK    3  A    between atoms: C_9  and  C_27
REMARK    4  A    between atoms: C_12  and  S_13
REMARK    5  A    between atoms: S_13  and  C_14
REMARK    6  A    between atoms: C_14  and  C_16
REMARK    7  A    between atoms: C_14  and  C_17
REMARK    8  A    between atoms: C_32  and  O_33
REMARK    9  A    between atoms: O_33  and  C_34
REMARK                            x       y       z     vdW  Elec       q    Type
REMARK                         _______ _______ _______ _____ _____    ______ ____
ROOT
ATOM      1  N   UNL     1       2.456   3.183  -0.019  0.00  0.00    -0.270 N 
ATOM      2  C   UNL     1       3.771   2.772   0.008  0.00  0.00    +0.173 A 
ATOM      3  N   UNL     1       3.769   1.466  -0.131  0.00  0.00    -0.128 NA
ATOM      4  N   UNL     1       2.563   1.037  -0.236  0.00  0.00    -0.122 NA
ATOM      5  C   UNL     1       1.718   2.040  -0.171  0.00  0.00    +0.197 A 
ENDROOT
BRANCH   1  10
ATOM      6  C   UNL     1       0.510   8.496   0.417  0.00  0.00    +0.044 C 
ATOM      7  C   UNL     1       1.026   7.085   0.302  0.00  0.00    -0.050 A 
ATOM      8  C   UNL     1       0.768   6.171   1.306  0.00  0.00    +0.005 A 
ATOM      9  C   UNL     1       1.240   4.877   1.202  0.00  0.00    +0.026 A 
ATOM     10  C   UNL     1       1.975   4.495   0.089  0.00  0.00    +0.051 A 
ATOM     11  C   UNL     1       2.238   5.417  -0.915  0.00  0.00    +0.026 A 
ATOM     12  C   UNL     1       1.759   6.708  -0.809  0.00  0.00    +0.005 A 
ENDBRANCH   1  10
BRANCH   2  13
ATOM     13  C   UNL     1       4.959   3.638   0.160  0.00  0.00    +0.061 A 
ATOM     14  C   UNL     1       4.998   4.604   1.166  0.00  0.00    +0.015 A 
ATOM     15  C   UNL     1       6.110   5.409   1.303  0.00  0.00    +0.001 A 
ATOM     16  C   UNL     1       7.188   5.262   0.447  0.00  0.00    +0.004 A 
ATOM     17  C   UNL     1       7.160   4.309  -0.553  0.00  0.00    +0.046 A 
ATOM     18  C   UNL     1       6.053   3.489  -0.701  0.00  0.00    +0.131 A 
BRANCH  18  19
ATOM     19  O   UNL     1       6.027   2.548  -1.680  0.00  0.00    -0.494 OA
ATOM     20  C   UNL     1       7.179   2.454  -2.520  0.00  0.00    +0.277 C 
ENDBRANCH  18  19
ENDBRANCH   2  13
BRANCH   5  21
ATOM     21  S   UNL     1      -0.039   1.936  -0.270  0.00  0.00    -0.073 S 
BRANCH  21  22
ATOM     22  C   UNL     1      -0.237   0.148  -0.469  0.00  0.00    +0.137 C 
ATOM     23  C   UNL     1       0.248  -0.563   0.796  0.00  0.00    +0.029 C 
BRANCH  22  24
ATOM     24  C   UNL     1      -1.691  -0.174  -0.700  0.00  0.00    +0.231 C 
ATOM     25  O   UNL     1      -2.547   0.622  -0.377  0.00  0.00    -0.274 OA
ATOM     26  N   UNL     1      -2.040  -1.346  -1.266  0.00  0.00    -0.269 N 
ATOM     27  C   UNL     1      -3.386  -1.690  -1.384  0.00  0.00    +0.125 A 
ATOM     28  C   UNL     1      -3.736  -2.945  -1.867  0.00  0.00    +0.045 A 
ATOM     29  C   UNL     1      -5.076  -3.274  -1.980  0.00  0.00    +0.025 A 
ATOM     30  C   UNL     1      -6.023  -2.330  -1.603  0.00  0.00    +0.059 A 
ATOM     31  C   UNL     1      -5.603  -1.101  -1.131  0.00  0.00    +0.132 A 
ATOM     32  N   UNL     1      -4.318  -0.819  -1.030  0.00  0.00    -0.239 NA
ATOM     33 CL   UNL     1      -7.717  -2.691  -1.725  0.00  0.00    -0.082 Cl
ATOM     34  H   UNL     1      -1.263  -2.032  -1.634  0.00  0.00    +0.156 HD
ENDBRANCH  22  24
ENDBRANCH  21  22
ENDBRANCH   5  21
TORSDOF 6
