REMARK  Name = ZINC01435016
REMARK  7 active torsions:
REMARK  status: ('A' for Active; 'I' for Inactive)
REMARK    1  A    between atoms: C_1  and  C_2
REMARK    2  A    between atoms: C_7  and  C_8
REMARK    3  A    between atoms: C_12  and  N_17
REMARK    4  A    between atoms: C_18  and  C_19
REMARK    5  A    between atoms: C_23  and  O_26
REMARK    6  A    between atoms: C_24  and  O_25
REMARK    7  A    between atoms: O_26  and  C_27
REMARK                            x       y       z     vdW  Elec       q    Type
REMARK                         _______ _______ _______ _____ _____    ______ ____
ROOT
ATOM      1  C   UNL     1       0.172   0.152   2.407  0.00  0.00    +0.229 A 
ATOM      2  N   UNL     1       0.375  -0.340   3.602  0.00  0.00    -0.209 NA
ATOM      3  C   UNL     1       0.386   0.680   4.499  0.00  0.00    +0.112 A 
ATOM      4  C   UNL     1       0.557   0.742   5.882  0.00  0.00    +0.059 A 
ATOM      5  C   UNL     1       0.513   1.975   6.525  0.00  0.00    +0.066 A 
ATOM      6  C   UNL     1       0.299   3.145   5.786  0.00  0.00    +0.031 A 
ATOM      7  C   UNL     1       0.131   3.085   4.422  0.00  0.00    +0.050 A 
ATOM      8  C   UNL     1       0.172   1.862   3.768  0.00  0.00    +0.156 A 
ATOM      9  O   UNL     1       0.050   1.492   2.473  0.00  0.00    -0.435 OA
ENDROOT
BRANCH   1  16
ATOM     10  C   UNL     1      -1.976   0.636   0.530  0.00  0.00    +0.044 C 
ATOM     11  C   UNL     1      -0.937  -0.420   0.251  0.00  0.00    -0.038 A 
ATOM     12  C   UNL     1      -1.001  -1.164  -0.909  0.00  0.00    +0.004 A 
ATOM     13  C   UNL     1      -0.048  -2.133  -1.167  0.00  0.00    +0.000 A 
ATOM     14  C   UNL     1       0.974  -2.364  -0.263  0.00  0.00    +0.001 A 
ATOM     15  C   UNL     1       1.049  -1.628   0.901  0.00  0.00    +0.013 A 
ATOM     16  C   UNL     1       0.094  -0.644   1.164  0.00  0.00    +0.040 A 
ENDBRANCH   1  16
BRANCH   5  17
ATOM     17  N   UNL     1       0.679   2.043   7.882  0.00  0.00    -0.255 NA
ATOM     18  C   UNL     1       1.461   2.950   8.398  0.00  0.00    +0.123 C 
BRANCH  18  19
ATOM     19  C   UNL     1       1.639   3.024   9.856  0.00  0.00    +0.039 A 
ATOM     20  C   UNL     1       2.473   3.999  10.414  0.00  0.00    +0.028 A 
ATOM     21  C   UNL     1       2.637   4.065  11.781  0.00  0.00    +0.022 A 
ATOM     22  C   UNL     1       1.978   3.169  12.609  0.00  0.00    +0.064 A 
ATOM     23  C   UNL     1       1.150   2.198  12.071  0.00  0.00    +0.163 A 
ATOM     24  C   UNL     1       0.970   2.122  10.694  0.00  0.00    +0.167 A 
ATOM     25 BR   UNL     1       3.765   5.384  12.531  0.00  0.00    -0.050 Br
BRANCH  24  26
ATOM     26  O   UNL     1       0.153   1.175  10.164  0.00  0.00    -0.503 OA
ATOM     27  H   UNL     1       0.600   0.343   9.956  0.00  0.00    +0.292 HD
ENDBRANCH  24  26
BRANCH  23  28
ATOM     28  O   UNL     1       0.508   1.322  12.890  0.00  0.00    -0.491 OA
ATOM     29  C   UNL     1       0.735   1.462  14.294  0.00  0.00    +0.277 C 
ENDBRANCH  23  28
ENDBRANCH  18  19
ENDBRANCH   5  17
TORSDOF 5
