REMARK  Name = ZINC06108351
REMARK  5 active torsions:
REMARK  status: ('A' for Active; 'I' for Inactive)
REMARK    1  A    between atoms: C_1  and  C_2
REMARK    2  A    between atoms: C_2  and  C_19
REMARK    3  A    between atoms: N_5  and  C_9
REMARK    4  A    between atoms: C_9  and  C_10
REMARK    5  A    between atoms: C_13  and  N_16
REMARK                            x       y       z     vdW  Elec       q    Type
REMARK                         _______ _______ _______ _____ _____    ______ ____
ROOT
ATOM      1  C   UNL     1      -2.971   0.692  -1.413  0.00  0.00    +0.047 C 
ATOM      2  C   UNL     1      -2.513   0.975   0.019  0.00  0.00    +0.135 C 
ATOM      3  C   UNL     1      -3.583   1.729   0.783  0.00  0.00    +0.251 C 
ATOM      4  O   UNL     1      -4.035   2.823   0.523  0.00  0.00    -0.272 OA
ATOM      5  N   UNL     1      -3.929   0.929   1.811  0.00  0.00    -0.220 N 
ATOM      6  C   UNL     1      -3.233  -0.213   1.803  0.00  0.00    +0.310 C 
ATOM      7  O   UNL     1      -3.369  -1.093   2.631  0.00  0.00    -0.252 OA
ATOM      8  N   UNL     1      -2.365  -0.282   0.773  0.00  0.00    -0.281 N 
ATOM      9  H   UNL     1      -1.761  -1.013   0.569  0.00  0.00    +0.152 HD
ENDROOT
BRANCH   2  10
ATOM     10  C   UNL     1      -1.219   1.748   0.017  0.00  0.00    -0.015 A 
ATOM     11  C   UNL     1      -1.239   3.130   0.030  0.00  0.00    +0.006 A 
ATOM     12  C   UNL     1      -0.052   3.836   0.022  0.00  0.00    +0.004 A 
ATOM     13  C   UNL     1       1.159   3.164   0.008  0.00  0.00    -0.044 A 
ATOM     14  C   UNL     1       1.179   1.782   0.000  0.00  0.00    -0.044 A 
ATOM     15  C   UNL     1      -0.013   1.076   0.008  0.00  0.00    +0.010 A 
ATOM     16  C   UNL     1       2.610   1.291  -0.016  0.00  0.00    +0.036 C 
ATOM     17  C   UNL     1       3.450   2.509  -0.459  0.00  0.00    +0.009 C 
ATOM     18  C   UNL     1       2.576   3.696  -0.004  0.00  0.00    +0.036 C 
ENDBRANCH   2  10
BRANCH   5  19
ATOM     19  C   UNL     1      -4.941   1.269   2.814  0.00  0.00    +0.153 C 
BRANCH  19  20
ATOM     20  C   UNL     1      -6.290   0.782   2.352  0.00  0.00    -0.029 A 
ATOM     21  C   UNL     1      -7.102   1.608   1.597  0.00  0.00    +0.007 A 
ATOM     22  C   UNL     1      -8.337   1.159   1.168  0.00  0.00    +0.033 A 
ATOM     23  C   UNL     1      -8.765  -0.112   1.503  0.00  0.00    +0.126 A 
ATOM     24  C   UNL     1      -7.956  -0.936   2.263  0.00  0.00    +0.033 A 
ATOM     25  C   UNL     1      -6.718  -0.489   2.687  0.00  0.00    +0.007 A 
BRANCH  23  26
ATOM     26  N   UNL     1     -10.090  -0.591   1.049  0.00  0.00    +0.056 N 
ATOM     27  O   UNL     1     -10.467  -1.710   1.344  0.00  0.00    -0.126 OA
ATOM     28  O   UNL     1     -10.803   0.136   0.379  0.00  0.00    -0.126 OA
ENDBRANCH  23  26
ENDBRANCH  19  20
ENDBRANCH   5  19
TORSDOF 4
