REMARK  Name = ZINC22506432
REMARK  12 active torsions:
REMARK  status: ('A' for Active; 'I' for Inactive)
REMARK    1  A    between atoms: C_1  and  C_2
REMARK    2  A    between atoms: C_2  and  O_3
REMARK    3  A    between atoms: O_3  and  C_4
REMARK    4  A    between atoms: C_7  and  O_10
REMARK    5  A    between atoms: O_10  and  C_11
REMARK    6  A    between atoms: C_11  and  C_13
REMARK    7  A    between atoms: C_11  and  C_14
REMARK    8  A    between atoms: N_16  and  N_17
REMARK    9  A    between atoms: C_18  and  C_20
REMARK   10  A    between atoms: C_21  and  C_35
REMARK   11  A    between atoms: C_23  and  C_34
REMARK   12  A    between atoms: C_25  and  C_29
REMARK                            x       y       z     vdW  Elec       q    Type
REMARK                         _______ _______ _______ _____ _____    ______ ____
ROOT
ATOM      1  N   UNL     1       1.327  -1.174   3.586  0.00  0.00    -0.230 N 
ATOM      2  C   UNL     1       1.364  -2.466   3.967  0.00  0.00    +0.267 C 
ATOM      3  O   UNL     1       0.907  -3.328   3.239  0.00  0.00    -0.268 OA
ATOM      4  H   UNL     1       1.739  -0.394   4.243  0.00  0.00    +0.173 HD
ENDROOT
BRANCH   2   5
ATOM      5  C   UNL     1       1.955  -2.833   5.260  0.00  0.00    +0.081 A 
ATOM      6  C   UNL     1       2.077  -4.070   5.815  0.00  0.00    -0.020 A 
ATOM      7  C   UNL     1       2.682  -4.215   7.072  0.00  0.00    +0.032 A 
ATOM      8  C   UNL     1       2.914  -5.396   7.824  0.00  0.00    +0.051 A 
ATOM      9  N   UNL     1       3.498  -5.311   8.996  0.00  0.00    -0.229 NA
ATOM     10  C   UNL     1       3.887  -4.147   9.516  0.00  0.00    +0.197 A 
ATOM     11  N   UNL     1       3.698  -3.005   8.861  0.00  0.00    -0.217 NA
ATOM     12  C   UNL     1       3.121  -3.009   7.682  0.00  0.00    +0.113 A 
ATOM     13  S   UNL     1       2.682  -1.767   6.493  0.00  0.00    -0.064 S 
ATOM     14  C   UNL     1       2.492  -6.737   7.281  0.00  0.00    +0.066 C 
ATOM     15  C   UNL     1       1.568  -5.282   5.078  0.00  0.00    +0.046 C 
BRANCH  10  16
ATOM     16  C   UNL     1       4.537  -4.125  10.839  0.00  0.00    +0.172 A 
ATOM     17  C   UNL     1       4.985  -3.017  11.492  0.00  0.00    +0.053 A 
ATOM     18  C   UNL     1       5.531  -3.458  12.711  0.00  0.00    +0.042 A 
ATOM     19  C   UNL     1       5.392  -4.799  12.745  0.00  0.00    +0.196 A 
ATOM     20  O   UNL     1       4.787  -5.198  11.616  0.00  0.00    -0.460 OA
ENDBRANCH  10  16
ENDBRANCH   2   5
BRANCH   1  23
ATOM     21  C   UNL     1       0.726   0.469   1.971  0.00  0.00    +0.270 C 
ATOM     22  O   UNL     1       1.181   1.328   2.696  0.00  0.00    -0.270 OA
ATOM     23  N   UNL     1       0.763  -0.823   2.352  0.00  0.00    -0.231 N 
ATOM     24  H   UNL     1       0.350  -1.603   1.694  0.00  0.00    +0.173 HD
BRANCH  21  25
ATOM     25  C   UNL     1       0.119   0.846   0.644  0.00  0.00    +0.257 C 
ATOM     26  C   UNL     1       0.959   0.252  -0.488  0.00  0.00    +0.062 C 
BRANCH  25  27
ATOM     27  O   UNL     1       0.092   2.269   0.520  0.00  0.00    -0.480 OA
BRANCH  27  31
ATOM     28  C   UNL     1      -2.752   3.876  -2.005  0.00  0.00    +0.121 A 
ATOM     29  C   UNL     1      -2.591   2.501  -1.927  0.00  0.00    +0.049 A 
ATOM     30  C   UNL     1      -1.640   1.963  -1.083  0.00  0.00    +0.049 A 
ATOM     31  C   UNL     1      -0.845   2.799  -0.312  0.00  0.00    +0.122 A 
ATOM     32  C   UNL     1      -1.010   4.174  -0.385  0.00  0.00    +0.049 A 
ATOM     33  C   UNL     1      -1.958   4.712  -1.233  0.00  0.00    +0.049 A 
BRANCH  28  34
ATOM     34  O   UNL     1      -3.688   4.406  -2.837  0.00  0.00    -0.492 OA
BRANCH  34  36
ATOM     35  C   UNL     1      -4.897   6.236  -3.851  0.00  0.00    +0.048 C 
ATOM     36  C   UNL     1      -3.800   5.830  -2.865  0.00  0.00    +0.225 C 
ENDBRANCH  34  36
ENDBRANCH  28  34
ENDBRANCH  27  31
ENDBRANCH  25  27
ENDBRANCH  21  25
ENDBRANCH   1  23
TORSDOF 8
