REMARK  Name = ZINC40062309
REMARK  8 active torsions:
REMARK  status: ('A' for Active; 'I' for Inactive)
REMARK    1  A    between atoms: C_1  and  C_2
REMARK    2  A    between atoms: C_2  and  N_3
REMARK    3  A    between atoms: N_6  and  C_9
REMARK    4  A    between atoms: C_10  and  C_25
REMARK    5  A    between atoms: C_12  and  C_14
REMARK    6  A    between atoms: C_16  and  C_21
REMARK    7  A    between atoms: C_18  and  C_19
REMARK    8  A    between atoms: C_18  and  C_20
REMARK                            x       y       z     vdW  Elec       q    Type
REMARK                         _______ _______ _______ _____ _____    ______ ____
ROOT
ATOM      1  C   UNL     1      -2.716  -4.020   4.822  0.00  0.00    +0.227 A 
ATOM      2  C   UNL     1      -3.127  -3.993   6.144  0.00  0.00    +0.201 A 
ATOM      3  N   UNL     1      -2.352  -4.893   6.814  0.00  0.00    -0.200 NA
ATOM      4  C   UNL     1      -1.525  -5.436   5.974  0.00  0.00    +0.203 A 
ATOM      5  O   UNL     1      -1.726  -4.928   4.747  0.00  0.00    -0.424 OA
ENDROOT
BRANCH   1   9
ATOM      6  N   UNL     1      -3.588  -2.254   1.206  0.00  0.00    +0.382 N 
ATOM      7  C   UNL     1      -3.987  -3.637   1.499  0.00  0.00    -0.060 C 
ATOM      8  C   UNL     1      -4.357  -3.757   2.981  0.00  0.00    +0.089 C 
ATOM      9  N   UNL     1      -3.226  -3.268   3.785  0.00  0.00    -0.303 N 
ATOM     10  C   UNL     1      -2.655  -1.954   3.451  0.00  0.00    +0.089 C 
ATOM     11  C   UNL     1      -2.365  -1.919   1.946  0.00  0.00    -0.060 C 
ATOM     12  H   UNL     1      -4.329  -1.627   1.481  0.00  0.00    -0.082 HD
BRANCH   6  14
ATOM     13  C   UNL     1      -4.644  -2.341  -1.002  0.00  0.00    -0.017 C 
ATOM     14  C   UNL     1      -3.339  -2.114  -0.235  0.00  0.00    -0.082 C 
ENDBRANCH   6  14
ENDBRANCH   1   9
BRANCH   4  15
ATOM     15  C   UNL     1      -0.498  -6.483   6.322  0.00  0.00    +0.089 C 
ATOM     16  C   UNL     1       0.303  -7.096   5.172  0.00  0.00    +0.033 C 
ATOM     17  C   UNL     1       0.975  -6.116   6.136  0.00  0.00    -0.016 C 
ATOM     18  C   UNL     1       1.294  -4.714   5.612  0.00  0.00    +0.012 C 
ATOM     19  C   UNL     1       1.978  -6.689   7.140  0.00  0.00    +0.012 C 
BRANCH  16  20
ATOM     20  C   UNL     1       0.004  -6.607   3.778  0.00  0.00    +0.010 C 
ATOM     21  C   UNL     1      -0.520  -7.424   2.893  0.00  0.00    +0.103 C 
ATOM     22 CL   UNL     1      -0.869  -9.068   3.330  0.00  0.00    -0.071 Cl
ATOM     23 CL   UNL     1      -0.863  -6.861   1.288  0.00  0.00    -0.071 Cl
ENDBRANCH  16  20
ENDBRANCH   4  15
BRANCH   2  24
ATOM     24  C   UNL     1      -4.164  -3.178   6.701  0.00  0.00    +0.124 C 
ATOM     25  N   UNL     1      -4.987  -2.531   7.142  0.00  0.00    -0.189 NA
ENDBRANCH   2  24
TORSDOF 5
