REMARK  Name = ZINC66930634
REMARK  5 active torsions:
REMARK  status: ('A' for Active; 'I' for Inactive)
REMARK    1  A    between atoms: C_10  and  C_11
REMARK    2  A    between atoms: C_10  and  O_28
REMARK    3  A    between atoms: C_11  and  N_12
REMARK    4  A    between atoms: C_13  and  C_15
REMARK    5  A    between atoms: C_21  and  C_23
REMARK                            x       y       z     vdW  Elec       q    Type
REMARK                         _______ _______ _______ _____ _____    ______ ____
ROOT
ATOM      1  N   UNL     1       4.837   1.444   0.478  0.00  0.00    -0.311 N 
ATOM      2  C   UNL     1       5.710   2.251   1.112  0.00  0.00    +0.234 C 
ATOM      3  O   UNL     1       6.373   1.823   2.033  0.00  0.00    -0.274 OA
ATOM      4  H   UNL     1       4.306   1.786  -0.259  0.00  0.00    +0.149 HD
ENDROOT
BRANCH   2   5
ATOM      5  C   UNL     1       5.862   3.686   0.677  0.00  0.00    +0.162 C 
ATOM      6  C   UNL     1       6.772   3.764  -0.567  0.00  0.00    +0.033 C 
ATOM      7  C   UNL     1       7.604   5.048  -0.310  0.00  0.00    +0.021 C 
ATOM      8  C   UNL     1       7.785   4.998   1.228  0.00  0.00    +0.109 C 
ATOM      9  N   UNL     1       6.507   4.466   1.743  0.00  0.00    -0.286 N 
ATOM     10  C   UNL     1       6.013   4.662   2.982  0.00  0.00    +0.254 C 
ATOM     11  O   UNL     1       4.944   4.171   3.295  0.00  0.00    -0.269 OA
BRANCH  10  12
ATOM     12  C   UNL     1       6.764   5.465   3.952  0.00  0.00    +0.074 A 
ATOM     13  C   UNL     1       6.440   5.779   5.263  0.00  0.00    +0.021 A 
ATOM     14  C   UNL     1       7.352   6.560   5.932  0.00  0.00    +0.008 A 
ATOM     15  C   UNL     1       8.475   6.962   5.287  0.00  0.00    +0.046 A 
ATOM     16  S   UNL     1       8.334   6.286   3.755  0.00  0.00    -0.092 S 
ENDBRANCH  10  12
ENDBRANCH   2   5
BRANCH   1  17
ATOM     17  C   UNL     1       4.689   0.049   0.901  0.00  0.00    +0.143 C 
BRANCH  17  27
ATOM     18  C   UNL     1       3.502  -4.769   1.163  0.00  0.00    +0.000 A 
ATOM     19  C   UNL     1       3.495  -3.749   2.096  0.00  0.00    +0.000 A 
ATOM     20  C   UNL     1       3.578  -2.438   1.677  0.00  0.00    +0.007 A 
ATOM     21  C   UNL     1       3.670  -2.133   0.325  0.00  0.00    -0.011 A 
ATOM     22  C   UNL     1       3.682  -3.149  -0.604  0.00  0.00    -0.041 A 
ATOM     23  C   UNL     1       3.594  -4.469  -0.180  0.00  0.00    +0.004 A 
ATOM     24  C   UNL     1       3.796  -2.893  -2.084  0.00  0.00    +0.035 C 
ATOM     25  C   UNL     1       3.451  -1.440  -2.406  0.00  0.00    +0.008 C 
ATOM     26  C   UNL     1       4.277  -0.532  -1.488  0.00  0.00    +0.041 C 
ATOM     27  C   UNL     1       3.750  -0.679  -0.063  0.00  0.00    +0.107 C 
BRANCH  27  28
ATOM     28  O   UNL     1       2.447  -0.097   0.020  0.00  0.00    -0.382 OA
ATOM     29  H   UNL     1       2.054  -0.138   0.902  0.00  0.00    +0.211 HD
ENDBRANCH  27  28
ENDBRANCH  17  27
ENDBRANCH   1  17
TORSDOF 5
