REMARK  Name = ZINC12302016
REMARK  8 active torsions:
REMARK  status: ('A' for Active; 'I' for Inactive)
REMARK    1  A    between atoms: C_1  and  O_2
REMARK    2  A    between atoms: O_2  and  C_3
REMARK    3  A    between atoms: C_3  and  C_4
REMARK    4  A    between atoms: C_7  and  C_9
REMARK    5  A    between atoms: C_9  and  N_56
REMARK    6  A    between atoms: C_22  and  C_24
REMARK    7  A    between atoms: C_28  and  O_30
REMARK    8  A    between atoms: O_30  and  C_31
REMARK                            x       y       z     vdW  Elec       q    Type
REMARK                         _______ _______ _______ _____ _____    ______ ____
ROOT
ATOM      1  C   UNL     1      -0.573   3.452  -1.332  0.00  0.00    -0.072 C 
ATOM      2  C   UNL     1       0.871   3.796  -1.720  0.00  0.00    +0.019 C 
ATOM      3  C   UNL     1       1.794   3.060  -0.781  0.00  0.00    -0.022 A 
ATOM      4  C   UNL     1       3.200   3.276  -0.522  0.00  0.00    +0.003 A 
ATOM      5  C   UNL     1       4.131   4.188  -1.030  0.00  0.00    +0.010 A 
ATOM      6  C   UNL     1       5.412   4.103  -0.544  0.00  0.00    +0.001 A 
ATOM      7  C   UNL     1       5.779   3.161   0.404  0.00  0.00    +0.002 A 
ATOM      8  C   UNL     1       4.879   2.247   0.923  0.00  0.00    +0.026 A 
ATOM      9  C   UNL     1       3.570   2.309   0.448  0.00  0.00    +0.047 A 
ATOM     10  N   UNL     1       2.455   1.575   0.738  0.00  0.00    -0.359 N 
ATOM     11  H   UNL     1       2.420   0.842   1.373  0.00  0.00    +0.166 HD
ATOM     12  C   UNL     1       1.397   2.030  -0.000  0.00  0.00    +0.011 A 
ATOM     13  C   UNL     1      -0.018   1.503   0.010  0.00  0.00    +0.011 C 
ATOM     14  N   UNL     1      -0.696   1.981  -1.218  0.00  0.00    +0.393 N 
ATOM     15  H   UNL     1      -0.250   1.546  -2.035  0.00  0.00    -0.080 HD
ENDROOT
BRANCH  13  16
ATOM     16  C   UNL     1       0.002  -0.004   0.002  0.00  0.00    -0.052 A 
ATOM     17  C   UNL     1       0.203  -0.685  -1.184  0.00  0.00    +0.005 A 
ATOM     18  C   UNL     1       0.228  -2.067  -1.195  0.00  0.00    +0.042 A 
ATOM     19  C   UNL     1       0.041  -2.772  -0.020  0.00  0.00    +0.165 A 
ATOM     20  C   UNL     1      -0.166  -2.090   1.172  0.00  0.00    +0.155 A 
ATOM     21  C   UNL     1      -0.185  -0.703   1.179  0.00  0.00    +0.051 A 
ATOM     22  F   UNL     1       0.060  -4.123  -0.031  0.00  0.00    -0.202 F 
BRANCH  20  23
ATOM     23  O   UNL     1      -0.351  -2.779   2.329  0.00  0.00    -0.492 OA
ATOM     24  C   UNL     1      -0.559  -2.011   3.516  0.00  0.00    +0.277 C 
ENDBRANCH  20  23
ENDBRANCH  13  16
BRANCH  14  25
ATOM     25  C   UNL     1      -2.122   1.595  -1.189  0.00  0.00    -0.002 C 
BRANCH  25  29
ATOM     26  C   UNL     1      -4.002   3.837  -3.373  0.00  0.00    +0.131 A 
ATOM     27  C   UNL     1      -3.743   2.852  -4.251  0.00  0.00    +0.047 A 
ATOM     28  C   UNL     1      -3.001   1.869  -3.557  0.00  0.00    +0.043 A 
ATOM     29  C   UNL     1      -2.850   2.314  -2.296  0.00  0.00    +0.089 A 
ATOM     30  O   UNL     1      -3.464   3.503  -2.189  0.00  0.00    -0.464 OA
BRANCH  26  31
ATOM     31  C   UNL     1      -4.771   5.100  -3.667  0.00  0.00    +0.233 C 
BRANCH  31  33
ATOM     32  C   UNL     1      -6.982   6.025  -3.656  0.00  0.00    +0.194 C 
ATOM     33  O   UNL     1      -6.159   4.884  -3.408  0.00  0.00    -0.375 OA
ENDBRANCH  31  33
ENDBRANCH  26  31
ENDBRANCH  25  29
ENDBRANCH  14  25
TORSDOF 6
