REMARK  Name = ZINC06886046
REMARK  7 active torsions:
REMARK  status: ('A' for Active; 'I' for Inactive)
REMARK    1  A    between atoms: C_10  and  C_11
REMARK    2  A    between atoms: C_12  and  C_13
REMARK    3  A    between atoms: N_15  and  C_16
REMARK    4  A    between atoms: C_16  and  N_18
REMARK    5  A    between atoms: N_18  and  N_19
REMARK    6  A    between atoms: C_20  and  C_22
REMARK    7  A    between atoms: C_25  and  O_28
REMARK                            x       y       z     vdW  Elec       q    Type
REMARK                         _______ _______ _______ _____ _____    ______ ____
ROOT
ATOM      1  C   UNL     1       5.961  -4.830  -0.081  0.00  0.00    +0.242 C 
ATOM      2  O   UNL     1       5.981  -6.047  -0.087  0.00  0.00    -0.270 OA
ATOM      3  N   UNL     1       4.783  -4.176  -0.066  0.00  0.00    -0.263 N 
ATOM      4  H   UNL     1       4.766  -3.206  -0.061  0.00  0.00    +0.157 HD
ENDROOT
BRANCH   1   6
ATOM      5  C   UNL     1       8.396  -4.735  -0.104  0.00  0.00    +0.013 C 
ATOM      6  C   UNL     1       7.214  -4.079  -0.089  0.00  0.00    +0.068 C 
BRANCH   5  16
ATOM      7  C   UNL     1      13.413  -5.927  -0.159  0.00  0.00    +0.001 A 
ATOM      8  C   UNL     1      12.240  -6.679  -0.151  0.00  0.00    +0.001 A 
ATOM      9  C   UNL     1      11.019  -6.072  -0.135  0.00  0.00    +0.009 A 
ATOM     10  C   UNL     1      10.942  -4.675  -0.128  0.00  0.00    -0.011 A 
ATOM     11  C   UNL     1      12.132  -3.907  -0.137  0.00  0.00    -0.017 A 
ATOM     12  C   UNL     1      13.373  -4.566  -0.152  0.00  0.00    +0.008 A 
ATOM     13  C   UNL     1      12.049  -2.504  -0.129  0.00  0.00    +0.008 A 
ATOM     14  C   UNL     1      10.840  -1.879  -0.114  0.00  0.00    +0.001 A 
ATOM     15  C   UNL     1       9.648  -2.588  -0.111  0.00  0.00    +0.008 A 
ATOM     16  C   UNL     1       9.654  -3.981  -0.112  0.00  0.00    -0.017 A 
ENDBRANCH   5  16
ENDBRANCH   1   6
BRANCH   3  17
ATOM     17  C   UNL     1       3.627  -4.870  -0.058  0.00  0.00    +0.153 C 
ATOM     18  S   UNL     1       3.655  -6.581  -0.067  0.00  0.00    -0.017 S 
BRANCH  17  19
ATOM     19  N   UNL     1       2.449  -4.215  -0.043  0.00  0.00    -0.245 N 
ATOM     20  H   UNL     1       1.617  -4.714  -0.037  0.00  0.00    +0.172 HD
BRANCH  19  21
ATOM     21  N   UNL     1       2.425  -2.814  -0.036  0.00  0.00    -0.231 N 
ATOM     22  C   UNL     1       1.247  -2.160  -0.021  0.00  0.00    +0.260 C 
ATOM     23  O   UNL     1       0.204  -2.785  -0.014  0.00  0.00    -0.269 OA
ATOM     24  H   UNL     1       3.257  -2.315  -0.041  0.00  0.00    +0.173 HD
BRANCH  22  25
ATOM     25  C   UNL     1       1.223  -0.684  -0.013  0.00  0.00    +0.038 A 
ATOM     26  C   UNL     1       0.002  -0.004   0.002  0.00  0.00    +0.016 A 
ATOM     27  C   UNL     1      -0.017   1.373   0.010  0.00  0.00    +0.046 A 
ATOM     28  C   UNL     1       1.177   2.086   0.002  0.00  0.00    +0.117 A 
ATOM     29  C   UNL     1       2.393   1.413  -0.013  0.00  0.00    +0.046 A 
ATOM     30  C   UNL     1       2.420   0.036  -0.021  0.00  0.00    +0.016 A 
BRANCH  28  31
ATOM     31  O   UNL     1       1.154   3.443   0.009  0.00  0.00    -0.507 OA
ATOM     32  H   UNL     1       1.156   3.832   0.894  0.00  0.00    +0.292 HD
ENDBRANCH  28  31
ENDBRANCH  22  25
ENDBRANCH  19  21
ENDBRANCH  17  19
ENDBRANCH   3  17
TORSDOF 7
