REMARK  Name = ZINC39654955
REMARK  7 active torsions:
REMARK  status: ('A' for Active; 'I' for Inactive)
REMARK    1  A    between atoms: C_1  and  C_2
REMARK    2  A    between atoms: C_2  and  C_3
REMARK    3  A    between atoms: C_3  and  C_5
REMARK    4  A    between atoms: C_3  and  C_11
REMARK    5  A    between atoms: C_15  and  C_24
REMARK    6  A    between atoms: N_26  and  C_27
REMARK    7  A    between atoms: C_27  and  C_28
REMARK                            x       y       z     vdW  Elec       q    Type
REMARK                         _______ _______ _______ _____ _____    ______ ____
ROOT
ATOM      1  C   UNL     1       0.515  -1.734  -1.205  0.00  0.00    +0.223 C 
ATOM      2  O   UNL     1       1.578  -2.317  -1.175  0.00  0.00    -0.275 OA
ATOM      3  N   UNL     1      -0.634  -2.432  -1.300  0.00  0.00    -0.300 N 
ATOM      4  C   UNL     1      -2.017  -1.902  -1.357  0.00  0.00    +0.121 C 
ATOM      5  C   UNL     1      -2.737  -2.801  -2.386  0.00  0.00    +0.100 C 
ATOM      6  C   UNL     1      -1.935  -4.113  -2.390  0.00  0.00    -0.004 C 
ATOM      7  C   UNL     1      -0.799  -3.903  -1.379  0.00  0.00    +0.115 C 
ATOM      8  C   UNL     1      -2.822  -5.276  -1.956  0.00  0.00    -0.010 C 
ATOM      9  C   UNL     1      -2.019  -6.578  -2.024  0.00  0.00    -0.082 C 
ATOM     10  N   UNL     1      -1.539  -6.788  -3.396  0.00  0.00    +0.379 N 
ATOM     11  C   UNL     1      -0.613  -5.713  -3.772  0.00  0.00    -0.082 C 
ATOM     12  C   UNL     1      -1.357  -4.375  -3.778  0.00  0.00    -0.010 C 
ATOM     13  H   UNL     1      -1.062  -7.676  -3.452  0.00  0.00    -0.086 HD
ATOM     14  H   UNL     1      -2.325  -6.791  -4.029  0.00  0.00    -0.086 HD
ENDROOT
BRANCH   5  15
ATOM     15  C   UNL     1      -2.711  -2.162  -3.751  0.00  0.00    +0.219 C 
ATOM     16  O   UNL     1      -1.787  -1.442  -4.065  0.00  0.00    -0.275 OA
ATOM     17  N   UNL     1      -3.713  -2.392  -4.622  0.00  0.00    -0.308 N 
ATOM     18  H   UNL     1      -4.451  -2.968  -4.371  0.00  0.00    +0.149 HD
BRANCH  17  19
ATOM     19  C   UNL     1      -3.686  -1.771  -5.949  0.00  0.00    +0.178 C 
BRANCH  19  20
ATOM     20  C   UNL     1      -4.912  -2.185  -6.722  0.00  0.00    +0.122 A 
ATOM     21  C   UNL     1      -6.090  -1.536  -6.736  0.00  0.00    +0.046 A 
ATOM     22  C   UNL     1      -6.951  -2.267  -7.586  0.00  0.00    +0.041 A 
ATOM     23  C   UNL     1      -6.248  -3.321  -8.040  0.00  0.00    +0.195 A 
ATOM     24  O   UNL     1      -5.012  -3.262  -7.518  0.00  0.00    -0.466 OA
ENDBRANCH  19  20
ENDBRANCH  17  19
ENDBRANCH   5  15
BRANCH   1  25
ATOM     25  C   UNL     1       0.478  -0.229  -1.136  0.00  0.00    +0.105 C 
BRANCH  25  26
ATOM     26  C   UNL     1       1.885   0.304  -1.034  0.00  0.00    -0.036 A 
ATOM     27  C   UNL     1       2.688  -0.065   0.029  0.00  0.00    +0.004 A 
ATOM     28  C   UNL     1       3.978   0.424   0.122  0.00  0.00    +0.000 A 
ATOM     29  C   UNL     1       4.465   1.280  -0.848  0.00  0.00    +0.000 A 
ATOM     30  C   UNL     1       3.661   1.648  -1.911  0.00  0.00    +0.000 A 
ATOM     31  C   UNL     1       2.373   1.156  -2.007  0.00  0.00    +0.004 A 
ENDBRANCH  25  26
BRANCH  25  33
ATOM     32  C   UNL     1      -0.465   1.729   0.097  0.00  0.00    +0.005 C 
ATOM     33  C   UNL     1      -0.321   0.206   0.094  0.00  0.00    +0.014 C 
ENDBRANCH  25  33
ENDBRANCH   1  25
TORSDOF 6
