REMARK  Name = ZINC58949093
REMARK  7 active torsions:
REMARK  status: ('A' for Active; 'I' for Inactive)
REMARK    1  A    between atoms: C_1  and  C_2
REMARK    2  A    between atoms: C_3  and  C_23
REMARK    3  A    between atoms: C_4  and  C_13
REMARK    4  A    between atoms: C_6  and  C_10
REMARK    5  A    between atoms: C_7  and  N_9
REMARK    6  A    between atoms: C_17  and  N_19
REMARK    7  A    between atoms: C_23  and  C_25
REMARK                            x       y       z     vdW  Elec       q    Type
REMARK                         _______ _______ _______ _____ _____    ______ ____
ROOT
ATOM      1  C   UNL     1      -0.142   1.498  -0.047  0.00  0.00    +0.086 C 
ATOM      2  C   UNL     1      -0.057  -0.007  -0.025  0.00  0.00    +0.112 C 
ATOM      3  C   UNL     1      -1.192  -0.723   0.057  0.00  0.00    +0.044 C 
ATOM      4  C   UNL     1      -1.161  -2.227   0.083  0.00  0.00    +0.096 C 
ATOM      5  C   UNL     1       0.180  -2.721  -0.385  0.00  0.00    +0.083 C 
ATOM      6  C   UNL     1       1.247  -1.885  -0.445  0.00  0.00    +0.193 C 
ATOM      7  O   UNL     1       1.148  -0.592  -0.094  0.00  0.00    -0.446 OA
ENDROOT
BRANCH   4   8
ATOM      8  C   UNL     1      -1.406  -2.708   1.490  0.00  0.00    -0.033 A 
ATOM      9  C   UNL     1      -0.548  -2.332   2.508  0.00  0.00    +0.006 A 
ATOM     10  C   UNL     1      -0.773  -2.773   3.798  0.00  0.00    +0.022 A 
ATOM     11  C   UNL     1      -1.856  -3.589   4.072  0.00  0.00    +0.071 A 
ATOM     12  C   UNL     1      -2.713  -3.965   3.054  0.00  0.00    +0.145 A 
ATOM     13  C   UNL     1      -2.491  -3.519   1.764  0.00  0.00    +0.038 A 
ATOM     14 CL   UNL     1      -2.138  -4.143   5.693  0.00  0.00    -0.081 Cl
BRANCH  12  15
ATOM     15  N   UNL     1      -3.872  -4.838   3.345  0.00  0.00    +0.058 N 
ATOM     16  O   UNL     1      -4.621  -5.166   2.455  0.00  0.00    -0.126 OA
ATOM     17  O   UNL     1      -4.069  -5.224   4.474  0.00  0.00    -0.126 OA
ENDBRANCH  12  15
ENDBRANCH   4   8
BRANCH   5  18
ATOM     18  C   UNL     1       0.330  -4.066  -0.767  0.00  0.00    +0.243 C 
ATOM     19  O   UNL     1      -0.060  -4.437  -1.860  0.00  0.00    -0.271 OA
ATOM     20  N   UNL     1       0.906  -4.946   0.076  0.00  0.00    -0.325 N 
ATOM     21  H   UNL     1       1.217  -4.651   0.947  0.00  0.00    +0.145 HD
ATOM     22  H   UNL     1       1.009  -5.874  -0.187  0.00  0.00    +0.145 HD
ENDBRANCH   5  18
BRANCH   6  23
ATOM     23  N   UNL     1       2.454  -2.370  -0.876  0.00  0.00    -0.329 N 
ATOM     24  H   UNL     1       2.519  -3.274  -1.220  0.00  0.00    +0.145 HD
ATOM     25  H   UNL     1       3.244  -1.808  -0.837  0.00  0.00    +0.145 HD
ENDBRANCH   6  23
BRANCH   3  26
ATOM     26  C   UNL     1      -2.428  -0.055   0.120  0.00  0.00    +0.160 C 
ATOM     27  O   UNL     1      -2.465   1.159   0.100  0.00  0.00    -0.293 OA
ATOM     28  C   UNL     1      -3.708  -0.846   0.212  0.00  0.00    +0.091 C 
ENDBRANCH   3  26
TORSDOF 5
