REMARK  Name = ZINC08991631
REMARK  8 active torsions:
REMARK  status: ('A' for Active; 'I' for Inactive)
REMARK    1  A    between atoms: C_1  and  O_2
REMARK    2  A    between atoms: O_2  and  C_3
REMARK    3  A    between atoms: C_3  and  C_4
REMARK    4  A    between atoms: C_4  and  N_42
REMARK    5  A    between atoms: C_5  and  C_6
REMARK    6  A    between atoms: C_5  and  N_42
REMARK    7  A    between atoms: C_7  and  O_24
REMARK    8  A    between atoms: C_16  and  C_17
REMARK                            x       y       z     vdW  Elec       q    Type
REMARK                         _______ _______ _______ _____ _____    ______ ____
ROOT
ATOM      1  C   UNL     1      -0.718   1.572   1.248  0.00  0.00    +0.021 A 
ATOM      2  C   UNL     1      -0.361   2.781   1.821  0.00  0.00    +0.140 A 
ATOM      3  C   UNL     1      -1.010   3.240   2.966  0.00  0.00    +0.083 A 
ATOM      4  C   UNL     1      -2.002   2.498   3.542  0.00  0.00    +0.035 A 
ATOM      5  C   UNL     1      -2.371   1.274   2.978  0.00  0.00    +0.027 A 
ATOM      6  C   UNL     1      -1.723   0.807   1.821  0.00  0.00    +0.144 A 
ATOM      7  O   UNL     1      -2.081  -0.377   1.279  0.00  0.00    -0.422 OA
ATOM      8  C   UNL     1      -3.050  -1.138   1.812  0.00  0.00    +0.338 A 
ATOM      9  O   UNL     1      -3.331  -2.197   1.280  0.00  0.00    -0.245 OA
ATOM     10  C   UNL     1      -3.748  -0.746   2.967  0.00  0.00    +0.101 A 
ATOM     11  C   UNL     1      -3.436   0.454   3.578  0.00  0.00    -0.000 A 
ATOM     12 CL   UNL     1      -0.553   4.762   3.666  0.00  0.00    -0.080 Cl
ENDROOT
BRANCH  11  13
ATOM     13  C   UNL     1      -4.150   0.899   4.794  0.00  0.00    -0.017 A 
ATOM     14  C   UNL     1      -3.431   1.321   5.914  0.00  0.00    +0.008 A 
ATOM     15  C   UNL     1      -4.102   1.741   7.043  0.00  0.00    +0.001 A 
ATOM     16  C   UNL     1      -5.486   1.734   7.072  0.00  0.00    +0.000 A 
ATOM     17  C   UNL     1      -6.204   1.312   5.967  0.00  0.00    +0.001 A 
ATOM     18  C   UNL     1      -5.545   0.895   4.830  0.00  0.00    +0.008 A 
ENDBRANCH  11  13
BRANCH   2  19
ATOM     19  O   UNL     1       0.627   3.526   1.262  0.00  0.00    -0.505 OA
ATOM     20  H   UNL     1       0.316   4.157   0.598  0.00  0.00    +0.292 HD
ENDBRANCH   2  19
BRANCH   1  21
ATOM     21  C   UNL     1      -0.013   1.086   0.008  0.00  0.00    -0.039 C 
BRANCH  21  22
ATOM     22  N   UNL     1      -0.732   1.579  -1.182  0.00  0.00    +0.383 N 
ATOM     23  H   UNL     1      -1.695   1.223  -1.167  0.00  0.00    -0.085 HD
ATOM     24  H   UNL     1      -0.746   2.605  -1.168  0.00  0.00    -0.085 HD
BRANCH  22  25
ATOM     25  C   UNL     1      -0.062   1.117  -2.413  0.00  0.00    -0.054 C 
BRANCH  25  26
ATOM     26  C   UNL     1      -0.829   1.643  -3.628  0.00  0.00    +0.140 C 
BRANCH  26  28
ATOM     27  C   UNL     1      -1.437   3.664  -4.764  0.00  0.00    +0.193 C 
ATOM     28  O   UNL     1      -0.749   3.069  -3.661  0.00  0.00    -0.385 OA
ENDBRANCH  26  28
ENDBRANCH  25  26
ENDBRANCH  22  25
ENDBRANCH  21  22
ENDBRANCH   1  21
TORSDOF 7
