REMARK  Name = ZINC40551028
REMARK  5 active torsions:
REMARK  status: ('A' for Active; 'I' for Inactive)
REMARK    1  A    between atoms: C_1  and  C_2
REMARK    2  A    between atoms: C_8  and  N_10
REMARK    3  A    between atoms: N_13  and  C_14
REMARK    4  A    between atoms: C_14  and  C_21
REMARK    5  A    between atoms: C_17  and  C_20
REMARK                            x       y       z     vdW  Elec       q    Type
REMARK                         _______ _______ _______ _____ _____    ______ ____
ROOT
ATOM      1  N   UNL     1       2.116  -0.004   1.231  0.00  0.00    -0.296 N 
ATOM      2  C   UNL     1       2.795   0.128   2.388  0.00  0.00    +0.301 C 
ATOM      3  O   UNL     1       2.266  -0.174   3.441  0.00  0.00    -0.253 OA
ATOM      4  N   UNL     1       4.059   0.594   2.379  0.00  0.00    -0.284 N 
ATOM      5  H   UNL     1       2.538   0.237   0.392  0.00  0.00    +0.151 HD
ATOM      6  H   UNL     1       4.481   0.835   1.539  0.00  0.00    +0.151 HD
ENDROOT
BRANCH   1  13
ATOM      7  C   UNL     1      -0.019   1.526   0.010  0.00  0.00    +0.009 C 
ATOM      8  C   UNL     1       0.002  -0.004   0.002  0.00  0.00    +0.006 C 
ATOM      9  C   UNL     1       0.718  -0.497  -1.257  0.00  0.00    +0.005 C 
ATOM     10  C   UNL     1       0.739  -2.027  -1.265  0.00  0.00    +0.000 C 
ATOM     11  C   UNL     1       1.479  -2.534  -0.026  0.00  0.00    +0.002 C 
ATOM     12  C   UNL     1       0.763  -2.041   1.233  0.00  0.00    +0.022 C 
ATOM     13  C   UNL     1       0.742  -0.511   1.242  0.00  0.00    +0.077 C 
ENDBRANCH   1  13
BRANCH   4  14
ATOM     14  C   UNL     1       4.797   0.737   3.636  0.00  0.00    +0.137 C 
ATOM     15  C   UNL     1       4.052   1.706   4.557  0.00  0.00    +0.038 C 
ATOM     16  C   UNL     1       3.938   3.071   3.875  0.00  0.00    +0.006 C 
ATOM     17  C   UNL     1       5.338   3.616   3.586  0.00  0.00    -0.014 C 
ATOM     18  C   UNL     1       6.082   2.647   2.665  0.00  0.00    +0.006 C 
ATOM     19  C   UNL     1       6.197   1.282   3.347  0.00  0.00    +0.038 C 
ATOM     20  C   UNL     1       6.108   3.766   4.899  0.00  0.00    +0.007 C 
BRANCH  14  21
ATOM     21  C   UNL     1       4.910  -0.607   4.308  0.00  0.00    +0.379 C 
ATOM     22  O   UNL     1       4.420  -1.593   3.785  0.00  0.00    -0.244 OA
ATOM     23  O   UNL     1       5.492  -0.709   5.375  0.00  0.00    -0.244 OA
ENDBRANCH  14  21
ENDBRANCH   4  14
TORSDOF 3
