REMARK  Name = ZINC66908723
REMARK  6 active torsions:
REMARK  status: ('A' for Active; 'I' for Inactive)
REMARK    1  A    between atoms: C_1  and  N_2
REMARK    2  A    between atoms: C_3  and  C_7
REMARK    3  A    between atoms: C_7  and  N_8
REMARK    4  A    between atoms: C_14  and  N_17
REMARK    5  A    between atoms: C_18  and  C_20
REMARK    6  A    between atoms: C_20  and  C_21
REMARK                            x       y       z     vdW  Elec       q    Type
REMARK                         _______ _______ _______ _____ _____    ______ ____
ROOT
ATOM      1  N   UNL     1      -0.630   0.557  -5.061  0.00  0.00    -0.294 N 
ATOM      2  C   UNL     1      -1.644   0.354  -4.197  0.00  0.00    +0.303 C 
ATOM      3  O   UNL     1      -1.422  -0.120  -3.099  0.00  0.00    -0.253 OA
ATOM      4  N   UNL     1      -2.905   0.677  -4.549  0.00  0.00    -0.286 N 
ATOM      5  C   UNL     1      -4.003   0.571  -3.579  0.00  0.00    +0.111 C 
ATOM      6  C   UNL     1      -4.737   1.915  -3.516  0.00  0.00    +0.041 C 
ATOM      7  C   UNL     1      -5.179   2.316  -4.925  0.00  0.00    +0.076 C 
ATOM      8  C   UNL     1      -3.949   2.478  -5.821  0.00  0.00    +0.041 C 
ATOM      9  C   UNL     1      -3.205   1.147  -5.908  0.00  0.00    +0.111 C 
ATOM     10  H   UNL     1      -0.816   0.866  -5.962  0.00  0.00    +0.151 HD
ENDROOT
BRANCH   7  11
ATOM     11  N   UNL     1      -5.910   3.583  -4.865  0.00  0.00    -0.312 N 
ATOM     12  C   UNL     1      -6.807   3.891  -5.823  0.00  0.00    +0.214 C 
ATOM     13  O   UNL     1      -7.009   3.117  -6.735  0.00  0.00    -0.276 OA
ATOM     14  H   UNL     1      -5.749   4.202  -4.135  0.00  0.00    +0.149 HD
BRANCH  12  15
ATOM     15  C   UNL     1      -7.559   5.195  -5.761  0.00  0.00    +0.099 C 
BRANCH  15  16
ATOM     16  C   UNL     1      -8.507   5.295  -6.958  0.00  0.00    -0.002 C 
ATOM     17  C   UNL     1      -7.690   5.360  -8.251  0.00  0.00    +0.004 C 
ATOM     18  C   UNL     1      -8.637   5.460  -9.448  0.00  0.00    +0.000 C 
ATOM     19  C   UNL     1      -9.490   6.724  -9.320  0.00  0.00    +0.000 C 
ATOM     20  C   UNL     1     -10.306   6.659  -8.027  0.00  0.00    +0.000 C 
ATOM     21  C   UNL     1      -9.359   6.559  -6.830  0.00  0.00    +0.004 C 
ENDBRANCH  15  16
ENDBRANCH  12  15
ENDBRANCH   7  11
BRANCH   1  22
ATOM     22  C   UNL     1       0.751   0.311  -4.641  0.00  0.00    +0.161 C 
BRANCH  22  25
ATOM     23  C   UNL     1       1.547  -1.612  -6.938  0.00  0.00    +0.172 C 
ATOM     24  N   UNL     1       2.024  -0.236  -6.779  0.00  0.00    -0.270 N 
ATOM     25  C   UNL     1       1.685   0.612  -5.785  0.00  0.00    +0.056 A 
ATOM     26  C   UNL     1       2.335   1.779  -5.999  0.00  0.00    +0.046 A 
ATOM     27  C   UNL     1       3.096   1.641  -7.164  0.00  0.00    +0.134 A 
ATOM     28  N   UNL     1       2.915   0.431  -7.629  0.00  0.00    -0.180 NA
ENDBRANCH  22  25
ENDBRANCH   1  22
TORSDOF 5
