REMARK  Name = ZINC13016605
REMARK  8 active torsions:
REMARK  status: ('A' for Active; 'I' for Inactive)
REMARK    1  A    between atoms: C_4  and  N_7
REMARK    2  A    between atoms: N_7  and  C_8
REMARK    3  A    between atoms: N_12  and  C_16
REMARK    4  A    between atoms: C_16  and  C_17
REMARK    5  A    between atoms: C_20  and  C_23
REMARK    6  A    between atoms: C_23  and  N_24
REMARK    7  A    between atoms: C_27  and  N_32
REMARK    8  A    between atoms: N_32  and  C_33
REMARK                            x       y       z     vdW  Elec       q    Type
REMARK                         _______ _______ _______ _____ _____    ______ ____
ROOT
ATOM      1  C   UNL     1       8.078  -2.620  -2.704  0.00  0.00    -0.030 A 
ATOM      2  C   UNL     1       8.120  -1.491  -3.501  0.00  0.00    +0.005 A 
ATOM      3  C   UNL     1       9.135  -0.567  -3.338  0.00  0.00    +0.005 A 
ATOM      4  C   UNL     1      10.108  -0.772  -2.377  0.00  0.00    -0.030 A 
ATOM      5  C   UNL     1      10.065  -1.900  -1.580  0.00  0.00    +0.005 A 
ATOM      6  C   UNL     1       9.048  -2.822  -1.740  0.00  0.00    +0.005 A 
ENDROOT
BRANCH   1   7
ATOM      7  C   UNL     1       6.971  -3.627  -2.882  0.00  0.00    +0.152 C 
BRANCH   7  11
ATOM      8  C   UNL     1       3.766  -2.141  -1.560  0.00  0.00    +0.225 C 
ATOM      9  C   UNL     1       4.909  -2.470  -2.511  0.00  0.00    +0.254 C 
ATOM     10  O   UNL     1       4.960  -2.030  -3.639  0.00  0.00    -0.272 OA
ATOM     11  N   UNL     1       5.842  -3.269  -2.021  0.00  0.00    -0.226 N 
ATOM     12  C   UNL     1       5.808  -3.771  -0.772  0.00  0.00    +0.283 C 
ATOM     13  O   UNL     1       6.614  -4.507  -0.238  0.00  0.00    -0.262 OA
ATOM     14  S   UNL     1       4.300  -3.101  -0.083  0.00  0.00    -0.035 S 
BRANCH   8  15
ATOM     15  N   UNL     1       3.709  -0.706  -1.272  0.00  0.00    -0.325 N 
ATOM     16  H   UNL     1       4.526  -0.213  -1.101  0.00  0.00    +0.148 HD
BRANCH  15  20
ATOM     17  C   UNL     1       0.037   1.255  -1.184  0.00  0.00    +0.000 A 
ATOM     18  C   UNL     1       1.208   1.979  -1.062  0.00  0.00    +0.002 A 
ATOM     19  C   UNL     1       2.428   1.332  -1.091  0.00  0.00    +0.023 A 
ATOM     20  C   UNL     1       2.477  -0.048  -1.242  0.00  0.00    +0.028 A 
ATOM     21  C   UNL     1       1.298  -0.773  -1.365  0.00  0.00    +0.023 A 
ATOM     22  C   UNL     1       0.082  -0.119  -1.335  0.00  0.00    +0.002 A 
ENDBRANCH  15  20
ENDBRANCH   8  15
ENDBRANCH   7  11
ENDBRANCH   1   7
BRANCH   4  23
ATOM     23  C   UNL     1      11.215   0.235  -2.200  0.00  0.00    +0.152 C 
BRANCH  23  24
ATOM     24  N   UNL     1      10.806   1.244  -1.220  0.00  0.00    -0.226 N 
ATOM     25  C   UNL     1      10.174   2.321  -1.655  0.00  0.00    +0.254 C 
ATOM     26  O   UNL     1       9.926   2.496  -2.829  0.00  0.00    -0.272 OA
ATOM     27  C   UNL     1       9.779   3.324  -0.581  0.00  0.00    +0.225 C 
ATOM     28  S   UNL     1      10.433   2.463   0.909  0.00  0.00    -0.035 S 
ATOM     29  C   UNL     1      11.088   1.023   0.078  0.00  0.00    +0.283 C 
ATOM     30  O   UNL     1      11.656   0.067   0.569  0.00  0.00    -0.262 OA
BRANCH  27  31
ATOM     31  N   UNL     1       8.324   3.484  -0.510  0.00  0.00    -0.325 N 
ATOM     32  H   UNL     1       7.775   3.271  -1.280  0.00  0.00    +0.148 HD
BRANCH  31  33
ATOM     33  C   UNL     1       7.729   3.942   0.667  0.00  0.00    +0.028 A 
ATOM     34  C   UNL     1       8.469   4.684   1.579  0.00  0.00    +0.023 A 
ATOM     35  C   UNL     1       7.877   5.136   2.742  0.00  0.00    +0.002 A 
ATOM     36  C   UNL     1       6.549   4.851   3.000  0.00  0.00    +0.000 A 
ATOM     37  C   UNL     1       5.809   4.112   2.095  0.00  0.00    +0.002 A 
ATOM     38  C   UNL     1       6.393   3.662   0.927  0.00  0.00    +0.023 A 
ENDBRANCH  31  33
ENDBRANCH  27  31
ENDBRANCH  23  24
ENDBRANCH   4  23
TORSDOF 8
