REMARK  Name = ZINC66769445
REMARK  5 active torsions:
REMARK  status: ('A' for Active; 'I' for Inactive)
REMARK    1  A    between atoms: C_1  and  C_2
REMARK    2  A    between atoms: C_5  and  N_8
REMARK    3  A    between atoms: C_10  and  C_15
REMARK    4  A    between atoms: N_17  and  C_18
REMARK    5  A    between atoms: N_17  and  C_19
REMARK                            x       y       z     vdW  Elec       q    Type
REMARK                         _______ _______ _______ _____ _____    ______ ____
ROOT
ATOM      1  C   UNL     1       2.462  -6.421   1.870  0.00  0.00    +0.221 C 
ATOM      2  O   UNL     1       2.856  -5.503   2.557  0.00  0.00    -0.275 OA
ATOM      3  N   UNL     1       2.132  -7.596   2.442  0.00  0.00    -0.301 N 
ATOM      4  C   UNL     1       1.656  -8.706   1.612  0.00  0.00    +0.132 C 
ENDROOT
BRANCH   3   5
ATOM      5  C   UNL     1       2.248  -7.764   3.892  0.00  0.00    +0.079 C 
ATOM      6  C   UNL     1       0.875  -8.101   4.478  0.00  0.00    +0.041 C 
ATOM      7  C   UNL     1       0.994  -8.241   5.999  0.00  0.00    +0.108 C 
ATOM      8  N   UNL     1       2.038  -9.229   6.303  0.00  0.00    -0.317 N 
ATOM      9  C   UNL     1       3.373  -9.050   5.715  0.00  0.00    +0.108 C 
ATOM     10  C   UNL     1       3.227  -8.900   4.197  0.00  0.00    +0.041 C 
ATOM     11  C   UNL     1       1.769 -10.313   7.130  0.00  0.00    +0.099 A 
ATOM     12  C   UNL     1       0.540 -10.398   7.777  0.00  0.00    +0.042 A 
ATOM     13  C   UNL     1       0.285 -11.482   8.597  0.00  0.00    +0.005 A 
ATOM     14  C   UNL     1       1.272 -12.448   8.745  0.00  0.00    +0.018 A 
ATOM     15  C   UNL     1       2.469 -12.300   8.073  0.00  0.00    +0.084 A 
ATOM     16  N   UNL     1       2.682 -11.258   7.292  0.00  0.00    -0.350 N 
ATOM     17  H   UNL     1       3.531 -11.180   6.829  0.00  0.00    +0.166 HD
ENDBRANCH   3   5
BRANCH   1  20
ATOM     18  N   UNL     1       1.540  -4.033  -0.065  0.00  0.00    -0.298 N 
ATOM     19  C   UNL     1       2.773  -4.828  -0.051  0.00  0.00    +0.121 C 
ATOM     20  C   UNL     1       2.342  -6.249   0.378  0.00  0.00    +0.101 C 
ATOM     21  C   UNL     1       0.862  -6.277  -0.066  0.00  0.00    +0.110 C 
ATOM     22  C   UNL     1       0.451  -4.821  -0.074  0.00  0.00    +0.217 C 
ATOM     23  O   UNL     1      -0.695  -4.422  -0.088  0.00  0.00    -0.276 OA
BRANCH  18  28
ATOM     24  C   UNL     1      -0.051   1.472  -0.071  0.00  0.00    +0.007 C 
ATOM     25  C   UNL     1      -0.010  -0.058  -0.072  0.00  0.00    -0.014 C 
ATOM     26  C   UNL     1       0.734  -0.547  -1.317  0.00  0.00    +0.005 C 
ATOM     27  C   UNL     1       0.775  -2.077  -1.318  0.00  0.00    +0.023 C 
ATOM     28  C   UNL     1       1.500  -2.568  -0.064  0.00  0.00    +0.076 C 
ATOM     29  C   UNL     1       0.756  -2.079   1.181  0.00  0.00    +0.023 C 
ATOM     30  C   UNL     1       0.715  -0.550   1.182  0.00  0.00    +0.005 C 
ENDBRANCH  18  28
ENDBRANCH   1  20
TORSDOF 3
