REMARK  Name = ZINC36608197
REMARK  11 active torsions:
REMARK  status: ('A' for Active; 'I' for Inactive)
REMARK    1  A    between atoms: C_1  and  C_2
REMARK    2  A    between atoms: C_5  and  C_8
REMARK    3  A    between atoms: C_8  and  C_10
REMARK    4  A    between atoms: C_8  and  N_17
REMARK    5  A    between atoms: N_12  and  C_13
REMARK    6  A    between atoms: C_13  and  C_14
REMARK    7  A    between atoms: C_13  and  C_15
REMARK    8  A    between atoms: C_13  and  C_16
REMARK    9  A    between atoms: N_17  and  C_18
REMARK   10  A    between atoms: C_24  and  C_26
REMARK   11  A    between atoms: C_31  and  O_32
REMARK                            x       y       z     vdW  Elec       q    Type
REMARK                         _______ _______ _______ _____ _____    ______ ____
ROOT
ATOM      1  N   UNL     1       0.956  -4.940   1.211  0.00  0.00    -0.251 N 
ATOM      2  C   UNL     1       1.540  -5.994   0.607  0.00  0.00    +0.255 C 
ATOM      3  O   UNL     1       2.723  -6.216   0.782  0.00  0.00    -0.269 OA
ENDROOT
BRANCH   1   4
ATOM      4  C   UNL     1       1.655  -4.216   2.183  0.00  0.00    +0.038 A 
ATOM      5  C   UNL     1       1.873  -4.766   3.439  0.00  0.00    +0.023 A 
ATOM      6  C   UNL     1       2.563  -4.048   4.395  0.00  0.00    +0.002 A 
ATOM      7  C   UNL     1       3.037  -2.782   4.104  0.00  0.00    +0.000 A 
ATOM      8  C   UNL     1       2.821  -2.231   2.854  0.00  0.00    +0.002 A 
ATOM      9  C   UNL     1       2.136  -2.946   1.891  0.00  0.00    +0.023 A 
ENDBRANCH   1   4
BRANCH   2  10
ATOM     10  C   UNL     1       0.745  -6.877  -0.266  0.00  0.00    +0.079 A 
ATOM     11  C   UNL     1      -0.433  -6.409  -0.854  0.00  0.00    +0.017 A 
ATOM     12  C   UNL     1      -1.171  -7.239  -1.669  0.00  0.00    +0.001 A 
ATOM     13  C   UNL     1      -0.751  -8.537  -1.909  0.00  0.00    +0.004 A 
ATOM     14  C   UNL     1       0.411  -9.013  -1.335  0.00  0.00    +0.046 A 
ATOM     15  C   UNL     1       1.170  -8.189  -0.517  0.00  0.00    +0.129 A 
BRANCH  15  16
ATOM     16  O   UNL     1       2.315  -8.653   0.043  0.00  0.00    -0.506 OA
ATOM     17  H   UNL     1       2.190  -9.069   0.907  0.00  0.00    +0.292 HD
ENDBRANCH  15  16
ENDBRANCH   2  10
BRANCH   1  18
ATOM     18  C   UNL     1      -0.410  -4.554   0.851  0.00  0.00    +0.197 C 
BRANCH  18  23
ATOM     19  C   UNL     1      -2.151  -0.220   4.253  0.00  0.00    +0.044 C 
ATOM     20  C   UNL     1      -1.697  -1.350   3.366  0.00  0.00    -0.050 A 
ATOM     21  C   UNL     1      -1.472  -1.125   2.021  0.00  0.00    +0.004 A 
ATOM     22  C   UNL     1      -1.056  -2.162   1.207  0.00  0.00    +0.006 A 
ATOM     23  C   UNL     1      -0.863  -3.424   1.738  0.00  0.00    -0.018 A 
ATOM     24  C   UNL     1      -1.087  -3.648   3.084  0.00  0.00    +0.006 A 
ATOM     25  C   UNL     1      -1.499  -2.610   3.899  0.00  0.00    +0.004 A 
ENDBRANCH  18  23
BRANCH  18  26
ATOM     26  C   UNL     1      -1.330  -5.734   1.032  0.00  0.00    +0.239 C 
ATOM     27  O   UNL     1      -0.887  -6.793   1.423  0.00  0.00    -0.273 OA
ATOM     28  N   UNL     1      -2.644  -5.612   0.758  0.00  0.00    -0.309 N 
ATOM     29  H   UNL     1      -2.998  -4.765   0.445  0.00  0.00    +0.149 HD
BRANCH  28  30
ATOM     30  C   UNL     1      -3.538  -6.760   0.934  0.00  0.00    +0.026 C 
ATOM     31  C   UNL     1      -3.505  -7.213   2.395  0.00  0.00    +0.031 C 
ATOM     32  C   UNL     1      -4.965  -6.356   0.557  0.00  0.00    +0.031 C 
ATOM     33  C   UNL     1      -3.078  -7.907   0.033  0.00  0.00    +0.031 C 
ENDBRANCH  28  30
ENDBRANCH  18  26
ENDBRANCH   1  18
TORSDOF 7
