REMARK  Name = ZINC09487631
REMARK  6 active torsions:
REMARK  status: ('A' for Active; 'I' for Inactive)
REMARK    1  A    between atoms: C_10  and  C_11
REMARK    2  A    between atoms: C_11  and  S_12
REMARK    3  A    between atoms: S_12  and  C_13
REMARK    4  A    between atoms: C_16  and  C_19
REMARK    5  A    between atoms: N_17  and  N_18
REMARK    6  A    between atoms: C_21  and  C_25
REMARK                            x       y       z     vdW  Elec       q    Type
REMARK                         _______ _______ _______ _____ _____    ______ ____
ROOT
ATOM      1  C   UNL     1       6.998   1.367   1.482  0.00  0.00    +0.209 A 
ATOM      2  N   UNL     1       7.563   1.724   0.351  0.00  0.00    -0.120 NA
ATOM      3  N   UNL     1       8.649   2.371   0.584  0.00  0.00    -0.125 NA
ATOM      4  C   UNL     1       8.844   2.466   1.879  0.00  0.00    +0.202 A 
ATOM      5  N   UNL     1       7.790   1.831   2.494  0.00  0.00    -0.222 N 
ENDROOT
BRANCH   4   6
ATOM      6  C   UNL     1       9.980   3.135   2.550  0.00  0.00    +0.132 A 
ATOM      7  C   UNL     1      11.046   3.792   1.908  0.00  0.00    +0.061 A 
ATOM      8  C   UNL     1      11.880   4.273   2.873  0.00  0.00    +0.066 A 
ATOM      9  N   UNL     1      11.353   3.928   4.083  0.00  0.00    -0.276 N 
ATOM     10  H   UNL     1      11.732   4.138   4.951  0.00  0.00    +0.189 HD
ATOM     11  N   UNL     1      10.165   3.223   3.852  0.00  0.00    -0.170 NA
BRANCH   8  12
ATOM     12  C   UNL     1      13.131   5.031   2.649  0.00  0.00    -0.000 A 
ATOM     13  C   UNL     1      13.551   5.320   1.351  0.00  0.00    +0.011 A 
ATOM     14  C   UNL     1      14.718   6.027   1.147  0.00  0.00    +0.020 A 
ATOM     15  C   UNL     1      15.471   6.450   2.229  0.00  0.00    +0.041 A 
ATOM     16  C   UNL     1      15.059   6.167   3.520  0.00  0.00    +0.020 A 
ATOM     17  C   UNL     1      13.891   5.465   3.735  0.00  0.00    +0.011 A 
ATOM     18 CL   UNL     1      16.939   7.340   1.966  0.00  0.00    -0.084 Cl
ENDBRANCH   8  12
ENDBRANCH   4   6
BRANCH   5  19
ATOM     19  N   UNL     1       7.580   1.691   3.836  0.00  0.00    -0.295 N 
ATOM     20  H   UNL     1       8.010   0.846   4.183  0.00  0.00    +0.163 HD
ATOM     21  H   UNL     1       7.913   2.499   4.340  0.00  0.00    +0.163 HD
ENDBRANCH   5  19
BRANCH   1  22
ATOM     22  S   UNL     1       5.496   0.464   1.661  0.00  0.00    -0.080 S 
BRANCH  22  23
ATOM     23  C   UNL     1       4.960   0.161  -0.046  0.00  0.00    +0.113 C 
BRANCH  23  33
ATOM     24  C   UNL     1      -0.016   1.357   0.009  0.00  0.00    +0.001 A 
ATOM     25  C   UNL     1       1.169   2.091   0.002  0.00  0.00    +0.001 A 
ATOM     26  C   UNL     1       2.378   1.468  -0.013  0.00  0.00    +0.009 A 
ATOM     27  C   UNL     1       2.438   0.064  -0.021  0.00  0.00    -0.014 A 
ATOM     28  C   UNL     1       1.233  -0.683  -0.013  0.00  0.00    -0.018 A 
ATOM     29  C   UNL     1       0.002  -0.004   0.002  0.00  0.00    +0.008 A 
ATOM     30  C   UNL     1       1.292  -2.087  -0.021  0.00  0.00    +0.008 A 
ATOM     31  C   UNL     1       2.502  -2.709  -0.036  0.00  0.00    +0.001 A 
ATOM     32  C   UNL     1       3.687  -1.976  -0.043  0.00  0.00    +0.005 A 
ATOM     33  C   UNL     1       3.668  -0.615  -0.037  0.00  0.00    -0.029 A 
ENDBRANCH  23  33
ENDBRANCH  22  23
ENDBRANCH   1  22
TORSDOF 6
