REMARK  Name = ZINC63433703
REMARK  10 active torsions:
REMARK  status: ('A' for Active; 'I' for Inactive)
REMARK    1  A    between atoms: C_1  and  C_2
REMARK    2  A    between atoms: C_2  and  C_3
REMARK    3  A    between atoms: C_3  and  C_4
REMARK    4  A    between atoms: C_4  and  N_5
REMARK    5  A    between atoms: C_13  and  S_14
REMARK    6  A    between atoms: S_14  and  C_15
REMARK    7  A    between atoms: C_15  and  C_16
REMARK    8  A    between atoms: N_25  and  C_29
REMARK    9  A    between atoms: C_29  and  C_30
REMARK   10  A    between atoms: C_30  and  C_31
REMARK                            x       y       z     vdW  Elec       q    Type
REMARK                         _______ _______ _______ _____ _____    ______ ____
ROOT
ATOM      1  N   UNL     1       1.471  -2.526   2.420  0.00  0.00    -0.250 N 
ATOM      2  C   UNL     1       2.821  -2.728   2.367  0.00  0.00    +0.238 C 
ATOM      3  O   UNL     1       3.485  -2.453   1.390  0.00  0.00    -0.274 OA
ATOM      4  C   UNL     1       3.417  -3.315   3.609  0.00  0.00    +0.182 C 
ATOM      5  C   UNL     1       2.381  -4.392   4.071  0.00  0.00    +0.217 C 
ATOM      6  N   UNL     1       1.167  -3.708   4.433  0.00  0.00    -0.239 NA
ATOM      7  C   UNL     1       0.766  -2.771   3.588  0.00  0.00    +0.160 C 
ATOM      8  N   UNL     1       3.023  -5.356   4.908  0.00  0.00    -0.295 N 
ATOM      9  C   UNL     1       4.316  -5.679   4.590  0.00  0.00    +0.112 C 
ATOM     10  S   UNL     1       5.277  -6.926   5.263  0.00  0.00    -0.028 S 
ATOM     11  S   UNL     1       4.798  -4.482   3.297  0.00  0.00    -0.086 S 
ENDROOT
BRANCH   1  12
ATOM     12  C   UNL     1       0.763  -2.041   1.233  0.00  0.00    +0.115 C 
BRANCH  12  13
ATOM     13  C   UNL     1       0.742  -0.511   1.242  0.00  0.00    +0.019 C 
BRANCH  13  15
ATOM     14  C   UNL     1      -0.019   1.526   0.010  0.00  0.00    +0.004 C 
ATOM     15  C   UNL     1       0.002  -0.004   0.002  0.00  0.00    -0.002 C 
ENDBRANCH  13  15
ENDBRANCH  12  13
ENDBRANCH   1  12
BRANCH   7  16
ATOM     16  S   UNL     1      -0.678  -1.828   3.948  0.00  0.00    -0.086 S 
BRANCH  16  17
ATOM     17  C   UNL     1      -1.247  -2.487   5.539  0.00  0.00    +0.123 C 
BRANCH  17  18
ATOM     18  C   UNL     1      -2.513  -1.746   5.975  0.00  0.00    +0.184 C 
ATOM     19  N   UNL     1      -3.547  -1.865   4.939  0.00  0.00    -0.363 N 
ATOM     20  C   UNL     1      -3.833  -0.662   4.533  0.00  0.00    +0.060 A 
ATOM     21  C   UNL     1      -4.774  -0.143   3.531  0.00  0.00    +0.027 A 
ATOM     22  C   UNL     1      -4.855   1.186   3.320  0.00  0.00    +0.002 A 
ATOM     23  C   UNL     1      -4.069   2.115   4.025  0.00  0.00    +0.002 A 
ATOM     24  C   UNL     1      -3.175   1.746   4.964  0.00  0.00    +0.027 A 
ATOM     25  C   UNL     1      -3.002   0.321   5.280  0.00  0.00    +0.060 A 
ATOM     26  N   UNL     1      -2.233  -0.312   6.118  0.00  0.00    -0.363 N 
ATOM     27  H   UNL     1      -3.945  -2.689   4.617  0.00  0.00    +0.162 HD
ATOM     28  H   UNL     1      -1.594   0.090   6.727  0.00  0.00    +0.162 HD
ENDBRANCH  17  18
ENDBRANCH  16  17
ENDBRANCH   7  16
BRANCH   8  29
ATOM     29  C   UNL     1       2.335  -5.966   6.048  0.00  0.00    +0.113 C 
BRANCH  29  30
ATOM     30  C   UNL     1       1.619  -7.238   5.590  0.00  0.00    +0.054 C 
BRANCH  30  31
ATOM     31  C   UNL     1       0.911  -7.866   6.763  0.00  0.00    -0.046 A 
ATOM     32  C   UNL     1       1.568  -8.791   7.553  0.00  0.00    +0.004 A 
ATOM     33  C   UNL     1       0.919  -9.367   8.629  0.00  0.00    +0.000 A 
ATOM     34  C   UNL     1      -0.388  -9.018   8.915  0.00  0.00    +0.000 A 
ATOM     35  C   UNL     1      -1.045  -8.092   8.125  0.00  0.00    +0.000 A 
ATOM     36  C   UNL     1      -0.394  -7.513   7.052  0.00  0.00    +0.004 A 
ENDBRANCH  30  31
ENDBRANCH  29  30
ENDBRANCH   8  29
TORSDOF 9
