REMARK  Name = ZINC10264119
REMARK  9 active torsions:
REMARK  status: ('A' for Active; 'I' for Inactive)
REMARK    1  A    between atoms: C_1  and  C_2
REMARK    2  A    between atoms: C_5  and  C_8
REMARK    3  A    between atoms: C_11  and  S_14
REMARK    4  A    between atoms: N_12  and  C_13
REMARK    5  A    between atoms: S_14  and  C_15
REMARK    6  A    between atoms: C_15  and  C_17
REMARK    7  A    between atoms: C_15  and  C_18
REMARK    8  A    between atoms: N_20  and  C_21
REMARK    9  A    between atoms: C_21  and  C_22
REMARK                            x       y       z     vdW  Elec       q    Type
REMARK                         _______ _______ _______ _____ _____    ______ ____
ROOT
ATOM      1  C   UNL     1       1.061   2.284   0.018  0.00  0.00    +0.165 A 
ATOM      2  N   UNL     1       0.615   3.509   0.173  0.00  0.00    -0.128 NA
ATOM      3  N   UNL     1      -0.669   3.519   0.117  0.00  0.00    -0.122 NA
ATOM      4  C   UNL     1      -1.121   2.301  -0.083  0.00  0.00    +0.192 A 
ATOM      5  N   UNL     1      -0.038   1.472  -0.147  0.00  0.00    -0.305 N 
ATOM      6  C   UNL     1      -0.043   0.022  -0.354  0.00  0.00    +0.153 C 
ENDROOT
BRANCH   1  11
ATOM      7  C   UNL     1       6.571   0.625   0.029  0.00  0.00    +0.044 C 
ATOM      8  C   UNL     1       5.128   1.059   0.026  0.00  0.00    -0.050 A 
ATOM      9  C   UNL     1       4.810   2.391  -0.173  0.00  0.00    +0.004 A 
ATOM     10  C   UNL     1       3.491   2.796  -0.177  0.00  0.00    +0.012 A 
ATOM     11  C   UNL     1       2.476   1.858   0.021  0.00  0.00    +0.019 A 
ATOM     12  C   UNL     1       2.804   0.517   0.226  0.00  0.00    +0.012 A 
ATOM     13  C   UNL     1       4.127   0.125   0.222  0.00  0.00    +0.004 A 
ENDBRANCH   1  11
BRANCH   4  14
ATOM     14  S   UNL     1      -2.811   1.825  -0.236  0.00  0.00    -0.074 S 
BRANCH  14  15
ATOM     15  C   UNL     1      -3.610   3.438  -0.045  0.00  0.00    +0.137 C 
ATOM     16  C   UNL     1      -3.224   4.340  -1.219  0.00  0.00    +0.029 C 
BRANCH  15  17
ATOM     17  C   UNL     1      -5.106   3.258  -0.021  0.00  0.00    +0.227 C 
ATOM     18  O   UNL     1      -5.603   2.248  -0.473  0.00  0.00    -0.275 OA
ATOM     19  N   UNL     1      -5.892   4.219   0.503  0.00  0.00    -0.307 N 
ATOM     20  H   UNL     1      -5.495   5.027   0.865  0.00  0.00    +0.149 HD
BRANCH  19  21
ATOM     21  C   UNL     1      -7.347   4.043   0.527  0.00  0.00    +0.178 C 
BRANCH  21  22
ATOM     22  C   UNL     1      -7.988   5.252   1.159  0.00  0.00    +0.122 A 
ATOM     23  C   UNL     1      -8.396   6.356   0.510  0.00  0.00    +0.046 A 
ATOM     24  C   UNL     1      -8.934   7.229   1.484  0.00  0.00    +0.041 A 
ATOM     25  C   UNL     1      -8.823   6.605   2.670  0.00  0.00    +0.195 A 
ATOM     26  O   UNL     1      -8.255   5.405   2.467  0.00  0.00    -0.466 OA
ENDBRANCH  21  22
ENDBRANCH  19  21
ENDBRANCH  15  17
ENDBRANCH  14  15
ENDBRANCH   4  14
TORSDOF 6
