REMARK  Name = ZINC08947135
REMARK  9 active torsions:
REMARK  status: ('A' for Active; 'I' for Inactive)
REMARK    1  A    between atoms: C_1  and  C_2
REMARK    2  A    between atoms: C_2  and  C_22
REMARK    3  A    between atoms: N_5  and  C_9
REMARK    4  A    between atoms: C_9  and  C_10
REMARK    5  A    between atoms: C_10  and  C_12
REMARK    6  A    between atoms: C_25  and  C_28
REMARK    7  A    between atoms: C_28  and  C_29
REMARK    8  A    between atoms: C_28  and  C_30
REMARK    9  A    between atoms: C_28  and  C_31
REMARK                            x       y       z     vdW  Elec       q    Type
REMARK                         _______ _______ _______ _____ _____    ______ ____
ROOT
ATOM      1  C   UNL     1       5.447   0.149  -1.162  0.00  0.00    +0.047 C 
ATOM      2  C   UNL     1       4.088  -0.356  -0.673  0.00  0.00    +0.135 C 
ATOM      3  C   UNL     1       2.978   0.565  -1.138  0.00  0.00    +0.251 C 
ATOM      4  O   UNL     1       2.668   0.818  -2.283  0.00  0.00    -0.272 OA
ATOM      5  N   UNL     1       2.407   1.043  -0.015  0.00  0.00    -0.216 N 
ATOM      6  C   UNL     1       2.999   0.561   1.083  0.00  0.00    +0.310 C 
ATOM      7  O   UNL     1       2.662   0.851   2.215  0.00  0.00    -0.252 OA
ATOM      8  N   UNL     1       4.006  -0.283   0.796  0.00  0.00    -0.281 N 
ATOM      9  H   UNL     1       4.570  -0.751   1.432  0.00  0.00    +0.152 HD
ENDROOT
BRANCH   2  10
ATOM     10  C   UNL     1       3.843  -1.765  -1.149  0.00  0.00    -0.015 A 
ATOM     11  C   UNL     1       3.157  -1.987  -2.328  0.00  0.00    +0.006 A 
ATOM     12  C   UNL     1       2.936  -3.279  -2.767  0.00  0.00    +0.004 A 
ATOM     13  C   UNL     1       3.392  -4.350  -2.021  0.00  0.00    -0.042 A 
ATOM     14  C   UNL     1       4.073  -4.128  -0.839  0.00  0.00    +0.004 A 
ATOM     15  C   UNL     1       4.299  -2.836  -0.403  0.00  0.00    +0.006 A 
BRANCH  13  16
ATOM     16  C   UNL     1       3.145  -5.758  -2.496  0.00  0.00    -0.013 C 
ATOM     17  C   UNL     1       2.325  -6.514  -1.448  0.00  0.00    +0.015 C 
ATOM     18  C   UNL     1       2.377  -5.724  -3.818  0.00  0.00    +0.015 C 
ATOM     19  C   UNL     1       4.485  -6.468  -2.703  0.00  0.00    +0.015 C 
ENDBRANCH  13  16
ENDBRANCH   2  10
BRANCH   5  20
ATOM     20  C   UNL     1       1.280   1.980   0.001  0.00  0.00    +0.197 C 
BRANCH  20  21
ATOM     21  C   UNL     1      -0.014   1.208   0.009  0.00  0.00    +0.181 C 
ATOM     22  O   UNL     1       0.002  -0.004   0.002  0.00  0.00    -0.290 OA
BRANCH  21  23
ATOM     23  C   UNL     1      -1.299   1.927   0.019  0.00  0.00    +0.019 A 
ATOM     24  C   UNL     1      -1.325   3.325   0.026  0.00  0.00    +0.012 A 
ATOM     25  C   UNL     1      -2.534   3.982   0.038  0.00  0.00    +0.004 A 
ATOM     26  C   UNL     1      -3.730   3.272   0.043  0.00  0.00    -0.044 A 
ATOM     27  C   UNL     1      -3.712   1.893   0.030  0.00  0.00    -0.044 A 
ATOM     28  C   UNL     1      -2.501   1.219   0.015  0.00  0.00    +0.015 A 
ATOM     29  C   UNL     1      -4.971   1.066   0.024  0.00  0.00    +0.035 C 
ATOM     30  C   UNL     1      -6.167   1.904   0.472  0.00  0.00    +0.005 C 
ATOM     31  C   UNL     1      -6.191   3.193  -0.357  0.00  0.00    +0.005 C 
ATOM     32  C   UNL     1      -5.012   4.064   0.070  0.00  0.00    +0.035 C 
ENDBRANCH  21  23
ENDBRANCH  20  21
ENDBRANCH   5  20
TORSDOF 5
