REMARK  Name = ZINC67267233
REMARK  5 active torsions:
REMARK  status: ('A' for Active; 'I' for Inactive)
REMARK    1  A    between atoms: C_1  and  C_2
REMARK    2  A    between atoms: C_2  and  C_4
REMARK    3  A    between atoms: C_2  and  N_20
REMARK    4  A    between atoms: C_4  and  N_5
REMARK    5  A    between atoms: C_6  and  C_8
REMARK                            x       y       z     vdW  Elec       q    Type
REMARK                         _______ _______ _______ _____ _____    ______ ____
ROOT
ATOM      1  N   UNL     1       0.821  -1.729   1.532  0.00  0.00    -0.317 N 
ATOM      2  C   UNL     1       1.541  -2.220   2.560  0.00  0.00    +0.216 C 
ATOM      3  O   UNL     1       2.156  -1.466   3.284  0.00  0.00    -0.276 OA
ATOM      4  H   UNL     1       0.329  -2.332   0.953  0.00  0.00    +0.149 HD
ENDROOT
BRANCH   2   5
ATOM      5  C   UNL     1       1.583  -3.705   2.809  0.00  0.00    +0.075 C 
ATOM      6  C   UNL     1       0.165  -4.218   3.072  0.00  0.00    +0.015 C 
ATOM      7  C   UNL     1       0.207  -5.729   3.313  0.00  0.00    +0.036 C 
ATOM      8  C   UNL     1       1.105  -6.032   4.507  0.00  0.00    +0.112 C 
ATOM      9  C   UNL     1       2.516  -5.504   4.271  0.00  0.00    +0.036 C 
ATOM     10  C   UNL     1       2.464  -3.994   4.026  0.00  0.00    +0.015 C 
ATOM     11  C   UNL     1       0.524  -5.437   5.769  0.00  0.00    +0.244 C 
ATOM     12  O   UNL     1       0.314  -4.265   5.999  0.00  0.00    -0.273 OA
ATOM     13  N   UNL     1       0.287  -6.484   6.586  0.00  0.00    -0.238 N 
ATOM     14  C   UNL     1       0.637  -7.644   6.015  0.00  0.00    +0.307 C 
ATOM     15  O   UNL     1       0.519  -8.726   6.555  0.00  0.00    -0.252 OA
ATOM     16  N   UNL     1       1.135  -7.476   4.775  0.00  0.00    -0.285 N 
ATOM     17  H   UNL     1      -0.089  -6.407   7.476  0.00  0.00    +0.159 HD
ATOM     18  H   UNL     1       1.451  -8.171   4.177  0.00  0.00    +0.151 HD
ENDBRANCH   2   5
BRANCH   1  19
ATOM     19  C   UNL     1       0.780  -0.284   1.290  0.00  0.00    +0.089 C 
BRANCH  19  21
ATOM     20  C   UNL     1      -0.144   1.507  -0.186  0.00  0.00    -0.012 C 
ATOM     21  C   UNL     1      -0.006  -0.004   0.008  0.00  0.00    -0.054 C 
BRANCH  21  22
ATOM     22  N   UNL     1      -1.341  -0.609   0.109  0.00  0.00    +0.385 N 
ATOM     23  C   UNL     1      -2.107  -0.320  -1.113  0.00  0.00    -0.073 C 
ATOM     24  C   UNL     1      -3.357  -1.201  -1.125  0.00  0.00    +0.017 C 
ATOM     25  C   UNL     1      -4.086  -1.069   0.188  0.00  0.00    -0.048 A 
ATOM     26  C   UNL     1      -5.401  -1.500   0.264  0.00  0.00    +0.004 A 
ATOM     27  C   UNL     1      -6.100  -1.397   1.450  0.00  0.00    +0.000 A 
ATOM     28  C   UNL     1      -5.485  -0.864   2.567  0.00  0.00    +0.000 A 
ATOM     29  C   UNL     1      -4.176  -0.433   2.492  0.00  0.00    +0.002 A 
ATOM     30  C   UNL     1      -3.473  -0.533   1.300  0.00  0.00    -0.061 A 
ATOM     31  C   UNL     1      -2.049  -0.044   1.261  0.00  0.00    -0.042 C 
ATOM     32  H   UNL     1      -1.251  -1.608   0.225  0.00  0.00    -0.081 HD
ENDBRANCH  21  22
ENDBRANCH  19  21
ENDBRANCH   1  19
TORSDOF 4
