REMARK  Name = ZINC08923110
REMARK  7 active torsions:
REMARK  status: ('A' for Active; 'I' for Inactive)
REMARK    1  A    between atoms: C_1  and  C_2
REMARK    2  A    between atoms: C_2  and  C_3
REMARK    3  A    between atoms: C_2  and  N_53
REMARK    4  A    between atoms: C_11  and  O_30
REMARK    5  A    between atoms: C_13  and  C_16
REMARK    6  A    between atoms: C_19  and  C_21
REMARK    7  A    between atoms: C_26  and  N_27
REMARK                            x       y       z     vdW  Elec       q    Type
REMARK                         _______ _______ _______ _____ _____    ______ ____
ROOT
ATOM      1  C   UNL     1       1.846   6.226  -6.481  0.00  0.00    -0.073 C 
ATOM      2  C   UNL     1       1.161   6.170  -5.113  0.00  0.00    +0.018 C 
ATOM      3  C   UNL     1       2.031   5.337  -4.178  0.00  0.00    -0.027 A 
ATOM      4  C   UNL     1       2.978   4.515  -4.691  0.00  0.00    -0.021 A 
ATOM      5  S   UNL     1       3.735   3.758  -3.278  0.00  0.00    -0.080 S 
ATOM      6  C   UNL     1       2.816   4.512  -2.048  0.00  0.00    +0.080 A 
ATOM      7  C   UNL     1       1.928   5.353  -2.732  0.00  0.00    +0.067 A 
ATOM      8  C   UNL     1       0.994   6.167  -1.911  0.00  0.00    +0.220 C 
ATOM      9  N   UNL     1       0.889   5.873  -0.645  0.00  0.00    -0.220 NA
ATOM     10  C   UNL     1       1.570   4.764   0.011  0.00  0.00    +0.260 C 
ATOM     11  N   UNL     1       2.828   4.417  -0.677  0.00  0.00    -0.311 N 
ATOM     12  C   UNL     1       3.291   4.311  -6.139  0.00  0.00    -0.035 C 
ATOM     13  H   UNL     1       3.618   4.137  -0.190  0.00  0.00    +0.149 HD
ATOM     14  N   UNL     1       2.159   4.853  -6.929  0.00  0.00    +0.384 N 
ATOM     15  H   UNL     1       1.334   4.258  -6.783  0.00  0.00    -0.081 HD
ENDROOT
BRANCH  10  16
ATOM     16  C   UNL     1       0.663   3.561   0.014  0.00  0.00    +0.148 A 
ATOM     17  C   UNL     1      -0.684   3.594   0.027  0.00  0.00    +0.049 A 
ATOM     18  C   UNL     1      -1.129   2.256   0.019  0.00  0.00    +0.050 A 
ATOM     19  C   UNL     1      -0.018   1.474   0.010  0.00  0.00    +0.138 A 
ATOM     20  O   UNL     1       1.062   2.279   0.004  0.00  0.00    -0.456 OA
BRANCH  19  21
ATOM     21  C   UNL     1       0.002  -0.004   0.002  0.00  0.00    +0.047 A 
ATOM     22  C   UNL     1      -0.756  -0.721   0.930  0.00  0.00    +0.014 A 
ATOM     23  C   UNL     1      -0.733  -2.100   0.917  0.00  0.00    +0.001 A 
ATOM     24  C   UNL     1       0.039  -2.773  -0.013  0.00  0.00    +0.002 A 
ATOM     25  C   UNL     1       0.793  -2.069  -0.936  0.00  0.00    +0.033 A 
ATOM     26  C   UNL     1       0.774  -0.689  -0.937  0.00  0.00    +0.137 A 
BRANCH  26  27
ATOM     27  N   UNL     1       1.576   0.062  -1.929  0.00  0.00    +0.057 N 
ATOM     28  O   UNL     1       2.249  -0.537  -2.748  0.00  0.00    -0.126 OA
ATOM     29  O   UNL     1       1.562   1.280  -1.926  0.00  0.00    -0.126 OA
ENDBRANCH  26  27
ENDBRANCH  19  21
ENDBRANCH  10  16
BRANCH  14  31
ATOM     30  C   UNL     1       3.738   5.719  -8.622  0.00  0.00    -0.014 C 
ATOM     31  C   UNL     1       2.501   4.855  -8.368  0.00  0.00    -0.074 C 
ATOM     32  C   UNL     1       2.781   3.419  -8.815  0.00  0.00    -0.014 C 
ENDBRANCH  14  31
BRANCH   8  33
ATOM     33  O   UNL     1       0.278   7.176  -2.458  0.00  0.00    -0.492 OA
ATOM     34  H   UNL     1      -0.296   7.636  -1.830  0.00  0.00    +0.294 HD
ENDBRANCH   8  33
TORSDOF 5
