REMARK  Name = ZINC14857365
REMARK  9 active torsions:
REMARK  status: ('A' for Active; 'I' for Inactive)
REMARK    1  A    between atoms: C_1  and  C_2
REMARK    2  A    between atoms: C_6  and  C_33
REMARK    3  A    between atoms: C_15  and  C_29
REMARK    4  A    between atoms: C_18  and  O_28
REMARK    5  A    between atoms: C_20  and  O_27
REMARK    6  A    between atoms: C_31  and  C_32
REMARK    7  A    between atoms: C_33  and  C_34
REMARK    8  A    between atoms: C_34  and  C_35
REMARK    9  A    between atoms: C_34  and  C_36
REMARK                            x       y       z     vdW  Elec       q    Type
REMARK                         _______ _______ _______ _____ _____    ______ ____
ROOT
ATOM      1  C   UNL     1      -3.908   4.737   2.968  0.00  0.00    +0.012 C 
ATOM      2  C   UNL     1      -2.657   4.354   3.761  0.00  0.00    +0.020 C 
ATOM      3  C   UNL     1      -1.554   3.900   2.805  0.00  0.00    +0.070 C 
ATOM      4  C   UNL     1      -2.142   2.832   1.853  0.00  0.00    +0.081 C 
ATOM      5  N   UNL     1      -2.626   3.588   0.690  0.00  0.00    -0.309 N 
ATOM      6  C   UNL     1      -2.114   4.830   0.668  0.00  0.00    +0.259 C 
ATOM      7  O   UNL     1      -2.377   5.680  -0.156  0.00  0.00    -0.271 OA
ATOM      8  C   UNL     1      -1.153   5.007   1.836  0.00  0.00    +0.203 C 
ATOM      9  C   UNL     1      -1.255   6.432   2.361  0.00  0.00    +0.088 C 
ATOM     10  C   UNL     1      -0.008   7.182   1.968  0.00  0.00    -0.016 C 
ATOM     11  C   UNL     1       1.131   7.144   2.595  0.00  0.00    -0.076 C 
ATOM     12  C   UNL     1       2.311   7.895   2.002  0.00  0.00    +0.033 C 
ATOM     13  C   UNL     1       3.603   7.200   2.436  0.00  0.00    +0.038 C 
ATOM     14  C   UNL     1       4.454   6.859   1.211  0.00  0.00    +0.147 C 
ATOM     15  C   UNL     1       4.298   5.369   0.881  0.00  0.00    +0.166 C 
ATOM     16  C   UNL     1       2.837   5.016   0.951  0.00  0.00    +0.013 C 
ATOM     17  C   UNL     1       2.413   3.914   1.564  0.00  0.00    +0.090 C 
ATOM     18  C   UNL     1       0.953   3.790   1.784  0.00  0.00    +0.333 C 
ATOM     19  O   UNL     1       0.471   2.824   2.343  0.00  0.00    -0.246 OA
ATOM     20  O   UNL     1       0.190   4.799   1.337  0.00  0.00    -0.444 OA
ATOM     21  C   UNL     1       1.362   6.370   3.866  0.00  0.00    +0.039 C 
ATOM     22  C   UNL     1      -1.489   6.458   3.825  0.00  0.00    -0.016 C 
ATOM     23  C   UNL     1      -2.132   5.559   4.508  0.00  0.00    -0.073 C 
ATOM     24  C   UNL     1      -2.348   5.712   5.992  0.00  0.00    +0.039 C 
ATOM     25  H   UNL     1      -3.237   3.236   0.024  0.00  0.00    +0.149 HD
ENDROOT
BRANCH  15  26
ATOM     26  O   UNL     1       4.791   5.115  -0.436  0.00  0.00    -0.385 OA
ATOM     27  H   UNL     1       4.723   4.191  -0.710  0.00  0.00    +0.210 HD
ENDBRANCH  15  26
BRANCH  14  28
ATOM     28  O   UNL     1       4.022   7.643   0.097  0.00  0.00    -0.389 OA
ATOM     29  H   UNL     1       4.519   7.479  -0.716  0.00  0.00    +0.210 HD
ENDBRANCH  14  28
BRANCH   4  30
ATOM     30  C   UNL     1      -1.056   1.841   1.429  0.00  0.00    +0.025 C 
BRANCH  30  31
ATOM     31  C   UNL     1      -1.682   0.727   0.588  0.00  0.00    -0.015 C 
ATOM     32  C   UNL     1      -2.131   1.296  -0.759  0.00  0.00    +0.007 C 
ATOM     33  C   UNL     1      -0.650  -0.379   0.357  0.00  0.00    +0.007 C 
ENDBRANCH  30  31
ENDBRANCH   4  30
TORSDOF 4
