REMARK  Name = ZINC23642246
REMARK  10 active torsions:
REMARK  status: ('A' for Active; 'I' for Inactive)
REMARK    1  A    between atoms: C_1  and  N_2
REMARK    2  A    between atoms: C_5  and  C_18
REMARK    3  A    between atoms: C_6  and  N_17
REMARK    4  A    between atoms: N_7  and  C_10
REMARK    5  A    between atoms: C_10  and  C_11
REMARK    6  A    between atoms: C_18  and  C_20
REMARK    7  A    between atoms: C_20  and  O_21
REMARK    8  A    between atoms: O_21  and  C_22
REMARK    9  A    between atoms: C_22  and  C_24
REMARK   10  A    between atoms: C_24  and  C_29
REMARK                            x       y       z     vdW  Elec       q    Type
REMARK                         _______ _______ _______ _____ _____    ______ ____
ROOT
ATOM      1  C   UNL     1      -7.393  -1.250  -1.320  0.00  0.00    +0.157 C 
ATOM      2  N   UNL     1      -7.013   0.158  -1.453  0.00  0.00    -0.263 N 
ATOM      3  C   UNL     1      -5.906   0.611  -0.828  0.00  0.00    +0.269 A 
ATOM      4  O   UNL     1      -5.222  -0.138  -0.156  0.00  0.00    -0.267 OA
ATOM      5  C   UNL     1      -5.548   2.028  -0.972  0.00  0.00    +0.123 A 
ATOM      6  C   UNL     1      -6.377   2.838  -1.767  0.00  0.00    +0.116 A 
ATOM      7  N   UNL     1      -7.472   2.280  -2.362  0.00  0.00    -0.277 N 
ATOM      8  C   UNL     1      -7.767   0.981  -2.201  0.00  0.00    +0.333 A 
ATOM      9  O   UNL     1      -8.753   0.531  -2.752  0.00  0.00    -0.246 OA
ENDROOT
BRANCH   6  10
ATOM     10  N   UNL     1      -6.093   4.157  -1.941  0.00  0.00    -0.344 N 
ATOM     11  H   UNL     1      -6.747   4.783  -2.565  0.00  0.00    +0.144 HD
ATOM     12  H   UNL     1      -5.208   4.598  -1.458  0.00  0.00    +0.144 HD
ENDBRANCH   6  10
BRANCH   5  13
ATOM     13  C   UNL     1      -4.404   2.558  -0.337  0.00  0.00    +0.209 C 
ATOM     14  O   UNL     1      -4.185   3.752  -0.378  0.00  0.00    -0.288 OA
BRANCH  13  15
ATOM     15  C   UNL     1      -3.455   1.642   0.393  0.00  0.00    +0.311 C 
BRANCH  15  16
ATOM     16  O   UNL     1      -2.368   2.422   0.956  0.00  0.00    -0.456 OA
BRANCH  16  17
ATOM     17  C   UNL     1      -1.429   1.751   1.643  0.00  0.00    +0.318 C 
ATOM     18  O   UNL     1      -1.514   0.553   1.769  0.00  0.00    -0.250 OA
BRANCH  17  19
ATOM     19  C   UNL     1      -0.267   2.493   2.251  0.00  0.00    +0.093 C 
ATOM     20  C   UNL     1       0.560   3.175   1.147  0.00  0.00    +0.023 C 
ATOM     21  C   UNL     1       1.979   2.573   1.225  0.00  0.00    +0.001 C 
ATOM     22  C   UNL     1       1.772   1.198   1.909  0.00  0.00    +0.001 C 
ATOM     23  C   UNL     1       0.678   1.502   2.962  0.00  0.00    +0.023 C 
BRANCH  19  24
ATOM     24  C   UNL     1      -0.767   3.522   3.231  0.00  0.00    -0.031 A 
ATOM     25  C   UNL     1      -2.112   3.580   3.546  0.00  0.00    +0.005 A 
ATOM     26  C   UNL     1      -2.570   4.521   4.449  0.00  0.00    +0.000 A 
ATOM     27  C   UNL     1      -1.686   5.411   5.029  0.00  0.00    +0.000 A 
ATOM     28  C   UNL     1      -0.342   5.357   4.709  0.00  0.00    +0.000 A 
ATOM     29  C   UNL     1       0.117   4.413   3.811  0.00  0.00    +0.005 A 
ENDBRANCH  19  24
ENDBRANCH  17  19
ENDBRANCH  16  17
ENDBRANCH  15  16
ENDBRANCH  13  15
ENDBRANCH   5  13
BRANCH   7  30
ATOM     30  C   UNL     1      -8.342   3.116  -3.192  0.00  0.00    +0.163 C 
BRANCH  30  31
ATOM     31  C   UNL     1      -7.858   3.083  -4.619  0.00  0.00    -0.028 A 
ATOM     32  C   UNL     1      -6.938   4.018  -5.058  0.00  0.00    +0.005 A 
ATOM     33  C   UNL     1      -6.490   3.985  -6.366  0.00  0.00    +0.000 A 
ATOM     34  C   UNL     1      -6.970   3.025  -7.237  0.00  0.00    +0.000 A 
ATOM     35  C   UNL     1      -7.893   2.094  -6.799  0.00  0.00    +0.000 A 
ATOM     36  C   UNL     1      -8.337   2.123  -5.490  0.00  0.00    +0.005 A 
ENDBRANCH  30  31
ENDBRANCH   7  30
TORSDOF 9
