REMARK  Name = ZINC20069650
REMARK  7 active torsions:
REMARK  status: ('A' for Active; 'I' for Inactive)
REMARK    1  A    between atoms: C_1  and  C_2
REMARK    2  A    between atoms: C_2  and  C_34
REMARK    3  A    between atoms: C_9  and  C_20
REMARK    4  A    between atoms: C_9  and  N_24
REMARK    5  A    between atoms: N_12  and  C_13
REMARK    6  A    between atoms: N_24  and  S_25
REMARK    7  A    between atoms: S_25  and  C_28
REMARK                            x       y       z     vdW  Elec       q    Type
REMARK                         _______ _______ _______ _____ _____    ______ ____
ROOT
ATOM      1  C   UNL     1       0.409   0.807   0.512  0.00  0.00    +0.011 C 
ATOM      2  C   UNL     1       0.228   0.982  -0.997  0.00  0.00    -0.023 C 
ATOM      3  C   UNL     1       1.134   2.117  -1.488  0.00  0.00    +0.058 C 
ATOM      4  C   UNL     1       2.574   1.696  -1.274  0.00  0.00    +0.028 C 
ATOM      5  C   UNL     1       2.937   0.385  -1.257  0.00  0.00    +0.052 C 
ATOM      6  C   UNL     1       2.033  -0.672  -1.439  0.00  0.00    +0.164 C 
ATOM      7  O   UNL     1       2.402  -1.829  -1.385  0.00  0.00    -0.292 OA
ATOM      8  C   UNL     1       0.584  -0.326  -1.705  0.00  0.00    +0.086 C 
ATOM      9  C   UNL     1       4.420   0.348  -1.012  0.00  0.00    +0.240 C 
ATOM     10  C   UNL     1       4.792   1.817  -0.911  0.00  0.00    +0.259 C 
ATOM     11  O   UNL     1       5.898   2.276  -0.716  0.00  0.00    -0.272 OA
ATOM     12  N   UNL     1       3.647   2.508  -1.079  0.00  0.00    -0.241 N 
ATOM     13  C   UNL     1      -1.231   1.334  -1.294  0.00  0.00    +0.011 C 
ENDROOT
BRANCH  12  14
ATOM     14  C   UNL     1       3.572   3.907  -1.057  0.00  0.00    +0.041 A 
ATOM     15  C   UNL     1       3.092   4.595  -2.163  0.00  0.00    +0.025 A 
ATOM     16  C   UNL     1       3.015   5.974  -2.137  0.00  0.00    +0.022 A 
ATOM     17  C   UNL     1       3.424   6.670  -1.013  0.00  0.00    +0.041 A 
ATOM     18  C   UNL     1       3.907   5.986   0.089  0.00  0.00    +0.022 A 
ATOM     19  C   UNL     1       3.982   4.607   0.070  0.00  0.00    +0.025 A 
ATOM     20 CL   UNL     1       3.332   8.403  -0.986  0.00  0.00    -0.084 Cl
ENDBRANCH  12  14
BRANCH   9  21
ATOM     21  C   UNL     1       5.144  -0.316  -2.184  0.00  0.00    +0.422 C 
ATOM     22  F   UNL     1       4.800   0.333  -3.374  0.00  0.00    -0.168 F 
ATOM     23  F   UNL     1       6.527  -0.228  -1.988  0.00  0.00    -0.168 F 
ATOM     24  F   UNL     1       4.769  -1.662  -2.262  0.00  0.00    -0.168 F 
ENDBRANCH   9  21
BRANCH   9  25
ATOM     25  N   UNL     1       4.720  -0.349   0.241  0.00  0.00    -0.162 NA
ATOM     26  H   UNL     1       4.760  -1.448   0.263  0.00  0.00    +0.150 HD
BRANCH  25  27
ATOM     27  S   UNL     1       4.753   0.491   1.668  0.00  0.00    +0.060 S 
ATOM     28  O   UNL     1       5.515  -0.288   2.580  0.00  0.00    -0.153 OA
ATOM     29  O   UNL     1       5.092   1.832   1.343  0.00  0.00    -0.153 OA
BRANCH  27  30
ATOM     30  C   UNL     1       3.105   0.525   2.291  0.00  0.00    +0.105 A 
ATOM     31  C   UNL     1       2.450   1.733   2.446  0.00  0.00    +0.028 A 
ATOM     32  C   UNL     1       1.155   1.760   2.930  0.00  0.00    +0.002 A 
ATOM     33  C   UNL     1       0.519   0.580   3.268  0.00  0.00    +0.000 A 
ATOM     34  C   UNL     1       1.177  -0.627   3.119  0.00  0.00    +0.002 A 
ATOM     35  C   UNL     1       2.469  -0.654   2.630  0.00  0.00    +0.028 A 
ENDBRANCH  27  30
ENDBRANCH  25  27
ENDBRANCH   9  25
TORSDOF 5
