REMARK  Name = ZINC39304030
REMARK  11 active torsions:
REMARK  status: ('A' for Active; 'I' for Inactive)
REMARK    1  A    between atoms: C_1  and  C_2
REMARK    2  A    between atoms: C_2  and  O_3
REMARK    3  A    between atoms: O_3  and  C_4
REMARK    4  A    between atoms: C_4  and  C_6
REMARK    5  A    between atoms: C_6  and  C_23
REMARK    6  A    between atoms: N_10  and  C_12
REMARK    7  A    between atoms: C_12  and  C_13
REMARK    8  A    between atoms: N_15  and  C_16
REMARK    9  A    between atoms: C_17  and  C_21
REMARK   10  A    between atoms: C_23  and  C_24
REMARK   11  A    between atoms: C_27  and  C_30
REMARK                            x       y       z     vdW  Elec       q    Type
REMARK                         _______ _______ _______ _____ _____    ______ ____
ROOT
ATOM      1  C   UNL     1      -2.881  -2.427   0.017  0.00  0.00    +0.057 C 
ATOM      2  C   UNL     1      -3.622  -1.976   1.279  0.00  0.00    +0.015 C 
ATOM      3  C   UNL     1      -2.888  -2.518   2.510  0.00  0.00    -0.018 C 
ATOM      4  C   UNL     1      -2.788  -4.041   2.408  0.00  0.00    -0.078 C 
ATOM      5  N   UNL     1      -2.047  -4.407   1.195  0.00  0.00    +0.386 N 
ATOM      6  C   UNL     1      -2.781  -3.954   0.007  0.00  0.00    -0.060 C 
ATOM      7  H   UNL     1      -1.137  -3.970   1.214  0.00  0.00    -0.081 HD
ENDROOT
BRANCH   1   8
ATOM      8  C   UNL     1      -1.496  -1.832   0.006  0.00  0.00    +0.312 C 
ATOM      9  O   UNL     1      -0.528  -2.555  -0.007  0.00  0.00    -0.250 OA
BRANCH   8  10
ATOM     10  O   UNL     1      -1.339  -0.499   0.012  0.00  0.00    -0.465 OA
BRANCH  10  12
ATOM     11  C   UNL     1      -0.019   1.526   0.010  0.00  0.00    +0.048 C 
ATOM     12  C   UNL     1       0.002  -0.004   0.002  0.00  0.00    +0.229 C 
ENDBRANCH  10  12
ENDBRANCH   8  10
ENDBRANCH   1   8
BRANCH   5  13
ATOM     13  C   UNL     1      -1.886  -5.866   1.142  0.00  0.00    +0.019 C 
BRANCH  13  14
ATOM     14  C   UNL     1      -1.021  -6.317   2.290  0.00  0.00    +0.201 C 
ATOM     15  O   UNL     1      -0.581  -5.504   3.075  0.00  0.00    -0.278 OA
ATOM     16  N   UNL     1      -0.735  -7.626   2.445  0.00  0.00    -0.281 N 
ATOM     17  H   UNL     1      -1.087  -8.276   1.817  0.00  0.00    +0.155 HD
BRANCH  16  18
ATOM     18  C   UNL     1       0.062  -8.042   3.502  0.00  0.00    +0.089 A 
ATOM     19  C   UNL     1       0.461  -9.333   3.812  0.00  0.00    +0.080 A 
ATOM     20  C   UNL     1       1.298  -9.489   4.979  0.00  0.00    +0.028 A 
ATOM     21  C   UNL     1       1.600  -8.355   5.640  0.00  0.00    +0.048 A 
ATOM     22  S   UNL     1       0.769  -7.097   4.694  0.00  0.00    -0.081 S 
BRANCH  19  23
ATOM     23  C   UNL     1       0.063 -10.455   3.016  0.00  0.00    +0.102 C 
ATOM     24  N   UNL     1      -0.253 -11.345   2.385  0.00  0.00    -0.191 NA
ENDBRANCH  19  23
ENDBRANCH  16  18
ENDBRANCH  13  14
ENDBRANCH   5  13
BRANCH   1  25
ATOM     25  C   UNL     1      -3.648  -1.957  -1.222  0.00  0.00    +0.051 C 
BRANCH  25  26
ATOM     26  C   UNL     1      -3.747  -0.454  -1.211  0.00  0.00    -0.046 A 
ATOM     27  C   UNL     1      -4.818   0.164  -0.592  0.00  0.00    +0.004 A 
ATOM     28  C   UNL     1      -4.910   1.543  -0.582  0.00  0.00    +0.012 A 
ATOM     29  C   UNL     1      -3.930   2.305  -1.190  0.00  0.00    +0.055 A 
ATOM     30  C   UNL     1      -2.859   1.688  -1.808  0.00  0.00    +0.012 A 
ATOM     31  C   UNL     1      -2.765   0.309  -1.815  0.00  0.00    +0.004 A 
BRANCH  29  32
ATOM     32  C   UNL     1      -4.030   3.809  -1.180  0.00  0.00    +0.417 C 
ATOM     33  F   UNL     1      -3.387   4.311  -0.044  0.00  0.00    -0.166 F 
ATOM     34  F   UNL     1      -3.420   4.324  -2.328  0.00  0.00    -0.166 F 
ATOM     35  F   UNL     1      -5.377   4.186  -1.158  0.00  0.00    -0.166 F 
ENDBRANCH  29  32
ENDBRANCH  25  26
ENDBRANCH   1  25
TORSDOF 10
