REMARK  Name = ZINC38672554
REMARK  12 active torsions:
REMARK  status: ('A' for Active; 'I' for Inactive)
REMARK    1  A    between atoms: C_1  and  C_2
REMARK    2  A    between atoms: C_2  and  C_3
REMARK    3  A    between atoms: C_2  and  S_4
REMARK    4  A    between atoms: S_4  and  C_7
REMARK    5  A    between atoms: C_10  and  C_13
REMARK    6  A    between atoms: C_13  and  C_14
REMARK    7  A    between atoms: N_16  and  C_17
REMARK    8  A    between atoms: C_17  and  C_18
REMARK    9  A    between atoms: C_18  and  C_20
REMARK   10  A    between atoms: C_18  and  N_30
REMARK   11  A    between atoms: N_28  and  C_29
REMARK   12  A    between atoms: N_33  and  C_36
REMARK                            x       y       z     vdW  Elec       q    Type
REMARK                         _______ _______ _______ _____ _____    ______ ____
ROOT
ATOM      1  C   UNL     1       2.141 -10.162   0.775  0.00  0.00    +0.104 C 
ENDROOT
BRANCH   1   2
ATOM      2  C   UNL     1       3.578 -10.455   1.124  0.00  0.00    -0.028 A 
ATOM      3  C   UNL     1       4.025 -10.282   2.421  0.00  0.00    +0.007 A 
ATOM      4  C   UNL     1       5.339 -10.548   2.743  0.00  0.00    +0.024 A 
ATOM      5  C   UNL     1       6.228 -10.995   1.763  0.00  0.00    +0.033 A 
ATOM      6  C   UNL     1       5.769 -11.165   0.466  0.00  0.00    -0.025 A 
ATOM      7  C   UNL     1       4.450 -10.902   0.149  0.00  0.00    +0.010 A 
ATOM      8  C   UNL     1       6.916 -11.652  -0.390  0.00  0.00    +0.056 C 
ATOM      9  C   UNL     1       8.108 -11.744   0.577  0.00  0.00    +0.109 C 
ATOM     10  N   UNL     1       7.581 -11.318   1.877  0.00  0.00    -0.332 N 
ATOM     11  C   UNL     1       8.360 -11.243   3.115  0.00  0.00    +0.129 C 
ENDBRANCH   1   2
BRANCH   1  12
ATOM     12  N   UNL     1       1.269 -10.632   1.860  0.00  0.00    -0.297 NA
ATOM     13  C   UNL     1       1.431 -12.076   2.080  0.00  0.00    +0.066 C 
ATOM     14  C   UNL     1       0.552 -12.512   3.254  0.00  0.00    -0.064 C 
ATOM     15  N   UNL     1      -0.852 -12.200   2.957  0.00  0.00    +0.379 N 
ATOM     16  C   UNL     1      -1.003 -10.752   2.764  0.00  0.00    -0.064 C 
ATOM     17  C   UNL     1      -0.137 -10.300   1.586  0.00  0.00    +0.066 C 
ATOM     18  C   UNL     1      -1.697 -12.636   4.077  0.00  0.00    -0.096 C 
ATOM     19  H   UNL     1      -1.133 -12.682   2.116  0.00  0.00    -0.082 HD
ENDBRANCH   1  12
BRANCH   1  20
ATOM     20  C   UNL     1       1.958  -8.655   0.590  0.00  0.00    +0.127 C 
BRANCH  20  23
ATOM     21  C   UNL     1       2.840  -6.888  -0.838  0.00  0.00    +0.217 C 
ATOM     22  O   UNL     1       2.247  -6.080  -0.155  0.00  0.00    -0.275 OA
ATOM     23  N   UNL     1       2.760  -8.202  -0.550  0.00  0.00    -0.313 N 
ATOM     24  H   UNL     1       3.234  -8.848  -1.096  0.00  0.00    +0.149 HD
BRANCH  21  25
ATOM     25  C   UNL     1       3.665  -6.423  -2.010  0.00  0.00    +0.130 C 
BRANCH  25  29
ATOM     26  C   UNL     1       3.447  -2.167  -2.307  0.00  0.00    +0.088 A 
ATOM     27  C   UNL     1       4.438  -2.757  -1.545  0.00  0.00    +0.027 A 
ATOM     28  C   UNL     1       4.509  -4.134  -1.449  0.00  0.00    +0.006 A 
ATOM     29  C   UNL     1       3.587  -4.921  -2.114  0.00  0.00    -0.039 A 
ATOM     30  C   UNL     1       2.595  -4.331  -2.875  0.00  0.00    +0.006 A 
ATOM     31  C   UNL     1       2.522  -2.954  -2.968  0.00  0.00    +0.027 A 
BRANCH  26  32
ATOM     32  S   UNL     1       3.357  -0.411  -2.429  0.00  0.00    -0.001 S 
ATOM     33  O   UNL     1       2.708  -0.167  -3.670  0.00  0.00    -0.169 OA
ATOM     34  O   UNL     1       4.687   0.036  -2.208  0.00  0.00    -0.169 OA
BRANCH  32  36
ATOM     35  C   UNL     1       2.037   1.605  -1.135  0.00  0.00    +0.032 C 
ATOM     36  C   UNL     1       2.289   0.098  -1.054  0.00  0.00    +0.130 C 
ATOM     37  C   UNL     1       0.956  -0.647  -1.141  0.00  0.00    +0.032 C 
ENDBRANCH  32  36
ENDBRANCH  26  32
ENDBRANCH  25  29
ENDBRANCH  21  25
ENDBRANCH  20  23
ENDBRANCH   1  20
TORSDOF 8
