REMARK  Name = ZINC21811826
REMARK  12 active torsions:
REMARK  status: ('A' for Active; 'I' for Inactive)
REMARK    1  A    between atoms: C_1  and  C_2
REMARK    2  A    between atoms: C_2  and  C_3
REMARK    3  A    between atoms: C_3  and  C_4
REMARK    4  A    between atoms: C_4  and  N_5
REMARK    5  A    between atoms: N_5  and  C_6
REMARK    6  A    between atoms: N_5  and  C_7
REMARK    7  A    between atoms: C_7  and  C_8
REMARK    8  A    between atoms: C_8  and  C_9
REMARK    9  A    between atoms: C_9  and  N_10
REMARK   10  A    between atoms: C_19  and  C_20
REMARK   11  A    between atoms: C_19  and  C_21
REMARK   12  A    between atoms: N_23  and  C_24
REMARK                            x       y       z     vdW  Elec       q    Type
REMARK                         _______ _______ _______ _____ _____    ______ ____
ROOT
ATOM      1  N   UNL     1       2.281   0.380  -0.139  0.00  0.00    -0.281 N 
ATOM      2  C   UNL     1       1.155  -0.273  -0.511  0.00  0.00    +0.264 C 
ATOM      3  O   UNL     1       1.197  -1.344  -1.089  0.00  0.00    -0.268 OA
ATOM      4  C   UNL     1      -0.118   0.379  -0.182  0.00  0.00    +0.109 A 
ATOM      5  C   UNL     1      -1.398  -0.087  -0.250  0.00  0.00    +0.079 A 
ATOM      6  C   UNL     1      -2.244   0.936   0.204  0.00  0.00    +0.153 A 
ATOM      7  C   UNL     1      -1.443   2.027   0.540  0.00  0.00    +0.088 A 
ATOM      8  N   UNL     1      -0.146   1.687   0.296  0.00  0.00    -0.331 N 
ATOM      9  C   UNL     1       1.080   2.473   0.458  0.00  0.00    +0.157 C 
ATOM     10  C   UNL     1       2.244   1.530   0.758  0.00  0.00    +0.128 C 
ATOM     11  C   UNL     1       2.114   1.030   2.198  0.00  0.00    +0.043 C 
ATOM     12  C   UNL     1      -2.325   3.035   0.997  0.00  0.00    +0.067 A 
ATOM     13  C   UNL     1      -3.572   2.539   0.920  0.00  0.00    +0.198 A 
ATOM     14  O   UNL     1      -3.526   1.284   0.444  0.00  0.00    -0.461 OA
ENDROOT
BRANCH  10  15
ATOM     15  C   UNL     1       3.537   2.293   0.623  0.00  0.00    +0.238 C 
ATOM     16  O   UNL     1       4.370   2.234   1.502  0.00  0.00    -0.273 OA
ATOM     17  N   UNL     1       3.766   3.041  -0.474  0.00  0.00    -0.311 N 
ATOM     18  H   UNL     1       2.979   3.160  -1.233  0.00  0.00    +0.149 HD
BRANCH  17  19
ATOM     19  C   UNL     1       5.064   3.697  -0.655  0.00  0.00    +0.073 C 
ATOM     20  C   UNL     1       5.076   5.012   0.151  0.00  0.00    +0.022 C 
ATOM     21  C   UNL     1       6.506   5.414   0.389  0.00  0.00    +0.002 C 
ATOM     22  C   UNL     1       7.027   6.397  -0.677  0.00  0.00    +0.000 C 
ATOM     23  C   UNL     1       6.580   6.024  -2.103  0.00  0.00    +0.000 C 
ATOM     24  C   UNL     1       6.665   4.545  -2.365  0.00  0.00    +0.002 C 
ATOM     25  C   UNL     1       5.287   3.916  -2.077  0.00  0.00    +0.022 C 
ENDBRANCH  17  19
ENDBRANCH  10  15
BRANCH   1  26
ATOM     26  C   UNL     1       3.573  -0.081  -0.651  0.00  0.00    +0.107 C 
BRANCH  26  27
ATOM     27  C   UNL     1       3.812   0.513  -2.041  0.00  0.00    +0.000 C 
BRANCH  27  28
ATOM     28  C   UNL     1       5.162   0.031  -2.576  0.00  0.00    -0.078 C 
BRANCH  28  29
ATOM     29  N   UNL     1       5.392   0.602  -3.910  0.00  0.00    +0.378 N 
ATOM     30  C   UNL     1       4.423   0.076  -4.881  0.00  0.00    -0.096 C 
ATOM     31  H   UNL     1       5.246   1.690  -3.842  0.00  0.00    -0.082 HD
BRANCH  29  32
ATOM     32  C   UNL     1       6.770   0.358  -4.357  0.00  0.00    -0.079 C 
BRANCH  32  33
ATOM     33  C   UNL     1       7.046   1.171  -5.623  0.00  0.00    -0.019 C 
BRANCH  33  35
ATOM     34  C   UNL     1       8.758   1.730  -7.355  0.00  0.00    +0.004 C 
ATOM     35  C   UNL     1       8.482   0.917  -6.088  0.00  0.00    -0.005 C 
ENDBRANCH  33  35
ENDBRANCH  32  33
ENDBRANCH  29  32
ENDBRANCH  28  29
ENDBRANCH  27  28
ENDBRANCH  26  27
ENDBRANCH   1  26
TORSDOF 9
