REMARK  Name = ZINC16012060
REMARK  5 active torsions:
REMARK  status: ('A' for Active; 'I' for Inactive)
REMARK    1  A    between atoms: C_1  and  S_2
REMARK    2  A    between atoms: S_2  and  C_3
REMARK    3  A    between atoms: C_3  and  C_4
REMARK    4  A    between atoms: C_4  and  C_5
REMARK    5  A    between atoms: N_13  and  C_16
REMARK                            x       y       z     vdW  Elec       q    Type
REMARK                         _______ _______ _______ _____ _____    ______ ____
ROOT
ATOM      1  C   UNL     1      -3.356  -2.382   0.021  0.00  0.00    +0.068 C 
ATOM      2  C   UNL     1      -3.524  -3.898  -0.028  0.00  0.00    +0.107 C 
ATOM      3  C   UNL     1      -5.035  -3.952   0.405  0.00  0.00    +0.123 C 
ATOM      4  C   UNL     1      -5.409  -5.293   0.028  0.00  0.00    +0.233 C 
ATOM      5  O   UNL     1      -6.210  -6.019   0.578  0.00  0.00    -0.274 OA
ATOM      6  N   UNL     1      -4.660  -5.568  -1.091  0.00  0.00    -0.210 N 
ATOM      7  C   UNL     1      -3.677  -4.624  -1.326  0.00  0.00    +0.232 C 
ATOM      8  O   UNL     1      -3.073  -4.420  -2.357  0.00  0.00    -0.274 OA
ATOM      9  C   UNL     1      -5.177  -2.969   1.474  0.00  0.00    +0.136 C 
ATOM     10  N   UNL     1      -3.991  -2.056   1.347  0.00  0.00    -0.295 NA
ATOM     11  C   UNL     1      -6.431  -2.134   1.400  0.00  0.00    +0.003 A 
ATOM     12  C   UNL     1      -6.981  -1.349   0.411  0.00  0.00    +0.008 A 
ATOM     13  C   UNL     1      -8.172  -0.683   0.639  0.00  0.00    +0.000 A 
ATOM     14  C   UNL     1      -8.807  -0.808   1.861  0.00  0.00    +0.002 A 
ATOM     15  C   UNL     1      -8.260  -1.595   2.853  0.00  0.00    +0.023 A 
ATOM     16  C   UNL     1      -7.061  -2.269   2.631  0.00  0.00    +0.039 A 
ATOM     17  N   UNL     1      -6.320  -3.109   3.463  0.00  0.00    -0.283 N 
ATOM     18  C   UNL     1      -5.204  -3.562   2.864  0.00  0.00    +0.243 C 
ATOM     19  O   UNL     1      -4.377  -4.306   3.348  0.00  0.00    -0.273 OA
ATOM     20  H   UNL     1      -3.343  -2.208   2.106  0.00  0.00    +0.123 HD
ATOM     21  H   UNL     1      -6.579  -3.340   4.369  0.00  0.00    +0.155 HD
ENDROOT
BRANCH   6  22
ATOM     22  C   UNL     1      -4.861  -6.693  -1.905  0.00  0.00    +0.045 A 
ATOM     23  C   UNL     1      -5.865  -7.602  -1.599  0.00  0.00    +0.027 A 
ATOM     24  C   UNL     1      -6.061  -8.709  -2.401  0.00  0.00    +0.041 A 
ATOM     25  C   UNL     1      -5.257  -8.914  -3.509  0.00  0.00    +0.142 A 
ATOM     26  C   UNL     1      -4.254  -8.008  -3.816  0.00  0.00    +0.078 A 
ATOM     27  C   UNL     1      -4.058  -6.896  -3.019  0.00  0.00    +0.046 A 
ATOM     28 CL   UNL     1      -3.247  -8.267  -5.206  0.00  0.00    -0.081 Cl
ATOM     29  F   UNL     1      -5.450  -9.998  -4.292  0.00  0.00    -0.204 F 
ENDBRANCH   6  22
BRANCH   1  30
ATOM     30  C   UNL     1      -1.877  -1.992   0.009  0.00  0.00    +0.030 C 
BRANCH  30  31
ATOM     31  C   UNL     1      -1.752  -0.467   0.016  0.00  0.00    +0.070 C 
BRANCH  31  33
ATOM     32  C   UNL     1      -0.022   1.810   0.012  0.00  0.00    +0.084 C 
ATOM     33  S   UNL     1       0.002  -0.004   0.002  0.00  0.00    -0.164 S 
ENDBRANCH  31  33
ENDBRANCH  30  31
ENDBRANCH   1  30
TORSDOF 4
