REMARK  Name = ZINC45369113
REMARK  14 active torsions:
REMARK  status: ('A' for Active; 'I' for Inactive)
REMARK    1  A    between atoms: C_1  and  C_2
REMARK    2  A    between atoms: C_9  and  C_20
REMARK    3  A    between atoms: C_10  and  N_11
REMARK    4  A    between atoms: N_11  and  C_12
REMARK    5  A    between atoms: C_12  and  C_13
REMARK    6  A    between atoms: C_12  and  C_14
REMARK    7  A    between atoms: C_12  and  C_15
REMARK    8  A    between atoms: C_15  and  C_16
REMARK    9  A    between atoms: C_16  and  C_17
REMARK   10  A    between atoms: C_16  and  C_18
REMARK   11  A    between atoms: C_16  and  C_19
REMARK   12  A    between atoms: C_25  and  O_26
REMARK   13  A    between atoms: O_26  and  C_27
REMARK   14  A    between atoms: C_27  and  C_29
REMARK                            x       y       z     vdW  Elec       q    Type
REMARK                         _______ _______ _______ _____ _____    ______ ____
ROOT
ATOM      1  C   UNL     1      -1.046   1.464  -3.888  0.00  0.00    +0.044 C 
ATOM      2  C   UNL     1      -1.155   0.083  -3.295  0.00  0.00    -0.046 A 
ATOM      3  C   UNL     1      -0.649  -1.028  -3.994  0.00  0.00    +0.021 A 
ATOM      4  C   UNL     1      -0.745  -2.265  -3.468  0.00  0.00    +0.094 A 
ATOM      5  N   UNL     1      -1.334  -2.460  -2.248  0.00  0.00    -0.289 N 
ATOM      6  C   UNL     1      -1.839  -1.392  -1.540  0.00  0.00    +0.117 A 
ATOM      7  C   UNL     1      -1.738  -0.092  -2.079  0.00  0.00    +0.048 A 
ATOM      8  N   UNL     1      -2.350  -1.843  -0.406  0.00  0.00    -0.338 N 
ATOM      9  C   UNL     1      -2.196  -3.178  -0.349  0.00  0.00    +0.090 A 
ATOM     10  C   UNL     1      -1.558  -3.584  -1.502  0.00  0.00    +0.129 A 
ATOM     11  H   UNL     1      -2.770  -1.296   0.276  0.00  0.00    +0.167 HD
ENDROOT
BRANCH   9  12
ATOM     12  C   UNL     1      -2.635  -4.058   0.759  0.00  0.00    +0.044 A 
ATOM     13  C   UNL     1      -3.993  -4.207   1.040  0.00  0.00    +0.014 A 
ATOM     14  C   UNL     1      -4.396  -5.028   2.073  0.00  0.00    +0.001 A 
ATOM     15  C   UNL     1      -3.458  -5.705   2.832  0.00  0.00    +0.004 A 
ATOM     16  C   UNL     1      -2.109  -5.565   2.562  0.00  0.00    +0.047 A 
ATOM     17  C   UNL     1      -1.690  -4.749   1.525  0.00  0.00    +0.141 A 
BRANCH  17  18
ATOM     18  O   UNL     1      -0.364  -4.615   1.255  0.00  0.00    -0.425 OA
BRANCH  18  19
ATOM     19  C   UNL     1       0.306  -3.624   1.865  0.00  0.00    +0.319 C 
ATOM     20  O   UNL     1      -0.247  -2.942   2.694  0.00  0.00    -0.250 OA
BRANCH  19  21
ATOM     21  C   UNL     1       1.748  -3.362   1.514  0.00  0.00    +0.069 C 
ATOM     22  C   UNL     1       1.857  -3.022   0.026  0.00  0.00    +0.021 C 
ATOM     23  C   UNL     1       3.321  -2.757  -0.331  0.00  0.00    -0.009 C 
ATOM     24  C   UNL     1       3.843  -1.583   0.500  0.00  0.00    +0.007 C 
ATOM     25  C   UNL     1       3.734  -1.923   1.988  0.00  0.00    -0.009 C 
ATOM     26  C   UNL     1       2.270  -2.189   2.345  0.00  0.00    +0.021 C 
ATOM     27  C   UNL     1       4.567  -3.171   2.288  0.00  0.00    +0.007 C 
ATOM     28  C   UNL     1       4.044  -4.345   1.457  0.00  0.00    -0.009 C 
ATOM     29  C   UNL     1       4.153  -4.005  -0.030  0.00  0.00    +0.007 C 
ATOM     30  C   UNL     1       2.580  -4.610   1.814  0.00  0.00    +0.021 C 
ENDBRANCH  19  21
ENDBRANCH  18  19
ENDBRANCH  17  18
ENDBRANCH   9  12
BRANCH  10  31
ATOM     31  N   UNL     1      -1.207  -4.891  -1.842  0.00  0.00    -0.323 N 
ATOM     32  H   UNL     1      -1.499  -5.632  -1.288  0.00  0.00    +0.148 HD
BRANCH  31  33
ATOM     33  C   UNL     1      -0.399  -5.145  -3.037  0.00  0.00    +0.028 C 
ATOM     34  C   UNL     1      -1.219  -4.820  -4.287  0.00  0.00    +0.031 C 
ATOM     35  C   UNL     1       0.851  -4.264  -3.004  0.00  0.00    +0.031 C 
BRANCH  33  36
ATOM     36  C   UNL     1       0.016  -6.618  -3.069  0.00  0.00    +0.031 C 
BRANCH  36  37
ATOM     37  C   UNL     1       0.750  -6.969  -1.773  0.00  0.00    -0.036 C 
ATOM     38  C   UNL     1       0.071  -6.266  -0.596  0.00  0.00    +0.010 C 
ATOM     39  C   UNL     1       0.707  -8.483  -1.557  0.00  0.00    +0.010 C 
ATOM     40  C   UNL     1       2.206  -6.509  -1.871  0.00  0.00    +0.010 C 
ENDBRANCH  36  37
ENDBRANCH  33  36
ENDBRANCH  31  33
ENDBRANCH  10  31
TORSDOF 8
