REMARK  Name = ZINC25283042
REMARK  6 active torsions:
REMARK  status: ('A' for Active; 'I' for Inactive)
REMARK    1  A    between atoms: C_4  and  C_7
REMARK    2  A    between atoms: C_7  and  C_9
REMARK    3  A    between atoms: C_7  and  O_12
REMARK    4  A    between atoms: O_12  and  C_13
REMARK    5  A    between atoms: C_13  and  C_15
REMARK    6  A    between atoms: C_17  and  N_23
REMARK                            x       y       z     vdW  Elec       q    Type
REMARK                         _______ _______ _______ _____ _____    ______ ____
ROOT
ATOM      1  C   UNL     1      -3.044   3.786   1.402  0.00  0.00    +0.360 C 
ATOM      2  O   UNL     1      -2.326   3.570   2.358  0.00  0.00    -0.243 OA
ENDROOT
BRANCH   1   3
ATOM      3  C   UNL     1      -4.430   4.258   1.610  0.00  0.00    +0.169 A 
ATOM      4  C   UNL     1      -4.908   4.448   2.904  0.00  0.00    +0.095 A 
ATOM      5  C   UNL     1      -6.216   4.900   3.082  0.00  0.00    +0.067 A 
ATOM      6  C   UNL     1      -6.996   5.132   1.951  0.00  0.00    +0.100 A 
ATOM      7  C   UNL     1      -6.450   4.914   0.696  0.00  0.00    +0.150 A 
ATOM      8  N   UNL     1      -5.210   4.493   0.559  0.00  0.00    -0.226 NA
ATOM      9 CL   UNL     1      -7.416   5.202  -0.718  0.00  0.00    -0.060 Cl
ATOM     10 CL   UNL     1      -8.632   5.688   2.112  0.00  0.00    -0.078 Cl
ATOM     11 CL   UNL     1      -3.889   4.134   4.274  0.00  0.00    -0.079 Cl
BRANCH   5  12
ATOM     12  N   UNL     1      -6.731   5.108   4.360  0.00  0.00    -0.356 N 
ATOM     13  H   UNL     1      -7.764   5.465   4.485  0.00  0.00    +0.142 HD
ATOM     14  H   UNL     1      -6.105   4.916   5.244  0.00  0.00    +0.142 HD
ENDBRANCH   5  12
ENDBRANCH   1   3
BRANCH   1  15
ATOM     15  O   UNL     1      -2.577   3.595   0.153  0.00  0.00    -0.442 OA
BRANCH  15  16
ATOM     16  C   UNL     1      -1.208   3.131   0.025  0.00  0.00    +0.292 C 
BRANCH  16  20
ATOM     17  C   UNL     1       0.458   4.597  -3.626  0.00  0.00    +0.000 A 
ATOM     18  C   UNL     1       1.255   4.470  -2.504  0.00  0.00    +0.000 A 
ATOM     19  C   UNL     1       0.716   3.995  -1.322  0.00  0.00    +0.008 A 
ATOM     20  C   UNL     1      -0.620   3.648  -1.263  0.00  0.00    +0.002 A 
ATOM     21  C   UNL     1      -1.417   3.770  -2.386  0.00  0.00    +0.008 A 
ATOM     22  C   UNL     1      -0.879   4.249  -3.566  0.00  0.00    +0.000 A 
ENDBRANCH  16  20
BRANCH  16  23
ATOM     23  C   UNL     1      -1.187   1.624   0.017  0.00  0.00    +0.256 C 
ATOM     24  O   UNL     1      -2.229   1.003   0.018  0.00  0.00    -0.272 OA
ATOM     25  N   UNL     1      -0.011   0.966   0.007  0.00  0.00    -0.326 N 
ATOM     26  H   UNL     1       0.004  -0.134   0.001  0.00  0.00    +0.145 HD
ATOM     27  H   UNL     1       0.934   1.529   0.006  0.00  0.00    +0.145 HD
ENDBRANCH  16  23
ENDBRANCH  15  16
ENDBRANCH   1  15
TORSDOF 6
