REMARK  Name = ZINC51840924
REMARK  10 active torsions:
REMARK  status: ('A' for Active; 'I' for Inactive)
REMARK    1  A    between atoms: C_1  and  C_2
REMARK    2  A    between atoms: C_2  and  C_3
REMARK    3  A    between atoms: C_3  and  C_4
REMARK    4  A    between atoms: C_4  and  C_6
REMARK    5  A    between atoms: C_4  and  N_7
REMARK    6  A    between atoms: C_8  and  C_10
REMARK    7  A    between atoms: C_17  and  C_19
REMARK    8  A    between atoms: N_21  and  C_22
REMARK    9  A    between atoms: C_23  and  C_29
REMARK   10  A    between atoms: C_27  and  C_28
REMARK                            x       y       z     vdW  Elec       q    Type
REMARK                         _______ _______ _______ _____ _____    ______ ____
ROOT
ATOM      1  C   UNL     1       4.088  -2.658   0.821  0.00  0.00    +0.092 C 
ATOM      2  C   UNL     1       4.695  -4.023   0.486  0.00  0.00    +0.016 C 
ATOM      3  C   UNL     1       5.568  -4.495   1.652  0.00  0.00    +0.020 C 
ATOM      4  C   UNL     1       4.700  -4.646   2.905  0.00  0.00    +0.108 C 
ATOM      5  N   UNL     1       3.999  -3.378   3.151  0.00  0.00    -0.293 N 
ATOM      6  C   UNL     1       3.204  -2.788   2.066  0.00  0.00    +0.121 C 
ATOM      7  C   UNL     1       4.084  -2.768   4.350  0.00  0.00    +0.302 C 
ATOM      8  O   UNL     1       3.622  -1.656   4.499  0.00  0.00    -0.265 OA
ENDROOT
BRANCH   1  10
ATOM      9  N   UNL     1       2.619  -0.994  -0.269  0.00  0.00    -0.312 N 
ATOM     10  C   UNL     1       3.255  -2.180  -0.340  0.00  0.00    +0.218 C 
ATOM     11  O   UNL     1       3.157  -2.862  -1.338  0.00  0.00    -0.275 OA
ATOM     12  H   UNL     1       2.697  -0.448   0.529  0.00  0.00    +0.149 HD
BRANCH   9  13
ATOM     13  C   UNL     1       1.809  -0.528  -1.397  0.00  0.00    +0.070 C 
ATOM     14  C   UNL     1       2.708   0.180  -2.413  0.00  0.00    +0.028 C 
BRANCH  13  15
ATOM     15  C   UNL     1       0.743   0.446  -0.893  0.00  0.00    +0.022 C 
BRANCH  15  17
ATOM     16  C   UNL     1      -1.297   0.680   0.531  0.00  0.00    +0.004 C 
ATOM     17  C   UNL     1      -0.231  -0.294   0.026  0.00  0.00    -0.002 C 
ENDBRANCH  15  17
ENDBRANCH  13  15
ENDBRANCH   9  13
ENDBRANCH   1  10
BRANCH   7  18
ATOM     18  C   UNL     1       4.747  -3.460   5.495  0.00  0.00    +0.303 C 
ATOM     19  O   UNL     1       5.107  -4.614   5.381  0.00  0.00    -0.265 OA
ATOM     20  N   UNL     1       4.947  -2.804   6.655  0.00  0.00    -0.277 N 
ATOM     21  H   UNL     1       4.582  -1.913   6.778  0.00  0.00    +0.155 HD
BRANCH  20  22
ATOM     22  C   UNL     1       5.679  -3.406   7.682  0.00  0.00    +0.040 A 
ATOM     23  C   UNL     1       6.814  -2.784   8.185  0.00  0.00    -0.029 A 
ATOM     24  C   UNL     1       7.536  -3.382   9.199  0.00  0.00    +0.005 A 
ATOM     25  C   UNL     1       7.128  -4.599   9.715  0.00  0.00    +0.001 A 
ATOM     26  C   UNL     1       5.999  -5.222   9.216  0.00  0.00    +0.005 A 
ATOM     27  C   UNL     1       5.269  -4.626   8.206  0.00  0.00    -0.029 A 
ATOM     28  C   UNL     1       4.035  -5.302   7.668  0.00  0.00    +0.045 C 
ATOM     29  C   UNL     1       7.259  -1.458   7.624  0.00  0.00    +0.045 C 
ENDBRANCH  20  22
ENDBRANCH   7  18
TORSDOF 6
