REMARK  Name = ZINC14969577
REMARK  8 active torsions:
REMARK  status: ('A' for Active; 'I' for Inactive)
REMARK    1  A    between atoms: C_1  and  O_2
REMARK    2  A    between atoms: O_2  and  C_3
REMARK    3  A    between atoms: C_6  and  N_9
REMARK    4  A    between atoms: C_12  and  C_14
REMARK    5  A    between atoms: N_19  and  C_22
REMARK    6  A    between atoms: N_25  and  C_28
REMARK    7  A    between atoms: C_33  and  C_34
REMARK    8  A    between atoms: C_34  and  N_75
REMARK                            x       y       z     vdW  Elec       q    Type
REMARK                         _______ _______ _______ _____ _____    ______ ____
ROOT
ATOM      1  N   UNL     1      -4.601  -0.451  -1.880  0.00  0.00    -0.227 N 
ATOM      2  C   UNL     1      -3.627  -0.340  -0.949  0.00  0.00    +0.133 A 
ATOM      3  C   UNL     1      -4.150  -0.818   0.237  0.00  0.00    +0.017 A 
ATOM      4  C   UNL     1      -5.447  -1.227  -0.059  0.00  0.00    +0.151 A 
ATOM      5  N   UNL     1      -5.653  -0.977  -1.346  0.00  0.00    -0.161 NA
ATOM      6  C   UNL     1      -3.355  -0.822   1.511  0.00  0.00    +0.059 C 
ATOM      7  C   UNL     1      -1.866  -0.940   1.162  0.00  0.00    +0.113 C 
ATOM      8  N   UNL     1      -1.476  -0.038   0.085  0.00  0.00    -0.293 N 
ATOM      9  C   UNL     1      -2.251   0.176  -1.003  0.00  0.00    +0.266 C 
ATOM     10  O   UNL     1      -1.831   0.767  -1.979  0.00  0.00    -0.268 OA
ENDROOT
BRANCH   1  14
ATOM     11  C   UNL     1      -4.264   0.729  -5.864  0.00  0.00    +0.120 A 
ATOM     12  C   UNL     1      -3.225   0.040  -5.255  0.00  0.00    +0.048 A 
ATOM     13  C   UNL     1      -3.336  -0.350  -3.935  0.00  0.00    +0.031 A 
ATOM     14  C   UNL     1      -4.488  -0.054  -3.218  0.00  0.00    +0.066 A 
ATOM     15  C   UNL     1      -5.530   0.630  -3.831  0.00  0.00    +0.031 A 
ATOM     16  C   UNL     1      -5.415   1.025  -5.149  0.00  0.00    +0.048 A 
BRANCH  11  18
ATOM     17  C   UNL     1      -5.261   1.819  -7.727  0.00  0.00    +0.277 C 
ATOM     18  O   UNL     1      -4.154   1.113  -7.163  0.00  0.00    -0.495 OA
ENDBRANCH  11  18
ENDBRANCH   1  14
BRANCH   8  19
ATOM     19  C   UNL     1      -0.191   0.660   0.182  0.00  0.00    +0.079 C 
ATOM     20  C   UNL     1      -0.428   2.172   0.167  0.00  0.00    +0.041 C 
ATOM     21  C   UNL     1       0.920   2.895   0.207  0.00  0.00    +0.107 C 
ATOM     22  N   UNL     1       1.726   2.496  -0.954  0.00  0.00    -0.330 N 
ATOM     23  C   UNL     1       2.006   1.055  -0.936  0.00  0.00    +0.107 C 
ATOM     24  C   UNL     1       0.690   0.277  -1.010  0.00  0.00    +0.041 C 
BRANCH  22  25
ATOM     25  C   UNL     1       2.909   3.235  -1.020  0.00  0.00    +0.031 A 
ATOM     26  C   UNL     1       3.859   3.120  -0.013  0.00  0.00    +0.023 A 
ATOM     27  C   UNL     1       5.030   3.849  -0.084  0.00  0.00    +0.002 A 
ATOM     28  C   UNL     1       5.253   4.700  -1.151  0.00  0.00    +0.000 A 
ATOM     29  C   UNL     1       4.307   4.821  -2.152  0.00  0.00    +0.003 A 
ATOM     30  C   UNL     1       3.136   4.091  -2.090  0.00  0.00    -0.043 A 
BRANCH  30  31
ATOM     31  C   UNL     1       2.106   4.224  -3.182  0.00  0.00    -0.041 C 
BRANCH  31  36
ATOM     32  C   UNL     1       1.589   6.415  -2.252  0.00  0.00    -0.078 C 
ATOM     33  C   UNL     1       0.377   7.376  -2.337  0.00  0.00    -0.020 C 
ATOM     34  C   UNL     1      -0.337   6.918  -3.629  0.00  0.00    -0.020 C 
ATOM     35  C   UNL     1       0.131   5.469  -3.856  0.00  0.00    -0.078 C 
ATOM     36  N   UNL     1       1.019   5.148  -2.738  0.00  0.00    +0.382 N 
ATOM     37  H   UNL     1       0.481   4.699  -1.987  0.00  0.00    -0.081 HD
ENDBRANCH  31  36
ENDBRANCH  30  31
ENDBRANCH  22  25
ENDBRANCH   8  19
BRANCH   4  38
ATOM     38  C   UNL     1      -6.413  -1.826   0.884  0.00  0.00    +0.262 C 
ATOM     39  O   UNL     1      -6.099  -2.004   2.045  0.00  0.00    -0.269 OA
ATOM     40  N   UNL     1      -7.643  -2.176   0.457  0.00  0.00    -0.324 N 
ATOM     41  H   UNL     1      -7.893  -2.034  -0.470  0.00  0.00    +0.145 HD
ATOM     42  H   UNL     1      -8.277  -2.570   1.076  0.00  0.00    +0.145 HD
ENDBRANCH   4  38
TORSDOF 7
