REMARK  Name = ZINC44167429
REMARK  6 active torsions:
REMARK  status: ('A' for Active; 'I' for Inactive)
REMARK    1  A    between atoms: C_3  and  N_28
REMARK    2  A    between atoms: C_6  and  C_7
REMARK    3  A    between atoms: C_12  and  C_15
REMARK    4  A    between atoms: N_17  and  C_18
REMARK    5  A    between atoms: C_18  and  C_19
REMARK    6  A    between atoms: C_19  and  C_20
REMARK                            x       y       z     vdW  Elec       q    Type
REMARK                         _______ _______ _______ _____ _____    ______ ____
ROOT
ATOM      1  C   UNL     1      -1.272  -0.765  -0.024  0.00  0.00    -0.030 C 
ATOM      2  C   UNL     1      -1.554  -1.229   1.411  0.00  0.00    +0.058 C 
ATOM      3  S   UNL     1      -3.158  -2.088   1.428  0.00  0.00    -0.163 S 
ATOM      4  C   UNL     1      -2.995  -3.264   0.049  0.00  0.00    +0.062 C 
ATOM      5  C   UNL     1      -2.498  -2.496  -1.182  0.00  0.00    +0.027 C 
ATOM      6  N   UNL     1      -1.176  -1.927  -0.910  0.00  0.00    +0.392 N 
ATOM      7  H   UNL     1      -0.754  -1.643  -1.782  0.00  0.00    -0.084 HD
ATOM      8  H   UNL     1      -0.596  -2.627  -0.475  0.00  0.00    -0.084 HD
ENDROOT
BRANCH   1  14
ATOM      9  C   UNL     1       0.012   1.382  -0.064  0.00  0.00    +0.004 A 
ATOM     10  C   UNL     1       1.200   2.086  -0.095  0.00  0.00    +0.023 A 
ATOM     11  C   UNL     1       2.409   1.403  -0.117  0.00  0.00    +0.030 A 
ATOM     12  C   UNL     1       2.420   0.014  -0.110  0.00  0.00    +0.023 A 
ATOM     13  C   UNL     1       1.228  -0.683  -0.080  0.00  0.00    +0.004 A 
ATOM     14  C   UNL     1       0.026  -0.001  -0.057  0.00  0.00    -0.060 A 
BRANCH  11  15
ATOM     15  N   UNL     1       3.613   2.112  -0.148  0.00  0.00    -0.330 N 
ATOM     16  C   UNL     1       3.745   3.576  -0.154  0.00  0.00    +0.105 C 
ATOM     17  C   UNL     1       5.252   3.900  -0.218  0.00  0.00    +0.020 C 
ATOM     18  C   UNL     1       5.861   2.604  -0.816  0.00  0.00    +0.020 C 
ATOM     19  C   UNL     1       4.961   1.515  -0.175  0.00  0.00    +0.105 C 
ENDBRANCH  11  15
ENDBRANCH   1  14
BRANCH   5  20
ATOM     20  C   UNL     1      -3.465  -1.386  -1.504  0.00  0.00    +0.200 C 
ATOM     21  O   UNL     1      -3.053  -0.327  -1.926  0.00  0.00    -0.278 OA
ATOM     22  N   UNL     1      -4.788  -1.571  -1.322  0.00  0.00    -0.316 N 
ATOM     23  H   UNL     1      -5.117  -2.419  -0.985  0.00  0.00    +0.149 HD
BRANCH  22  24
ATOM     24  C   UNL     1      -5.728  -0.492  -1.635  0.00  0.00    +0.109 C 
BRANCH  24  25
ATOM     25  C   UNL     1      -7.155  -0.959  -1.342  0.00  0.00    +0.055 C 
BRANCH  25  26
ATOM     26  C   UNL     1      -8.123   0.151  -1.664  0.00  0.00    -0.027 A 
ATOM     27  C   UNL     1      -8.545   1.010  -0.666  0.00  0.00    +0.006 A 
ATOM     28  C   UNL     1      -9.432   2.028  -0.961  0.00  0.00    +0.020 A 
ATOM     29  C   UNL     1      -9.897   2.189  -2.254  0.00  0.00    +0.042 A 
ATOM     30  C   UNL     1      -9.475   1.330  -3.252  0.00  0.00    +0.040 A 
ATOM     31  C   UNL     1      -8.583   0.314  -2.958  0.00  0.00    +0.046 A 
ATOM     32 CL   UNL     1      -8.047  -0.761  -4.212  0.00  0.00    -0.083 Cl
ATOM     33 CL   UNL     1     -11.012   3.467  -2.623  0.00  0.00    -0.083 Cl
ENDBRANCH  25  26
ENDBRANCH  24  25
ENDBRANCH  22  24
ENDBRANCH   5  20
TORSDOF 6
