REMARK  Name = ZINC39933642
REMARK  10 active torsions:
REMARK  status: ('A' for Active; 'I' for Inactive)
REMARK    1  A    between atoms: C_1  and  C_2
REMARK    2  A    between atoms: C_2  and  C_3
REMARK    3  A    between atoms: C_3  and  C_4
REMARK    4  A    between atoms: C_4  and  C_5
REMARK    5  A    between atoms: C_5  and  C_6
REMARK    6  A    between atoms: C_6  and  C_7
REMARK    7  A    between atoms: N_9  and  C_10
REMARK    8  A    between atoms: C_14  and  C_16
REMARK    9  A    between atoms: N_18  and  N_19
REMARK   10  A    between atoms: C_20  and  C_21
REMARK                            x       y       z     vdW  Elec       q    Type
REMARK                         _______ _______ _______ _____ _____    ______ ____
ROOT
ATOM      1  C   UNL     1      -5.798  -6.404  -0.067  0.00  0.00    +0.034 A 
ATOM      2  C   UNL     1      -6.827  -5.473  -0.154  0.00  0.00    +0.023 A 
ATOM      3  C   UNL     1      -8.141  -5.893  -0.233  0.00  0.00    +0.003 A 
ATOM      4  C   UNL     1      -8.442  -7.240  -0.227  0.00  0.00    +0.013 A 
ATOM      5  C   UNL     1      -7.416  -8.184  -0.140  0.00  0.00    +0.040 A 
ATOM      6  C   UNL     1      -6.088  -7.759  -0.066  0.00  0.00    +0.036 A 
ENDROOT
BRANCH   1   9
ATOM      7  C   UNL     1      -3.493  -6.684  -0.586  0.00  0.00    +0.217 C 
ATOM      8  O   UNL     1      -3.754  -7.740  -1.122  0.00  0.00    -0.275 OA
ATOM      9  N   UNL     1      -4.469  -5.973   0.013  0.00  0.00    -0.285 N 
ATOM     10  H   UNL     1      -4.251  -5.162   0.499  0.00  0.00    +0.155 HD
BRANCH   7  11
ATOM     11  C   UNL     1      -2.078  -6.166  -0.589  0.00  0.00    +0.096 C 
BRANCH  11  12
ATOM     12  C   UNL     1      -1.175  -7.155  -1.328  0.00  0.00    +0.009 C 
BRANCH  12  13
ATOM     13  C   UNL     1       0.262  -6.630  -1.331  0.00  0.00    +0.000 C 
BRANCH  13  14
ATOM     14  C   UNL     1       1.166  -7.619  -2.070  0.00  0.00    -0.000 C 
BRANCH  14  16
ATOM     15  C   UNL     1       3.506  -8.083  -2.812  0.00  0.00    +0.004 C 
ATOM     16  C   UNL     1       2.603  -7.094  -2.073  0.00  0.00    -0.003 C 
ENDBRANCH  14  16
ENDBRANCH  13  14
ENDBRANCH  12  13
ENDBRANCH  11  12
ENDBRANCH   7  11
ENDBRANCH   1   9
BRANCH   5  17
ATOM     17  C   UNL     1      -7.734  -9.626  -0.133  0.00  0.00    +0.263 C 
ATOM     18  O   UNL     1      -6.840 -10.446  -0.057  0.00  0.00    -0.268 OA
ATOM     19  N   UNL     1      -9.017 -10.034  -0.209  0.00  0.00    -0.203 N 
ATOM     20  H   UNL     1      -9.730  -9.380  -0.270  0.00  0.00    +0.178 HD
BRANCH  19  21
ATOM     21  N   UNL     1      -9.318 -11.402  -0.202  0.00  0.00    -0.188 NA
ATOM     22  C   UNL     1     -10.565 -11.798  -0.277  0.00  0.00    +0.136 C 
BRANCH  22  23
ATOM     23  C   UNL     1     -10.867 -13.167  -0.270  0.00  0.00    +0.000 C 
ATOM     24  C   UNL     1     -12.129 -13.751  -0.347  0.00  0.00    +0.004 A 
ATOM     25  C   UNL     1     -13.428 -13.207  -0.451  0.00  0.00    +0.010 A 
ATOM     26  C   UNL     1     -14.502 -14.034  -0.509  0.00  0.00    +0.001 A 
ATOM     27  C   UNL     1     -14.358 -15.424  -0.470  0.00  0.00    +0.002 A 
ATOM     28  C   UNL     1     -13.144 -16.016  -0.371  0.00  0.00    +0.026 A 
ATOM     29  C   UNL     1     -11.972 -15.216  -0.305  0.00  0.00    +0.043 A 
ATOM     30  N   UNL     1     -10.700 -15.540  -0.208  0.00  0.00    -0.380 N 
ATOM     31  C   UNL     1      -9.890 -14.319  -0.182  0.00  0.00    +0.150 C 
ATOM     32  H   UNL     1     -10.353 -16.445  -0.164  0.00  0.00    +0.160 HD
ENDBRANCH  22  23
ENDBRANCH  19  21
ENDBRANCH   5  17
TORSDOF 9
