REMARK  Name = ZINC19642013
REMARK  6 active torsions:
REMARK  status: ('A' for Active; 'I' for Inactive)
REMARK    1  A    between atoms: C_1  and  C_2
REMARK    2  A    between atoms: C_2  and  C_3
REMARK    3  A    between atoms: C_2  and  C_4
REMARK    4  A    between atoms: C_7  and  C_10
REMARK    5  A    between atoms: C_15  and  C_19
REMARK    6  A    between atoms: C_15  and  C_20
REMARK                            x       y       z     vdW  Elec       q    Type
REMARK                         _______ _______ _______ _____ _____    ______ ____
ROOT
ATOM      1  C   UNL     1       2.451   3.937  -0.001  0.00  0.00    +0.173 C 
ATOM      2  C   UNL     1       2.758   4.368  -1.412  0.00  0.00    +0.041 C 
ATOM      3  C   UNL     1       2.551   5.647  -1.795  0.00  0.00    +0.020 C 
ATOM      4  C   UNL     1       2.850   6.101  -3.200  0.00  0.00    +0.058 C 
ATOM      5  C   UNL     1       2.654   4.933  -4.170  0.00  0.00    -0.023 C 
ATOM      6  C   UNL     1       3.570   3.782  -3.740  0.00  0.00    +0.086 C 
ATOM      7  C   UNL     1       3.260   3.414  -2.314  0.00  0.00    +0.164 C 
ATOM      8  O   UNL     1       3.446   2.275  -1.936  0.00  0.00    -0.292 OA
ATOM      9  C   UNL     1       1.196   4.471  -4.129  0.00  0.00    +0.011 C 
ATOM     10  C   UNL     1       3.012   5.378  -5.589  0.00  0.00    +0.011 C 
ATOM     11  N   UNL     1       2.064   6.554  -0.891  0.00  0.00    -0.290 N 
ATOM     12  C   UNL     1       2.147   6.288   0.458  0.00  0.00    +0.186 C 
ATOM     13  N   UNL     1       2.329   5.082   0.890  0.00  0.00    -0.243 NA
ATOM     14  N   UNL     1       2.033   7.322   1.361  0.00  0.00    -0.266 N 
ATOM     15  C   UNL     1       2.114   7.067   2.719  0.00  0.00    +0.165 A 
ATOM     16  N   UNL     1       2.289   5.919   3.332  0.00  0.00    -0.225 NA
ATOM     17  C   UNL     1       2.355   5.818   4.678  0.00  0.00    +0.080 A 
ATOM     18  C   UNL     1       2.543   4.653   5.457  0.00  0.00    +0.029 A 
ATOM     19  C   UNL     1       2.580   4.724   6.825  0.00  0.00    +0.002 A 
ATOM     20  C   UNL     1       2.434   5.932   7.492  0.00  0.00    +0.001 A 
ATOM     21  C   UNL     1       2.247   7.091   6.761  0.00  0.00    +0.017 A 
ATOM     22  C   UNL     1       2.210   7.029   5.391  0.00  0.00    +0.041 A 
ATOM     23  S   UNL     1       2.000   8.215   4.084  0.00  0.00    -0.052 S 
ATOM     24  H   UNL     1       1.609   7.492  -1.243  0.00  0.00    +0.154 HD
ATOM     25  H   UNL     1       1.877   8.350   1.003  0.00  0.00    +0.157 HD
ENDROOT
BRANCH   1  29
ATOM     26  C   UNL     1      -1.219   1.751   0.017  0.00  0.00    -0.045 A 
ATOM     27  C   UNL     1      -0.013   1.076   0.008  0.00  0.00    +0.004 A 
ATOM     28  C   UNL     1       1.175   1.783   0.000  0.00  0.00    +0.006 A 
ATOM     29  C   UNL     1       1.156   3.165   0.008  0.00  0.00    -0.019 A 
ATOM     30  C   UNL     1      -0.050   3.840   0.022  0.00  0.00    +0.006 A 
ATOM     31  C   UNL     1      -1.238   3.133   0.030  0.00  0.00    +0.004 A 
BRANCH  26  33
ATOM     32  C   UNL     1      -3.315   1.331   1.274  0.00  0.00    +0.012 C 
ATOM     33  C   UNL     1      -2.514   0.980   0.019  0.00  0.00    +0.013 C 
ATOM     34  C   UNL     1      -3.327   1.345  -1.224  0.00  0.00    +0.012 C 
ENDBRANCH  26  33
ENDBRANCH   1  29
TORSDOF 2
