REMARK  Name = ZINC12374615
REMARK  4 active torsions:
REMARK  status: ('A' for Active; 'I' for Inactive)
REMARK    1  A    between atoms: C_6  and  N_7
REMARK    2  A    between atoms: N_20  and  N_21
REMARK    3  A    between atoms: C_22  and  C_23
REMARK    4  A    between atoms: C_25  and  N_31
REMARK                            x       y       z     vdW  Elec       q    Type
REMARK                         _______ _______ _______ _____ _____    ______ ____
ROOT
ATOM      1  N   UNL     1      -2.317  -2.681   0.010  0.00  0.00    -0.283 N 
ATOM      2  C   UNL     1      -1.219  -2.072   0.587  0.00  0.00    +0.225 A 
ATOM      3  N   UNL     1      -0.030  -2.665   0.539  0.00  0.00    -0.179 NA
ATOM      4  C   UNL     1       1.027  -2.079   1.094  0.00  0.00    +0.241 A 
ATOM      5  N   UNL     1       0.894  -0.901   1.697  0.00  0.00    -0.180 NA
ATOM      6  C   UNL     1      -0.295  -0.309   1.744  0.00  0.00    +0.224 A 
ATOM      7  N   UNL     1      -1.353  -0.897   1.194  0.00  0.00    -0.181 NA
ATOM      8  N   UNL     1      -0.433   0.913   2.370  0.00  0.00    -0.299 N 
ATOM      9  C   UNL     1      -1.014   1.908   1.460  0.00  0.00    +0.108 C 
ATOM     10  C   UNL     1      -1.287   3.204   2.226  0.00  0.00    +0.019 C 
ATOM     11  C   UNL     1       0.026   3.729   2.815  0.00  0.00    +0.003 C 
ATOM     12  C   UNL     1       0.635   2.656   3.721  0.00  0.00    +0.019 C 
ATOM     13  C   UNL     1       0.852   1.375   2.911  0.00  0.00    +0.108 C 
ATOM     14  N   UNL     1       2.263  -2.695   1.045  0.00  0.00    -0.205 N 
ATOM     15  H   UNL     1      -2.246  -3.585  -0.334  0.00  0.00    +0.155 HD
ATOM     16  H   UNL     1       3.047  -2.236   1.384  0.00  0.00    +0.177 HD
ENDROOT
BRANCH   1  22
ATOM     17  C   UNL     1      -3.540  -0.617  -0.272  0.00  0.00    +0.026 A 
ATOM     18  C   UNL     1      -4.740   0.060  -0.363  0.00  0.00    +0.040 A 
ATOM     19  C   UNL     1      -5.936  -0.630  -0.252  0.00  0.00    +0.124 A 
ATOM     20  C   UNL     1      -5.930  -2.001  -0.054  0.00  0.00    +0.040 A 
ATOM     21  C   UNL     1      -4.732  -2.682   0.033  0.00  0.00    +0.026 A 
ATOM     22  C   UNL     1      -3.532  -1.992  -0.078  0.00  0.00    +0.034 A 
ATOM     23  F   UNL     1      -7.109   0.034  -0.337  0.00  0.00    -0.205 F 
ENDBRANCH   1  22
BRANCH  14  24
ATOM     24  N   UNL     1       2.383  -3.982   0.505  0.00  0.00    -0.187 NA
ATOM     25  C   UNL     1       3.524  -4.599   0.548  0.00  0.00    +0.139 C 
BRANCH  25  26
ATOM     26  C   UNL     1       3.680  -5.906  -0.117  0.00  0.00    +0.015 A 
ATOM     27  C   UNL     1       4.934  -6.520  -0.171  0.00  0.00    +0.045 A 
ATOM     28  C   UNL     1       5.072  -7.745  -0.788  0.00  0.00    +0.145 A 
ATOM     29  C   UNL     1       3.974  -8.362  -1.366  0.00  0.00    +0.073 A 
ATOM     30  C   UNL     1       2.730  -7.757  -1.322  0.00  0.00    +0.043 A 
ATOM     31  C   UNL     1       2.576  -6.533  -0.701  0.00  0.00    +0.051 A 
ATOM     32 CL   UNL     1       1.015  -5.776  -0.646  0.00  0.00    -0.083 Cl
ATOM     33 CL   UNL     1       4.160  -9.900  -2.148  0.00  0.00    -0.081 Cl
BRANCH  28  34
ATOM     34  N   UNL     1       6.399  -8.400  -0.840  0.00  0.00    +0.058 N 
ATOM     35  O   UNL     1       7.365  -7.860  -0.333  0.00  0.00    -0.126 OA
ATOM     36  O   UNL     1       6.524  -9.480  -1.390  0.00  0.00    -0.126 OA
ENDBRANCH  28  34
ENDBRANCH  25  26
ENDBRANCH  14  24
TORSDOF 4
