REMARK  Name = ZINC60093336
REMARK  17 active torsions:
REMARK  status: ('A' for Active; 'I' for Inactive)
REMARK    1  A    between atoms: C_1  and  C_2
REMARK    2  A    between atoms: C_2  and  C_4
REMARK    3  A    between atoms: C_2  and  O_23
REMARK    4  A    between atoms: C_9  and  C_12
REMARK    5  A    between atoms: N_14  and  C_15
REMARK    6  A    between atoms: C_15  and  C_16
REMARK    7  A    between atoms: C_16  and  C_17
REMARK    8  A    between atoms: C_16  and  C_18
REMARK    9  A    between atoms: C_16  and  C_19
REMARK   10  A    between atoms: C_19  and  N_20
REMARK   11  A    between atoms: N_20  and  C_21
REMARK   12  A    between atoms: N_20  and  C_22
REMARK   13  A    between atoms: O_23  and  C_24
REMARK   14  A    between atoms: C_27  and  C_30
REMARK   15  A    between atoms: C_30  and  C_31
REMARK   16  A    between atoms: C_30  and  C_32
REMARK   17  A    between atoms: C_30  and  C_33
REMARK                            x       y       z     vdW  Elec       q    Type
REMARK                         _______ _______ _______ _____ _____    ______ ____
ROOT
ATOM      1  C   UNL     1       0.399   2.322  -3.766  0.00  0.00    +0.256 C 
ATOM      2  O   UNL     1       1.589   2.111  -3.657  0.00  0.00    -0.272 OA
ATOM      3  N   UNL     1      -0.243   1.989  -4.903  0.00  0.00    -0.298 N 
ATOM      4  C   UNL     1      -1.683   2.244  -5.052  0.00  0.00    +0.108 C 
ATOM      5  C   UNL     1      -2.376   0.939  -5.454  0.00  0.00    +0.032 C 
ATOM      6  C   UNL     1      -1.704   0.374  -6.708  0.00  0.00    +0.078 C 
ATOM      7  C   UNL     1      -0.235   0.069  -6.409  0.00  0.00    +0.032 C 
ATOM      8  C   UNL     1       0.484   1.370  -6.019  0.00  0.00    +0.108 C 
ENDROOT
BRANCH   6   9
ATOM      9  C   UNL     1      -2.405  -0.892  -7.126  0.00  0.00    +0.216 C 
ATOM     10  O   UNL     1      -3.349  -1.303  -6.485  0.00  0.00    -0.276 OA
ATOM     11  N   UNL     1      -1.984  -1.568  -8.213  0.00  0.00    -0.315 N 
ATOM     12  H   UNL     1      -1.229  -1.239  -8.727  0.00  0.00    +0.149 HD
BRANCH  11  13
ATOM     13  C   UNL     1      -2.665  -2.800  -8.620  0.00  0.00    +0.108 C 
BRANCH  13  14
ATOM     14  C   UNL     1      -1.994  -3.364  -9.874  0.00  0.00    -0.034 C 
ATOM     15  C   UNL     1      -2.080  -2.336 -11.004  0.00  0.00    +0.010 C 
ATOM     16  C   UNL     1      -0.525  -3.669  -9.573  0.00  0.00    +0.010 C 
BRANCH  14  17
ATOM     17  C   UNL     1      -2.706  -4.650 -10.299  0.00  0.00    -0.072 C 
BRANCH  17  18
ATOM     18  N   UNL     1      -2.084  -5.173 -11.522  0.00  0.00    +0.376 N 
ATOM     19  C   UNL     1      -0.921  -5.997 -11.167  0.00  0.00    -0.097 C 
ATOM     20  C   UNL     1      -3.058  -5.991 -12.256  0.00  0.00    -0.097 C 
ATOM     21  H   UNL     1      -1.785  -4.403 -12.103  0.00  0.00    -0.083 HD
ENDBRANCH  17  18
ENDBRANCH  14  17
ENDBRANCH  13  14
ENDBRANCH  11  13
ENDBRANCH   6   9
BRANCH   1  23
ATOM     22  C   UNL     1      -0.875   4.330  -3.064  0.00  0.00    +0.062 C 
ATOM     23  C   UNL     1      -0.360   2.957  -2.629  0.00  0.00    +0.256 C 
BRANCH  23  24
ATOM     24  O   UNL     1       0.506   3.107  -1.503  0.00  0.00    -0.480 OA
BRANCH  24  25
ATOM     25  C   UNL     1      -0.082   3.200  -0.281  0.00  0.00    +0.122 A 
ATOM     26  C   UNL     1      -1.457   3.062  -0.159  0.00  0.00    +0.046 A 
ATOM     27  C   UNL     1      -2.051   3.156   1.085  0.00  0.00    +0.008 A 
ATOM     28  C   UNL     1      -1.277   3.387   2.207  0.00  0.00    -0.042 A 
ATOM     29  C   UNL     1       0.093   3.525   2.088  0.00  0.00    +0.008 A 
ATOM     30  C   UNL     1       0.693   3.426   0.847  0.00  0.00    +0.046 A 
BRANCH  28  31
ATOM     31  C   UNL     1      -1.929   3.490   3.562  0.00  0.00    -0.013 C 
ATOM     32  C   UNL     1      -2.657   2.182   3.878  0.00  0.00    +0.015 C 
ATOM     33  C   UNL     1      -0.858   3.747   4.624  0.00  0.00    +0.015 C 
ATOM     34  C   UNL     1      -2.932   4.645   3.559  0.00  0.00    +0.015 C 
ENDBRANCH  28  31
ENDBRANCH  24  25
ENDBRANCH  23  24
ENDBRANCH   1  23
TORSDOF 9
