REMARK  Name = ZINC12470932
REMARK  8 active torsions:
REMARK  status: ('A' for Active; 'I' for Inactive)
REMARK    1  A    between atoms: C_1  and  C_2
REMARK    2  A    between atoms: C_2  and  O_3
REMARK    3  A    between atoms: O_3  and  C_4
REMARK    4  A    between atoms: C_4  and  C_6
REMARK    5  A    between atoms: C_11  and  C_12
REMARK    6  A    between atoms: C_11  and  N_71
REMARK    7  A    between atoms: N_20  and  C_23
REMARK    8  A    between atoms: C_23  and  C_24
REMARK                            x       y       z     vdW  Elec       q    Type
REMARK                         _______ _______ _______ _____ _____    ______ ____
ROOT
ATOM      1  C   UNL     1       1.696  -2.398   2.240  0.00  0.00    +0.001 A 
ATOM      2  C   UNL     1       1.315  -2.740   3.495  0.00  0.00    +0.017 A 
ATOM      3  C   UNL     1       2.327  -3.264   4.415  0.00  0.00    -0.001 A 
ATOM      4  C   UNL     1       1.996  -3.638   5.720  0.00  0.00    +0.014 A 
ATOM      5  C   UNL     1       2.963  -4.122   6.560  0.00  0.00    -0.043 A 
ATOM      6  C   UNL     1       4.276  -4.245   6.123  0.00  0.00    -0.042 A 
ATOM      7  C   UNL     1       4.623  -3.880   4.836  0.00  0.00    +0.030 A 
ATOM      8  C   UNL     1       3.656  -3.386   3.969  0.00  0.00    +0.052 A 
ATOM      9  N   UNL     1       3.980  -3.015   2.681  0.00  0.00    -0.304 N 
ATOM     10  C   UNL     1       3.043  -2.538   1.842  0.00  0.00    +0.253 A 
ATOM     11  O   UNL     1       3.365  -2.220   0.711  0.00  0.00    -0.267 OA
ATOM     12  C   UNL     1       5.133  -4.802   7.240  0.00  0.00    +0.036 C 
ATOM     13  C   UNL     1       4.138  -5.413   8.248  0.00  0.00    +0.009 C 
ATOM     14  C   UNL     1       2.859  -4.587   7.997  0.00  0.00    +0.036 C 
ENDROOT
BRANCH   1  15
ATOM     15  C   UNL     1       0.678  -1.861   1.267  0.00  0.00    -0.038 C 
BRANCH  15  21
ATOM     16  C   UNL     1       1.076   2.294   0.337  0.00  0.00    +0.094 C 
ATOM     17  C   UNL     1      -0.321   1.687   0.497  0.00  0.00    -0.004 C 
ATOM     18  C   UNL     1      -0.237   0.170   0.318  0.00  0.00    -0.078 C 
ATOM     19  C   UNL     1       2.037   0.140   1.155  0.00  0.00    -0.078 C 
ATOM     20  C   UNL     1       2.021   1.656   1.359  0.00  0.00    -0.004 C 
ATOM     21  N   UNL     1       0.669  -0.385   1.347  0.00  0.00    +0.383 N 
ATOM     22  H   UNL     1       0.331  -0.104   2.275  0.00  0.00    -0.081 HD
BRANCH  16  23
ATOM     23  C   UNL     1       1.009   3.781   0.572  0.00  0.00    +0.310 C 
ATOM     24  O   UNL     1      -0.047   4.303   0.840  0.00  0.00    -0.251 OA
BRANCH  23  25
ATOM     25  O   UNL     1       2.123   4.525   0.483  0.00  0.00    -0.465 OA
BRANCH  25  27
ATOM     26  C   UNL     1       3.348   6.627   0.578  0.00  0.00    +0.048 C 
ATOM     27  C   UNL     1       1.984   5.951   0.722  0.00  0.00    +0.229 C 
ENDBRANCH  25  27
ENDBRANCH  23  25
ENDBRANCH  16  23
ENDBRANCH  15  21
ENDBRANCH   1  15
BRANCH   9  28
ATOM     28  C   UNL     1       5.364  -3.141   2.219  0.00  0.00    +0.173 C 
BRANCH  28  29
ATOM     29  C   UNL     1       5.551  -4.495   1.531  0.00  0.00    +0.230 C 
ATOM     30  C   UNL     1       6.958  -4.578   0.925  0.00  0.00    +0.275 C 
ATOM     31  O   UNL     1       7.103  -5.860   0.302  0.00  0.00    -0.485 OA
ATOM     32  C   UNL     1       6.686  -6.939   1.019  0.00  0.00    +0.162 A 
ATOM     33  C   UNL     1       7.112  -8.207   0.652  0.00  0.00    +0.049 A 
ATOM     34  C   UNL     1       6.694  -9.312   1.368  0.00  0.00    +0.004 A 
ATOM     35  C   UNL     1       5.850  -9.158   2.452  0.00  0.00    +0.004 A 
ATOM     36  C   UNL     1       5.422  -7.897   2.824  0.00  0.00    +0.049 A 
ATOM     37  C   UNL     1       5.839  -6.784   2.110  0.00  0.00    +0.163 A 
ATOM     38  O   UNL     1       5.414  -5.548   2.492  0.00  0.00    -0.480 OA
ENDBRANCH  28  29
ENDBRANCH   9  28
TORSDOF 7
