REMARK  Name = ZINC49122917
REMARK  5 active torsions:
REMARK  status: ('A' for Active; 'I' for Inactive)
REMARK    1  A    between atoms: C_4  and  S_9
REMARK    2  A    between atoms: C_5  and  N_7
REMARK    3  A    between atoms: N_7  and  N_8
REMARK    4  A    between atoms: S_9  and  N_12
REMARK    5  A    between atoms: N_12  and  C_13
REMARK                            x       y       z     vdW  Elec       q    Type
REMARK                         _______ _______ _______ _____ _____    ______ ____
ROOT
ATOM      1  S   UNL     1       4.063  -0.696  -0.015  0.00  0.00    +0.074 S 
ATOM      2  O   UNL     1       4.026  -1.891  -0.784  0.00  0.00    -0.150 OA
ATOM      3  O   UNL     1       5.055   0.303  -0.206  0.00  0.00    -0.150 OA
ENDROOT
BRANCH   1   7
ATOM      4  C   UNL     1       0.052   1.335  -0.589  0.00  0.00    +0.002 A 
ATOM      5  C   UNL     1       0.342   0.164  -1.266  0.00  0.00    +0.002 A 
ATOM      6  C   UNL     1       1.566  -0.455  -1.091  0.00  0.00    +0.031 A 
ATOM      7  C   UNL     1       2.504   0.094  -0.239  0.00  0.00    +0.130 A 
ATOM      8  C   UNL     1       2.216   1.270   0.442  0.00  0.00    +0.068 A 
ATOM      9  C   UNL     1       0.985   1.889   0.264  0.00  0.00    +0.026 A 
BRANCH   8  10
ATOM     10  N   UNL     1       3.162   1.828   1.305  0.00  0.00    -0.281 N 
ATOM     11  H   UNL     1       4.045   1.433   1.378  0.00  0.00    +0.166 HD
BRANCH  10  12
ATOM     12  N   UNL     1       2.844   2.931   2.046  0.00  0.00    -0.256 NA
ATOM     13  H   UNL     1       3.645   3.262   2.563  0.00  0.00    +0.140 HD
ATOM     14  H   UNL     1       2.464   3.661   1.462  0.00  0.00    +0.140 HD
ENDBRANCH  10  12
ENDBRANCH   8  10
ENDBRANCH   1   7
BRANCH   1  15
ATOM     15  N   UNL     1       4.155  -1.157   1.572  0.00  0.00    -0.216 N 
ATOM     16  H   UNL     1       4.800  -0.737   2.163  0.00  0.00    +0.174 HD
BRANCH  15  17
ATOM     17  C   UNL     1       3.303  -2.151   2.062  0.00  0.00    +0.051 A 
ATOM     18  C   UNL     1       1.950  -2.124   1.750  0.00  0.00    +0.026 A 
ATOM     19  C   UNL     1       1.110  -3.107   2.234  0.00  0.00    +0.025 A 
ATOM     20  C   UNL     1       1.614  -4.120   3.029  0.00  0.00    +0.076 A 
ATOM     21  C   UNL     1       2.964  -4.152   3.343  0.00  0.00    +0.143 A 
ATOM     22  C   UNL     1       3.810  -3.172   2.855  0.00  0.00    +0.064 A 
ATOM     23  F   UNL     1       3.454  -5.142   4.120  0.00  0.00    -0.204 F 
ATOM     24 CL   UNL     1       0.555  -5.355   3.636  0.00  0.00    -0.081 Cl
ENDBRANCH  15  17
ENDBRANCH   1  15
TORSDOF 5
