REMARK  Name = ZINC04884996
REMARK  7 active torsions:
REMARK  status: ('A' for Active; 'I' for Inactive)
REMARK    1  A    between atoms: C_1  and  C_2
REMARK    2  A    between atoms: C_2  and  N_3
REMARK    3  A    between atoms: C_8  and  C_25
REMARK    4  A    between atoms: C_10  and  C_15
REMARK    5  A    between atoms: C_10  and  C_21
REMARK    6  A    between atoms: C_21  and  O_23
REMARK    7  A    between atoms: O_23  and  C_24
REMARK                            x       y       z     vdW  Elec       q    Type
REMARK                         _______ _______ _______ _____ _____    ______ ____
ROOT
ATOM      1  N   UNL     1       1.067   2.181   0.081  0.00  0.00    -0.242 N 
ATOM      2  C   UNL     1       0.675   3.465   0.333  0.00  0.00    +0.224 C 
ATOM      3  O   UNL     1       1.328   4.471   0.159  0.00  0.00    -0.275 OA
ATOM      4  C   UNL     1      -0.718   3.384   0.866  0.00  0.00    +0.080 C 
ATOM      5  C   UNL     1      -1.810   4.330   0.382  0.00  0.00    +0.010 C 
ATOM      6  C   UNL     1      -2.615   2.051   0.261  0.00  0.00    +0.070 C 
ATOM      7  C   UNL     1      -1.167   2.115   0.049  0.00  0.00    +0.090 C 
ATOM      8  C   UNL     1       0.018   1.296   0.071  0.00  0.00    +0.225 C 
ATOM      9  O   UNL     1       0.076   0.085   0.076  0.00  0.00    -0.275 OA
ATOM     10  N   UNL     1      -3.032   3.476   0.411  0.00  0.00    +0.400 N 
ATOM     11  H   UNL     1      -3.656   3.737  -0.361  0.00  0.00    -0.083 HD
ATOM     12  H   UNL     1      -3.522   3.602   1.304  0.00  0.00    -0.083 HD
ENDROOT
BRANCH   6  13
ATOM     13  C   UNL     1      -2.933   1.273   1.512  0.00  0.00    -0.047 A 
ATOM     14  C   UNL     1      -2.768  -0.099   1.534  0.00  0.00    +0.003 A 
ATOM     15  C   UNL     1      -3.055  -0.812   2.683  0.00  0.00    +0.000 A 
ATOM     16  C   UNL     1      -3.517  -0.154   3.807  0.00  0.00    +0.000 A 
ATOM     17  C   UNL     1      -3.688   1.218   3.784  0.00  0.00    +0.000 A 
ATOM     18  C   UNL     1      -3.396   1.931   2.637  0.00  0.00    +0.003 A 
ENDBRANCH   6  13
BRANCH   5  19
ATOM     19  C   UNL     1      -1.522   4.798  -1.022  0.00  0.00    +0.092 A 
ATOM     20  C   UNL     1      -0.981   5.982  -1.360  0.00  0.00    +0.043 A 
ATOM     21  C   UNL     1      -0.891   6.003  -2.771  0.00  0.00    +0.041 A 
ATOM     22  C   UNL     1      -1.382   4.830  -3.210  0.00  0.00    +0.195 A 
ATOM     23  O   UNL     1      -1.758   4.102  -2.146  0.00  0.00    -0.469 OA
ENDBRANCH   5  19
BRANCH   1  25
ATOM     24  C   UNL     1       2.767   1.878  -1.651  0.00  0.00    +0.025 C 
ATOM     25  C   UNL     1       2.459   1.790  -0.155  0.00  0.00    +0.113 C 
ENDBRANCH   1  25
BRANCH   6  26
ATOM     26  C   UNL     1      -3.291   1.423  -0.931  0.00  0.00    +0.301 C 
ATOM     27  O   UNL     1      -2.692   0.626  -1.614  0.00  0.00    -0.252 OA
BRANCH  26  28
ATOM     28  O   UNL     1      -4.557   1.750  -1.234  0.00  0.00    -0.469 OA
ATOM     29  C   UNL     1      -5.143   1.107  -2.396  0.00  0.00    +0.280 C 
ENDBRANCH  26  28
ENDBRANCH   6  26
TORSDOF 5
