REMARK  Name = ZINC36877674
REMARK  10 active torsions:
REMARK  status: ('A' for Active; 'I' for Inactive)
REMARK    1  A    between atoms: C_1  and  C_2
REMARK    2  A    between atoms: C_2  and  C_4
REMARK    3  A    between atoms: C_2  and  C_26
REMARK    4  A    between atoms: C_4  and  N_5
REMARK    5  A    between atoms: C_6  and  C_8
REMARK    6  A    between atoms: C_8  and  C_10
REMARK    7  A    between atoms: C_8  and  S_11
REMARK    8  A    between atoms: S_11  and  C_12
REMARK    9  A    between atoms: C_15  and  C_18
REMARK   10  A    between atoms: N_16  and  N_17
REMARK                            x       y       z     vdW  Elec       q    Type
REMARK                         _______ _______ _______ _____ _____    ______ ____
ROOT
ATOM      1  S   UNL     1       5.390  -1.166  -3.143  0.00  0.00    -0.072 S 
ENDROOT
BRANCH   1   2
ATOM      2  C   UNL     1       7.043  -0.584  -2.959  0.00  0.00    +0.209 A 
ATOM      3  N   UNL     1       7.433   0.441  -2.236  0.00  0.00    -0.121 NA
ATOM      4  N   UNL     1       8.707   0.587  -2.326  0.00  0.00    -0.127 NA
ATOM      5  C   UNL     1       9.208  -0.337  -3.113  0.00  0.00    +0.183 A 
ATOM      6  N   UNL     1       8.159  -1.118  -3.538  0.00  0.00    -0.224 N 
BRANCH   5   7
ATOM      7  C   UNL     1      10.632  -0.508  -3.470  0.00  0.00    +0.039 A 
ATOM      8  C   UNL     1      11.003  -0.698  -4.802  0.00  0.00    +0.014 A 
ATOM      9  C   UNL     1      12.334  -0.857  -5.129  0.00  0.00    +0.021 A 
ATOM     10  C   UNL     1      13.302  -0.827  -4.139  0.00  0.00    +0.042 A 
ATOM     11  C   UNL     1      12.941  -0.639  -2.816  0.00  0.00    +0.040 A 
ATOM     12  C   UNL     1      11.613  -0.473  -2.476  0.00  0.00    +0.053 A 
ATOM     13 CL   UNL     1      11.163  -0.230  -0.818  0.00  0.00    -0.083 Cl
ATOM     14 CL   UNL     1      14.974  -1.028  -4.560  0.00  0.00    -0.083 Cl
ENDBRANCH   5   7
BRANCH   6  15
ATOM     15  N   UNL     1       8.220  -2.201  -4.369  0.00  0.00    -0.295 N 
ATOM     16  H   UNL     1       8.206  -1.916  -5.337  0.00  0.00    +0.163 HD
ATOM     17  H   UNL     1       9.034  -2.764  -4.170  0.00  0.00    +0.163 HD
ENDBRANCH   6  15
ENDBRANCH   1   2
BRANCH   1  18
ATOM     18  C   UNL     1       4.409  -0.027  -2.127  0.00  0.00    +0.137 C 
ATOM     19  C   UNL     1       4.479   1.379  -2.725  0.00  0.00    +0.029 C 
BRANCH  18  21
ATOM     20  N   UNL     1       2.151  -0.068  -1.117  0.00  0.00    -0.314 N 
ATOM     21  C   UNL     1       2.975  -0.489  -2.098  0.00  0.00    +0.226 C 
ATOM     22  O   UNL     1       2.562  -1.240  -2.956  0.00  0.00    -0.275 OA
ATOM     23  H   UNL     1       2.482   0.532  -0.431  0.00  0.00    +0.149 HD
BRANCH  20  24
ATOM     24  C   UNL     1       0.757  -0.517  -1.089  0.00  0.00    +0.112 C 
BRANCH  24  26
ATOM     25  C   UNL     1      -0.021   1.621  -0.057  0.00  0.00    +0.014 C 
ATOM     26  C   UNL     1       0.046   0.102   0.116  0.00  0.00    +0.033 C 
BRANCH  26  27
ATOM     27  C   UNL     1      -1.351  -0.454   0.216  0.00  0.00    -0.043 A 
ATOM     28  C   UNL     1      -2.240  -0.281  -0.827  0.00  0.00    +0.004 A 
ATOM     29  C   UNL     1      -3.522  -0.791  -0.735  0.00  0.00    +0.000 A 
ATOM     30  C   UNL     1      -3.913  -1.476   0.400  0.00  0.00    +0.000 A 
ATOM     31  C   UNL     1      -3.023  -1.650   1.444  0.00  0.00    +0.000 A 
ATOM     32  C   UNL     1      -1.740  -1.143   1.350  0.00  0.00    +0.004 A 
ENDBRANCH  26  27
ENDBRANCH  24  26
ENDBRANCH  20  24
ENDBRANCH  18  21
ENDBRANCH   1  18
TORSDOF 8
