REMARK  Name = ZINC39528346
REMARK  9 active torsions:
REMARK  status: ('A' for Active; 'I' for Inactive)
REMARK    1  A    between atoms: C_1  and  C_2
REMARK    2  A    between atoms: C_2  and  C_3
REMARK    3  A    between atoms: C_2  and  S_4
REMARK    4  A    between atoms: S_4  and  C_7
REMARK    5  A    between atoms: C_10  and  N_20
REMARK    6  A    between atoms: C_11  and  C_13
REMARK    7  A    between atoms: C_13  and  C_14
REMARK    8  A    between atoms: C_24  and  C_27
REMARK    9  A    between atoms: C_27  and  C_28
REMARK                            x       y       z     vdW  Elec       q    Type
REMARK                         _______ _______ _______ _____ _____    ______ ____
ROOT
ATOM      1  C   UNL     1      -1.912   0.527  -2.073  0.00  0.00    +0.089 A 
ATOM      2  C   UNL     1      -3.121   1.181  -1.917  0.00  0.00    +0.029 A 
ATOM      3  C   UNL     1      -3.913   1.443  -3.018  0.00  0.00    +0.025 A 
ATOM      4  C   UNL     1      -3.494   1.049  -4.282  0.00  0.00    +0.033 A 
ATOM      5  C   UNL     1      -2.280   0.392  -4.435  0.00  0.00    -0.020 A 
ATOM      6  C   UNL     1      -1.490   0.138  -3.331  0.00  0.00    +0.032 A 
ENDROOT
BRANCH   4   7
ATOM      7  N   UNL     1      -4.293   1.312  -5.398  0.00  0.00    -0.333 N 
ATOM      8  C   UNL     1      -4.245   2.619  -6.071  0.00  0.00    +0.086 C 
ATOM      9  C   UNL     1      -5.679   3.136  -6.231  0.00  0.00    -0.063 C 
ATOM     10  N   UNL     1      -6.488   2.126  -6.924  0.00  0.00    +0.383 N 
ATOM     11  C   UNL     1      -6.594   0.917  -6.098  0.00  0.00    -0.050 C 
ATOM     12  C   UNL     1      -5.202   0.288  -5.936  0.00  0.00    +0.089 C 
ATOM     13  H   UNL     1      -7.411   2.497  -7.096  0.00  0.00    -0.085 HD
ATOM     14  H   UNL     1      -6.053   1.894  -7.804  0.00  0.00    -0.085 HD
BRANCH  11  15
ATOM     15  C   UNL     1      -7.529  -0.085  -6.778  0.00  0.00    +0.021 C 
BRANCH  15  16
ATOM     16  C   UNL     1      -8.921   0.490  -6.843  0.00  0.00    -0.049 A 
ATOM     17  C   UNL     1      -9.827   0.223  -5.835  0.00  0.00    +0.003 A 
ATOM     18  C   UNL     1     -11.103   0.750  -5.895  0.00  0.00    +0.000 A 
ATOM     19  C   UNL     1     -11.473   1.546  -6.963  0.00  0.00    +0.000 A 
ATOM     20  C   UNL     1     -10.566   1.815  -7.971  0.00  0.00    +0.000 A 
ATOM     21  C   UNL     1      -9.288   1.290  -7.909  0.00  0.00    +0.003 A 
ENDBRANCH  15  16
ENDBRANCH  11  15
ENDBRANCH   4   7
BRANCH   1  22
ATOM     22  S   UNL     1      -0.905   0.195  -0.666  0.00  0.00    -0.001 S 
ATOM     23  O   UNL     1      -0.132  -0.940  -1.034  0.00  0.00    -0.169 OA
ATOM     24  O   UNL     1      -1.814   0.129   0.424  0.00  0.00    -0.169 OA
BRANCH  22  26
ATOM     25  C   UNL     1      -0.702   2.897  -0.298  0.00  0.00    +0.032 C 
ATOM     26  C   UNL     1       0.163   1.652  -0.503  0.00  0.00    +0.130 C 
ATOM     27  C   UNL     1       1.090   1.472   0.701  0.00  0.00    +0.032 C 
ENDBRANCH  22  26
ENDBRANCH   1  22
BRANCH   5  28
ATOM     28  C   UNL     1      -1.822  -0.038  -5.805  0.00  0.00    +0.072 C 
BRANCH  28  29
ATOM     29  C   UNL     1      -0.850   0.976  -6.351  0.00  0.00    -0.043 A 
ATOM     30  C   UNL     1      -1.286   1.946  -7.235  0.00  0.00    +0.004 A 
ATOM     31  C   UNL     1      -0.395   2.876  -7.735  0.00  0.00    +0.000 A 
ATOM     32  C   UNL     1       0.933   2.837  -7.352  0.00  0.00    +0.000 A 
ATOM     33  C   UNL     1       1.369   1.868  -6.468  0.00  0.00    +0.000 A 
ATOM     34  C   UNL     1       0.476   0.940  -5.964  0.00  0.00    +0.004 A 
ENDBRANCH  28  29
ENDBRANCH   5  28
TORSDOF 7
