REMARK  Name = ZINC35228106
REMARK  9 active torsions:
REMARK  status: ('A' for Active; 'I' for Inactive)
REMARK    1  A    between atoms: C_1  and  C_2
REMARK    2  A    between atoms: C_2  and  C_3
REMARK    3  A    between atoms: C_2  and  N_4
REMARK    4  A    between atoms: C_5  and  C_7
REMARK    5  A    between atoms: C_9  and  N_23
REMARK    6  A    between atoms: C_12  and  N_13
REMARK    7  A    between atoms: N_23  and  S_24
REMARK    8  A    between atoms: S_24  and  C_27
REMARK    9  A    between atoms: C_30  and  N_33
REMARK                            x       y       z     vdW  Elec       q    Type
REMARK                         _______ _______ _______ _____ _____    ______ ____
ROOT
ATOM      1  C   UNL     1      -3.034  -2.343  -0.383  0.00  0.00    +0.059 A 
ATOM      2  C   UNL     1      -4.056  -1.533   0.120  0.00  0.00    +0.039 A 
ATOM      3  C   UNL     1      -5.368  -1.969   0.070  0.00  0.00    +0.049 A 
ATOM      4  C   UNL     1      -5.673  -3.211  -0.479  0.00  0.00    +0.026 A 
ATOM      5  C   UNL     1      -4.671  -4.017  -0.977  0.00  0.00    +0.026 A 
ATOM      6  C   UNL     1      -3.349  -3.591  -0.939  0.00  0.00    +0.042 A 
ENDROOT
BRANCH   6   7
ATOM      7  N   UNL     1      -2.340  -4.403  -1.448  0.00  0.00    -0.325 N 
ATOM      8  C   UNL     1      -1.652  -5.392  -0.600  0.00  0.00    +0.110 C 
ATOM      9  C   UNL     1      -1.966  -6.782  -1.151  0.00  0.00    +0.054 C 
ATOM     10  C   UNL     1      -1.771  -6.824  -2.644  0.00  0.00    -0.041 A 
ATOM     11  C   UNL     1      -1.595  -8.069  -3.236  0.00  0.00    +0.004 A 
ATOM     12  C   UNL     1      -1.420  -8.179  -4.599  0.00  0.00    +0.000 A 
ATOM     13  C   UNL     1      -1.421  -7.042  -5.387  0.00  0.00    +0.000 A 
ATOM     14  C   UNL     1      -1.592  -5.805  -4.801  0.00  0.00    +0.005 A 
ATOM     15  C   UNL     1      -1.762  -5.692  -3.428  0.00  0.00    -0.027 A 
ATOM     16  C   UNL     1      -1.921  -4.312  -2.851  0.00  0.00    +0.140 C 
ENDBRANCH   6   7
BRANCH   1  18
ATOM     17  N   UNL     1      -1.336  -0.685   0.203  0.00  0.00    -0.309 N 
ATOM     18  C   UNL     1      -1.634  -1.885  -0.333  0.00  0.00    +0.246 C 
ATOM     19  O   UNL     1      -0.748  -2.591  -0.776  0.00  0.00    -0.270 OA
ATOM     20  H   UNL     1      -2.042  -0.122   0.556  0.00  0.00    +0.149 HD
BRANCH  17  22
ATOM     21  C   UNL     1       0.092   1.299   0.297  0.00  0.00    +0.027 C 
ATOM     22  C   UNL     1       0.056  -0.230   0.252  0.00  0.00    +0.067 C 
ATOM     23  C   UNL     1       0.733  -0.793   1.503  0.00  0.00    +0.027 C 
ENDBRANCH  17  22
ENDBRANCH   1  18
BRANCH   3  24
ATOM     24  N   UNL     1      -6.393  -1.158   0.573  0.00  0.00    -0.216 N 
ATOM     25  H   UNL     1      -6.292  -0.729   1.437  0.00  0.00    +0.174 HD
BRANCH  24  26
ATOM     26  S   UNL     1      -7.777  -0.931  -0.307  0.00  0.00    +0.072 S 
ATOM     27  O   UNL     1      -8.258  -2.224  -0.649  0.00  0.00    -0.150 OA
ATOM     28  O   UNL     1      -8.565   0.009   0.410  0.00  0.00    -0.150 OA
BRANCH  26  29
ATOM     29  C   UNL     1      -7.312  -0.151  -1.817  0.00  0.00    +0.109 A 
ATOM     30  C   UNL     1      -7.169   1.223  -1.870  0.00  0.00    +0.031 A 
ATOM     31  C   UNL     1      -6.804   1.834  -3.055  0.00  0.00    +0.034 A 
ATOM     32  C   UNL     1      -6.582   1.072  -4.187  0.00  0.00    +0.126 A 
ATOM     33  C   UNL     1      -6.725  -0.302  -4.134  0.00  0.00    +0.034 A 
ATOM     34  C   UNL     1      -7.085  -0.914  -2.948  0.00  0.00    +0.031 A 
BRANCH  32  35
ATOM     35  N   UNL     1      -6.192   1.728  -5.455  0.00  0.00    +0.056 N 
ATOM     36  O   UNL     1      -6.068   2.929  -5.502  0.00  0.00    -0.126 OA
ATOM     37  O   UNL     1      -5.999   1.061  -6.445  0.00  0.00    -0.126 OA
ENDBRANCH  32  35
ENDBRANCH  26  29
ENDBRANCH  24  26
ENDBRANCH   3  24
TORSDOF 7
