REMARK  Name = ZINC01314340
REMARK  17 active torsions:
REMARK  status: ('A' for Active; 'I' for Inactive)
REMARK    1  A    between atoms: C_1  and  C_2
REMARK    2  A    between atoms: C_2  and  C_3
REMARK    3  A    between atoms: C_2  and  C_4
REMARK    4  A    between atoms: C_2  and  N_5
REMARK    5  A    between atoms: N_5  and  C_6
REMARK    6  A    between atoms: N_5  and  C_16
REMARK    7  A    between atoms: C_6  and  C_7
REMARK    8  A    between atoms: C_10  and  N_13
REMARK    9  A    between atoms: C_16  and  C_17
REMARK   10  A    between atoms: C_17  and  C_19
REMARK   11  A    between atoms: C_17  and  O_36
REMARK   12  A    between atoms: C_19  and  O_20
REMARK   13  A    between atoms: O_20  and  C_21
REMARK   14  A    between atoms: C_27  and  C_31
REMARK   15  A    between atoms: C_31  and  C_32
REMARK   16  A    between atoms: C_32  and  O_34
REMARK   17  A    between atoms: O_34  and  C_35
REMARK                            x       y       z     vdW  Elec       q    Type
REMARK                         _______ _______ _______ _____ _____    ______ ____
ROOT
ATOM      1  C   UNL     1      -1.251  -2.479  -2.051  0.00  0.00    +0.135 C 
ENDROOT
BRANCH   1   2
ATOM      2  O   UNL     1      -0.611  -3.743  -1.864  0.00  0.00    -0.390 OA
ATOM      3  H   UNL     1       0.001  -3.983  -2.573  0.00  0.00    +0.210 HD
ENDBRANCH   1   2
BRANCH   1   4
ATOM      4  C   UNL     1      -0.192  -1.377  -2.126  0.00  0.00    -0.043 C 
BRANCH   4   5
ATOM      5  N   UNL     1       0.246  -1.027  -0.768  0.00  0.00    +0.387 N 
ATOM      6  H   UNL     1       0.025  -1.783  -0.138  0.00  0.00    -0.080 HD
BRANCH   5   8
ATOM      7  C   UNL     1       0.251   1.417  -0.932  0.00  0.00    -0.010 C 
ATOM      8  C   UNL     1      -0.444   0.194  -0.331  0.00  0.00    -0.074 C 
ATOM      9  C   UNL     1      -0.403   0.283   1.196  0.00  0.00    -0.010 C 
ATOM     10  C   UNL     1      -1.900   0.152  -0.800  0.00  0.00    -0.010 C 
ENDBRANCH   5   8
BRANCH   5  11
ATOM     11  C   UNL     1       1.697  -0.796  -0.766  0.00  0.00    -0.042 C 
BRANCH  11  12
ATOM     12  C   UNL     1       2.178  -0.632   0.652  0.00  0.00    -0.064 A 
ATOM     13  C   UNL     1       2.695   0.580   1.071  0.00  0.00    +0.004 A 
ATOM     14  C   UNL     1       3.136   0.731   2.373  0.00  0.00    +0.033 A 
ATOM     15  C   UNL     1       3.059  -0.330   3.256  0.00  0.00    +0.126 A 
ATOM     16  C   UNL     1       2.541  -1.542   2.837  0.00  0.00    +0.033 A 
ATOM     17  C   UNL     1       2.096  -1.691   1.537  0.00  0.00    +0.004 A 
BRANCH  15  18
ATOM     18  N   UNL     1       3.532  -0.169   4.649  0.00  0.00    +0.056 N 
ATOM     19  O   UNL     1       3.986   0.890   5.015  0.00  0.00    -0.126 OA
ATOM     20  O   UNL     1       3.465  -1.097   5.421  0.00  0.00    -0.126 OA
ENDBRANCH  15  18
ENDBRANCH  11  12
ENDBRANCH   5  11
ENDBRANCH   4   5
ENDBRANCH   1   4
BRANCH   1  21
ATOM     21  C   UNL     1      -2.055  -2.502  -3.353  0.00  0.00    +0.258 C 
BRANCH  21  22
ATOM     22  O   UNL     1      -3.118  -3.451  -3.239  0.00  0.00    -0.489 OA
BRANCH  22  23
ATOM     23  C   UNL     1      -3.933  -3.595  -4.316  0.00  0.00    +0.130 A 
ATOM     24  C   UNL     1      -3.716  -2.849  -5.459  0.00  0.00    +0.046 A 
ATOM     25  C   UNL     1      -4.547  -2.996  -6.560  0.00  0.00    +0.006 A 
ATOM     26  C   UNL     1      -5.600  -3.884  -6.534  0.00  0.00    +0.026 A 
ATOM     27  C   UNL     1      -5.839  -4.647  -5.395  0.00  0.00    +0.050 A 
ATOM     28  C   UNL     1      -4.996  -4.506  -4.278  0.00  0.00    +0.045 A 
ATOM     29  C   UNL     1      -5.503  -5.437  -3.267  0.00  0.00    -0.008 A 
ATOM     30  C   UNL     1      -6.564  -6.059  -3.803  0.00  0.00    +0.088 A 
ATOM     31  N   UNL     1      -6.786  -5.593  -5.072  0.00  0.00    -0.360 N 
ATOM     32  H   UNL     1      -7.497  -5.893  -5.660  0.00  0.00    +0.165 HD
BRANCH  29  33
ATOM     33  C   UNL     1      -4.939  -5.654  -1.887  0.00  0.00    +0.157 C 
BRANCH  33  34
ATOM     34  C   UNL     1      -5.512  -4.630  -0.942  0.00  0.00    +0.311 C 
ATOM     35  O   UNL     1      -6.298  -3.807  -1.348  0.00  0.00    -0.250 OA
BRANCH  34  36
ATOM     36  O   UNL     1      -5.150  -4.631   0.350  0.00  0.00    -0.468 OA
ATOM     37  C   UNL     1      -5.732  -3.631   1.188  0.00  0.00    +0.280 C 
ENDBRANCH  34  36
ENDBRANCH  33  34
ENDBRANCH  29  33
ENDBRANCH  22  23
ENDBRANCH  21  22
ENDBRANCH   1  21
TORSDOF 13
