REMARK  Name = ZINC62814953
REMARK  6 active torsions:
REMARK  status: ('A' for Active; 'I' for Inactive)
REMARK    1  A    between atoms: C_1  and  C_2
REMARK    2  A    between atoms: C_6  and  C_10
REMARK    3  A    between atoms: N_12  and  C_13
REMARK    4  A    between atoms: C_13  and  C_15
REMARK    5  A    between atoms: C_13  and  C_16
REMARK    6  A    between atoms: C_16  and  N_17
REMARK                            x       y       z     vdW  Elec       q    Type
REMARK                         _______ _______ _______ _____ _____    ______ ____
ROOT
ATOM      1  C   UNL     1       1.429  -3.976  -0.063  0.00  0.00    +0.228 C 
ATOM      2  O   UNL     1       0.621  -4.573  -0.743  0.00  0.00    -0.274 OA
ATOM      3  N   UNL     1       2.316  -4.661   0.685  0.00  0.00    -0.313 N 
ATOM      4  H   UNL     1       2.962  -4.184   1.229  0.00  0.00    +0.149 HD
ENDROOT
BRANCH   1   9
ATOM      5  C   UNL     1      -0.019   1.526   0.010  0.00  0.00    -0.012 C 
ATOM      6  C   UNL     1       0.002  -0.004   0.002  0.00  0.00    -0.061 C 
ATOM      7  C   UNL     1       0.718  -0.497  -1.257  0.00  0.00    +0.065 C 
ATOM      8  N   UNL     1       0.754  -1.967  -1.253  0.00  0.00    -0.309 NA
ATOM      9  C   UNL     1       1.440  -2.469  -0.054  0.00  0.00    +0.123 C 
ATOM     10  C   UNL     1       0.718  -1.959   1.195  0.00  0.00    -0.054 C 
ATOM     11  N   UNL     1       0.712  -0.491   1.192  0.00  0.00    +0.383 N 
ATOM     12  H   UNL     1      -0.177  -2.351  -1.325  0.00  0.00    +0.123 HD
ATOM     13  H   UNL     1       1.662  -0.151   1.179  0.00  0.00    -0.085 HD
ATOM     14  H   UNL     1       0.247  -0.155   2.022  0.00  0.00    -0.085 HD
ENDBRANCH   1   9
BRANCH   3  15
ATOM     15  C   UNL     1       2.305  -6.126   0.677  0.00  0.00    +0.053 C 
ATOM     16  C   UNL     1       3.131  -6.636  -0.505  0.00  0.00    +0.026 C 
BRANCH  15  17
ATOM     17  C   UNL     1       2.908  -6.648   1.983  0.00  0.00    -0.057 C 
BRANCH  17  18
ATOM     18  N   UNL     1       2.189  -6.063   3.123  0.00  0.00    +0.381 N 
ATOM     19  C   UNL     1       0.797  -6.530   3.114  0.00  0.00    -0.079 C 
ATOM     20  C   UNL     1       0.023  -5.861   4.251  0.00  0.00    -0.019 C 
ATOM     21  C   UNL     1       0.676  -6.223   5.588  0.00  0.00    -0.004 C 
ATOM     22  C   UNL     1       2.147  -5.797   5.558  0.00  0.00    -0.019 C 
ATOM     23  C   UNL     1       2.843  -6.469   4.372  0.00  0.00    -0.079 C 
ATOM     24  H   UNL     1       2.204  -5.057   3.048  0.00  0.00    -0.082 HD
ENDBRANCH  17  18
ENDBRANCH  15  17
ENDBRANCH   3  15
TORSDOF 4
