REMARK  Name = ZINC59832260
REMARK  12 active torsions:
REMARK  status: ('A' for Active; 'I' for Inactive)
REMARK    1  A    between atoms: C_1  and  O_2
REMARK    2  A    between atoms: O_2  and  C_3
REMARK    3  A    between atoms: C_3  and  C_5
REMARK    4  A    between atoms: C_9  and  N_10
REMARK    5  A    between atoms: C_11  and  C_13
REMARK    6  A    between atoms: C_13  and  C_14
REMARK    7  A    between atoms: C_14  and  S_15
REMARK    8  A    between atoms: S_15  and  C_16
REMARK    9  A    between atoms: N_21  and  N_22
REMARK   10  A    between atoms: C_23  and  C_24
REMARK   11  A    between atoms: N_27  and  C_29
REMARK   12  A    between atoms: C_29  and  C_30
REMARK                            x       y       z     vdW  Elec       q    Type
REMARK                         _______ _______ _______ _____ _____    ______ ____
ROOT
ATOM      1  C   UNL     1       5.882  -3.734   1.697  0.00  0.00    +0.086 C 
ENDROOT
BRANCH   1   2
ATOM      2  C   UNL     1       4.978  -2.575   1.272  0.00  0.00    +0.107 C 
BRANCH   2   4
ATOM      3  N   UNL     1       2.829  -2.275   0.084  0.00  0.00    -0.279 N 
ATOM      4  C   UNL     1       3.770  -3.118   0.552  0.00  0.00    +0.218 C 
ATOM      5  O   UNL     1       3.645  -4.314   0.395  0.00  0.00    -0.275 OA
ATOM      6  H   UNL     1       2.929  -1.318   0.210  0.00  0.00    +0.155 HD
BRANCH   3  11
ATOM      7  C   UNL     1       0.659  -2.064  -1.123  0.00  0.00    +0.091 A 
ATOM      8  C   UNL     1      -0.388  -2.831  -1.776  0.00  0.00    -0.021 A 
ATOM      9  C   UNL     1      -0.188  -4.166  -1.759  0.00  0.00    -0.004 A 
ATOM     10  S   UNL     1       1.345  -4.379  -0.902  0.00  0.00    -0.077 S 
ATOM     11  C   UNL     1       1.718  -2.775  -0.578  0.00  0.00    +0.086 A 
ATOM     12  C   UNL     1      -1.080  -5.217  -2.343  0.00  0.00    +0.043 C 
ATOM     13  C   UNL     1      -2.447  -4.580  -2.636  0.00  0.00    +0.005 C 
ATOM     14  C   UNL     1      -2.230  -3.260  -3.380  0.00  0.00    +0.005 C 
ATOM     15  C   UNL     1      -1.619  -2.224  -2.434  0.00  0.00    +0.037 C 
BRANCH   7  16
ATOM     16  C   UNL     1       0.601  -0.603  -1.048  0.00  0.00    +0.342 C 
ATOM     17  O   UNL     1       1.094   0.071  -1.932  0.00  0.00    -0.245 OA
BRANCH  16  19
ATOM     18  C   UNL     1      -0.017   1.425   0.010  0.00  0.00    +0.280 C 
ATOM     19  O   UNL     1       0.002  -0.004   0.002  0.00  0.00    -0.464 OA
ENDBRANCH  16  19
ENDBRANCH   7  16
ENDBRANCH   3  11
ENDBRANCH   2   4
ENDBRANCH   1   2
BRANCH   1  20
ATOM     20  S   UNL     1       7.336  -3.080   2.563  0.00  0.00    -0.084 S 
BRANCH  20  21
ATOM     21  C   UNL     1       8.265  -4.517   2.982  0.00  0.00    +0.210 A 
ATOM     22  N   UNL     1       9.428  -4.526   3.642  0.00  0.00    -0.186 NA
ATOM     23  C   UNL     1       9.846  -5.766   3.785  0.00  0.00    +0.232 A 
ATOM     24  N   UNL     1       8.939  -6.582   3.207  0.00  0.00    -0.245 N 
ATOM     25  N   UNL     1       7.925  -5.753   2.701  0.00  0.00    -0.144 NA
ATOM     26  N   UNL     1      11.010  -6.163   4.417  0.00  0.00    -0.205 N 
ATOM     27  H   UNL     1      11.235  -7.105   4.472  0.00  0.00    +0.177 HD
ATOM     28  H   UNL     1       8.978  -7.550   3.156  0.00  0.00    +0.192 HD
BRANCH  26  29
ATOM     29  N   UNL     1      11.865  -5.205   4.976  0.00  0.00    -0.187 NA
ATOM     30  C   UNL     1      12.958  -5.577   5.569  0.00  0.00    +0.141 C 
BRANCH  30  31
ATOM     31  C   UNL     1      13.859  -4.567   6.158  0.00  0.00    +0.032 A 
ATOM     32  C   UNL     1      13.662  -3.170   6.161  0.00  0.00    +0.143 A 
ATOM     33  N   UNL     1      14.673  -2.618   6.776  0.00  0.00    -0.179 NA
ATOM     34  N   UNL     1      15.553  -3.624   7.191  0.00  0.00    -0.267 N 
ATOM     35  C   UNL     1      15.045  -4.815   6.814  0.00  0.00    +0.118 A 
BRANCH  34  36
ATOM     36  C   UNL     1      16.809  -3.418   7.916  0.00  0.00    +0.170 C 
BRANCH  36  37
ATOM     37  C   UNL     1      17.683  -2.461   7.146  0.00  0.00    -0.012 C 
ATOM     38  C   UNL     1      18.140  -1.380   7.728  0.00  0.00    +0.006 C 
ENDBRANCH  36  37
ENDBRANCH  34  36
ENDBRANCH  30  31
ENDBRANCH  26  29
ENDBRANCH  20  21
ENDBRANCH   1  20
TORSDOF 11
