REMARK  Name = ZINC36530483
REMARK  15 active torsions:
REMARK  status: ('A' for Active; 'I' for Inactive)
REMARK    1  A    between atoms: C_1  and  C_2
REMARK    2  A    between atoms: C_2  and  C_3
REMARK    3  A    between atoms: C_2  and  C_4
REMARK    4  A    between atoms: C_2  and  C_5
REMARK    5  A    between atoms: C_5  and  C_6
REMARK    6  A    between atoms: C_6  and  C_7
REMARK    7  A    between atoms: C_6  and  C_8
REMARK    8  A    between atoms: C_6  and  N_9
REMARK    9  A    between atoms: C_10  and  C_12
REMARK   10  A    between atoms: C_12  and  C_14
REMARK   11  A    between atoms: C_12  and  N_24
REMARK   12  A    between atoms: C_16  and  N_21
REMARK   13  A    between atoms: N_24  and  C_25
REMARK   14  A    between atoms: C_26  and  C_28
REMARK   15  A    between atoms: C_29  and  C_30
REMARK                            x       y       z     vdW  Elec       q    Type
REMARK                         _______ _______ _______ _____ _____    ______ ____
ROOT
ATOM      1  C   UNL     1       5.392  -0.477  -4.285  0.00  0.00    +0.194 C 
ENDROOT
BRANCH   1   2
ATOM      2  C   UNL     1       5.299  -1.963  -4.521  0.00  0.00    +0.002 A 
ATOM      3  C   UNL     1       4.787  -2.789  -3.538  0.00  0.00    +0.040 A 
ATOM      4  C   UNL     1       4.702  -4.151  -3.755  0.00  0.00    +0.127 A 
ATOM      5  C   UNL     1       5.130  -4.689  -4.955  0.00  0.00    +0.034 A 
ATOM      6  C   UNL     1       5.642  -3.864  -5.938  0.00  0.00    +0.022 A 
ATOM      7  C   UNL     1       5.722  -2.499  -5.724  0.00  0.00    +0.047 A 
ATOM      8 CL   UNL     1       6.358  -1.462  -6.962  0.00  0.00    -0.083 Cl
BRANCH   4   9
ATOM      9  N   UNL     1       4.154  -5.035  -2.702  0.00  0.00    +0.056 N 
ATOM     10  O   UNL     1       3.780  -4.565  -1.653  0.00  0.00    -0.126 OA
ATOM     11  O   UNL     1       4.079  -6.227  -2.891  0.00  0.00    -0.126 OA
ENDBRANCH   4   9
ENDBRANCH   1   2
BRANCH   1  13
ATOM     12  N   UNL     1       3.197  -0.342  -3.152  0.00  0.00    -0.308 N 
ATOM     13  C   UNL     1       4.523  -0.100  -3.113  0.00  0.00    +0.239 C 
ATOM     14  O   UNL     1       5.016   0.420  -2.135  0.00  0.00    -0.273 OA
ATOM     15  H   UNL     1       2.803  -0.758  -3.934  0.00  0.00    +0.149 HD
BRANCH  12  16
ATOM     16  C   UNL     1       2.352   0.025  -2.012  0.00  0.00    +0.030 C 
ATOM     17  C   UNL     1       2.567   1.501  -1.672  0.00  0.00    +0.031 C 
ATOM     18  C   UNL     1       2.724  -0.837  -0.804  0.00  0.00    +0.031 C 
BRANCH  16  19
ATOM     19  C   UNL     1       0.883  -0.206  -2.372  0.00  0.00    +0.031 C 
BRANCH  19  21
ATOM     20  C   UNL     1       1.067  -0.725  -4.809  0.00  0.00    +0.010 C 
ATOM     21  C   UNL     1       0.615   0.317  -3.784  0.00  0.00    -0.036 C 
ATOM     22  C   UNL     1       1.392   1.617  -4.002  0.00  0.00    +0.010 C 
ATOM     23  C   UNL     1      -0.882   0.584  -3.953  0.00  0.00    +0.010 C 
ENDBRANCH  19  21
ENDBRANCH  16  19
ENDBRANCH  12  16
ENDBRANCH   1  13
BRANCH   1  24
ATOM     24  N   UNL     1       6.782  -0.115  -3.998  0.00  0.00    -0.278 N 
ATOM     25  C   UNL     1       7.512  -0.797  -2.927  0.00  0.00    +0.134 C 
ATOM     26  C   UNL     1       7.390   0.848  -4.720  0.00  0.00    +0.292 C 
ATOM     27  O   UNL     1       6.784   1.415  -5.610  0.00  0.00    -0.260 OA
BRANCH  26  28
ATOM     28  C   UNL     1       8.748   1.203  -4.440  0.00  0.00    -0.003 C 
ATOM     29  C   UNL     1       9.862   1.494  -4.211  0.00  0.00    -0.057 C 
BRANCH  29  30
ATOM     30  C   UNL     1      11.221   1.849  -3.931  0.00  0.00    +0.025 A 
ATOM     31  C   UNL     1      11.923   1.195  -2.913  0.00  0.00    +0.017 A 
ATOM     32  C   UNL     1      13.231   1.542  -2.650  0.00  0.00    +0.001 A 
ATOM     33  C   UNL     1      13.850   2.535  -3.390  0.00  0.00    +0.000 A 
ATOM     34  C   UNL     1      13.162   3.186  -4.398  0.00  0.00    +0.001 A 
ATOM     35  C   UNL     1      11.855   2.846  -4.678  0.00  0.00    +0.017 A 
ENDBRANCH  29  30
ENDBRANCH  26  28
ENDBRANCH   1  24
TORSDOF 9
