REMARK  Name = ZINC19553658
REMARK  11 active torsions:
REMARK  status: ('A' for Active; 'I' for Inactive)
REMARK    1  A    between atoms: C_1  and  O_2
REMARK    2  A    between atoms: O_2  and  C_3
REMARK    3  A    between atoms: C_6  and  C_9
REMARK    4  A    between atoms: C_9  and  O_32
REMARK    5  A    between atoms: N_18  and  C_19
REMARK    6  A    between atoms: C_19  and  C_20
REMARK    7  A    between atoms: C_22  and  C_29
REMARK    8  A    between atoms: C_23  and  O_28
REMARK    9  A    between atoms: C_24  and  O_26
REMARK   10  A    between atoms: O_26  and  C_27
REMARK   11  A    between atoms: C_29  and  C_30
REMARK                            x       y       z     vdW  Elec       q    Type
REMARK                         _______ _______ _______ _____ _____    ______ ____
ROOT
ATOM      1  C   UNL     1      -3.459   2.441   3.758  0.00  0.00    +0.088 C 
ATOM      2  C   UNL     1      -2.392   1.397   3.417  0.00  0.00    +0.024 C 
ATOM      3  C   UNL     1      -2.297   1.264   1.888  0.00  0.00    -0.065 C 
ATOM      4  C   UNL     1      -3.735   1.128   1.335  0.00  0.00    -0.017 C 
ATOM      5  C   UNL     1      -4.204   2.578   1.094  0.00  0.00    -0.017 C 
ATOM      6  C   UNL     1      -3.007   3.458   1.523  0.00  0.00    -0.065 C 
ATOM      7  C   UNL     1      -3.153   3.751   3.025  0.00  0.00    +0.024 C 
ATOM      8  N   UNL     1      -1.824   2.571   1.360  0.00  0.00    +0.386 N 
ATOM      9  H   UNL     1      -0.925   2.946   1.871  0.00  0.00    -0.081 HD
ENDROOT
BRANCH   1  13
ATOM     10  C   UNL     1      -7.297   1.000   2.553  0.00  0.00    +0.120 A 
ATOM     11  C   UNL     1      -6.309   0.106   2.939  0.00  0.00    +0.046 A 
ATOM     12  C   UNL     1      -5.069   0.575   3.328  0.00  0.00    +0.010 A 
ATOM     13  C   UNL     1      -4.812   1.933   3.333  0.00  0.00    -0.016 A 
ATOM     14  C   UNL     1      -5.797   2.826   2.954  0.00  0.00    +0.010 A 
ATOM     15  C   UNL     1      -7.037   2.363   2.558  0.00  0.00    +0.046 A 
BRANCH  10  17
ATOM     16  C   UNL     1      -9.486   1.520   1.784  0.00  0.00    +0.277 C 
ATOM     17  O   UNL     1      -8.517   0.542   2.169  0.00  0.00    -0.495 OA
ENDBRANCH  10  17
ENDBRANCH   1  13
BRANCH   1  18
ATOM     18  O   UNL     1      -3.460   2.676   5.167  0.00  0.00    -0.384 OA
ATOM     19  H   UNL     1      -2.553   3.052   5.663  0.00  0.00    +0.211 HD
ENDBRANCH   1  18
BRANCH   8  20
ATOM     20  C   UNL     1      -1.440   2.460  -0.053  0.00  0.00    -0.042 C 
BRANCH  20  21
ATOM     21  C   UNL     1      -0.108   1.763  -0.159  0.00  0.00    -0.060 A 
ATOM     22  C   UNL     1      -0.057   0.386  -0.276  0.00  0.00    +0.009 A 
ATOM     23  C   UNL     1       1.162  -0.257  -0.379  0.00  0.00    +0.002 A 
ATOM     24  C   UNL     1       2.337   0.478  -0.365  0.00  0.00    +0.162 A 
ATOM     25  C   UNL     1       2.285   1.864  -0.247  0.00  0.00    +0.162 A 
ATOM     26  C   UNL     1       1.060   2.502  -0.144  0.00  0.00    +0.051 A 
BRANCH  25  27
ATOM     27  O   UNL     1       3.435   2.589  -0.233  0.00  0.00    -0.491 OA
ATOM     28  C   UNL     1       3.306   4.007  -0.108  0.00  0.00    +0.277 C 
ENDBRANCH  25  27
BRANCH  24  29
ATOM     29  O   UNL     1       3.537  -0.153  -0.466  0.00  0.00    -0.503 OA
ATOM     30  H   UNL     1       4.468   0.431  -0.455  0.00  0.00    +0.292 HD
ENDBRANCH  24  29
BRANCH  23  31
ATOM     31  C   UNL     1       1.214  -1.758  -0.507  0.00  0.00    +0.065 C 
BRANCH  31  32
ATOM     32  C   UNL     1       1.421  -2.131  -1.953  0.00  0.00    -0.030 C 
ATOM     33  C   UNL     1       2.424  -2.903  -2.292  0.00  0.00    +0.004 C 
ENDBRANCH  31  32
ENDBRANCH  23  31
ENDBRANCH  20  21
ENDBRANCH   8  20
TORSDOF 9
