REMARK  Name = ZINC63187774
REMARK  6 active torsions:
REMARK  status: ('A' for Active; 'I' for Inactive)
REMARK    1  A    between atoms: C_7  and  C_10
REMARK    2  A    between atoms: C_10  and  C_11
REMARK    3  A    between atoms: N_15  and  C_19
REMARK    4  A    between atoms: C_19  and  C_20
REMARK    5  A    between atoms: N_22  and  C_23
REMARK    6  A    between atoms: N_22  and  C_31
REMARK                            x       y       z     vdW  Elec       q    Type
REMARK                         _______ _______ _______ _____ _____    ______ ____
ROOT
ATOM      1  C   UNL     1       0.103  -3.193  -2.494  0.00  0.00    +0.165 C 
ATOM      2  C   UNL     1      -0.687  -4.481  -2.370  0.00  0.00    +0.244 C 
ATOM      3  O   UNL     1      -0.289  -5.546  -1.950  0.00  0.00    -0.273 OA
ATOM      4  N   UNL     1      -1.923  -4.195  -2.824  0.00  0.00    -0.216 N 
ATOM      5  C   UNL     1      -2.023  -2.918  -3.212  0.00  0.00    +0.310 C 
ATOM      6  O   UNL     1      -3.041  -2.426  -3.658  0.00  0.00    -0.252 OA
ATOM      7  N   UNL     1      -0.868  -2.240  -3.057  0.00  0.00    -0.287 N 
ATOM      8  H   UNL     1      -0.708  -1.307  -3.271  0.00  0.00    +0.151 HD
ENDROOT
BRANCH   1   9
ATOM      9  C   UNL     1       0.584  -2.723  -1.119  0.00  0.00    +0.065 C 
BRANCH   9  16
ATOM     10  C   UNL     1      -0.408   1.749  -0.844  0.00  0.00    +0.001 A 
ATOM     11  C   UNL     1       0.696   2.584  -1.065  0.00  0.00    +0.002 A 
ATOM     12  C   UNL     1       1.930   2.106  -1.333  0.00  0.00    +0.026 A 
ATOM     13  C   UNL     1       2.158   0.704  -1.402  0.00  0.00    +0.043 A 
ATOM     14  N   UNL     1       3.242   0.007  -1.642  0.00  0.00    -0.380 N 
ATOM     15  C   UNL     1       2.903  -1.419  -1.591  0.00  0.00    +0.144 C 
ATOM     16  C   UNL     1       1.424  -1.482  -1.278  0.00  0.00    -0.039 C 
ATOM     17  C   UNL     1       1.009  -0.200  -1.171  0.00  0.00    -0.001 A 
ATOM     18  C   UNL     1      -0.300   0.401  -0.886  0.00  0.00    +0.010 A 
ATOM     19  H   UNL     1       4.122   0.374  -1.824  0.00  0.00    +0.160 HD
ENDBRANCH   9  16
ENDBRANCH   1   9
BRANCH   4  20
ATOM     20  C   UNL     1      -3.022  -5.162  -2.885  0.00  0.00    +0.213 C 
BRANCH  20  21
ATOM     21  C   UNL     1      -3.795  -5.126  -1.592  0.00  0.00    +0.234 C 
ATOM     22  O   UNL     1      -3.473  -4.354  -0.714  0.00  0.00    -0.274 OA
ATOM     23  N   UNL     1      -4.845  -5.951  -1.411  0.00  0.00    -0.292 N 
BRANCH  23  24
ATOM     24  C   UNL     1      -5.664  -5.841  -0.201  0.00  0.00    +0.099 C 
ATOM     25  C   UNL     1      -6.260  -4.427  -0.105  0.00  0.00    +0.046 C 
ATOM     26  C   UNL     1      -6.853  -4.199   1.307  0.00  0.00    +0.168 C 
ATOM     27  S   UNL     1      -5.828  -5.307   2.358  0.00  0.00    -0.029 S 
ATOM     28  O   UNL     1      -5.006  -4.513   3.203  0.00  0.00    -0.174 OA
ATOM     29  O   UNL     1      -6.664  -6.303   2.932  0.00  0.00    -0.174 OA
ATOM     30  C   UNL     1      -4.779  -6.080   1.055  0.00  0.00    +0.188 C 
ENDBRANCH  23  24
BRANCH  23  31
ATOM     31  C   UNL     1      -5.168  -6.959  -2.425  0.00  0.00    +0.077 C 
ATOM     32  C   UNL     1      -6.539  -7.632  -2.340  0.00  0.00    +0.024 C 
ATOM     33  C   UNL     1      -5.278  -8.414  -1.964  0.00  0.00    +0.024 C 
ENDBRANCH  23  31
ENDBRANCH  20  21
ENDBRANCH   4  20
TORSDOF 6
