REMARK  Name = ZINC36610216
REMARK  11 active torsions:
REMARK  status: ('A' for Active; 'I' for Inactive)
REMARK    1  A    between atoms: C_1  and  C_2
REMARK    2  A    between atoms: C_2  and  C_3
REMARK    3  A    between atoms: C_3  and  C_4
REMARK    4  A    between atoms: C_4  and  N_5
REMARK    5  A    between atoms: C_6  and  C_8
REMARK    6  A    between atoms: C_8  and  C_10
REMARK    7  A    between atoms: C_8  and  N_17
REMARK    8  A    between atoms: N_17  and  C_18
REMARK    9  A    between atoms: C_24  and  C_26
REMARK   10  A    between atoms: C_27  and  O_33
REMARK   11  A    between atoms: C_31  and  O_32
REMARK                            x       y       z     vdW  Elec       q    Type
REMARK                         _______ _______ _______ _____ _____    ______ ____
ROOT
ATOM      1  N   UNL     1       2.832  -5.895   3.941  0.00  0.00    -0.251 N 
ATOM      2  C   UNL     1       3.809  -6.145   3.047  0.00  0.00    +0.259 C 
ATOM      3  O   UNL     1       4.031  -5.354   2.151  0.00  0.00    -0.269 OA
ENDROOT
BRANCH   1   4
ATOM      4  C   UNL     1       2.504  -6.852   4.906  0.00  0.00    +0.038 A 
ATOM      5  C   UNL     1       1.909  -8.048   4.526  0.00  0.00    +0.023 A 
ATOM      6  C   UNL     1       1.587  -8.992   5.481  0.00  0.00    +0.002 A 
ATOM      7  C   UNL     1       1.856  -8.747   6.815  0.00  0.00    +0.000 A 
ATOM      8  C   UNL     1       2.448  -7.557   7.197  0.00  0.00    +0.002 A 
ATOM      9  C   UNL     1       2.778  -6.612   6.246  0.00  0.00    +0.023 A 
ENDBRANCH   1   4
BRANCH   2  10
ATOM     10  C   UNL     1       4.607  -7.378   3.155  0.00  0.00    +0.120 A 
ATOM     11  C   UNL     1       4.274  -8.504   2.389  0.00  0.00    +0.133 A 
ATOM     12  C   UNL     1       5.032  -9.659   2.499  0.00  0.00    +0.046 A 
ATOM     13  C   UNL     1       6.113  -9.702   3.359  0.00  0.00    +0.007 A 
ATOM     14  C   UNL     1       6.450  -8.598   4.119  0.00  0.00    +0.046 A 
ATOM     15  C   UNL     1       5.709  -7.431   4.021  0.00  0.00    +0.133 A 
BRANCH  15  16
ATOM     16  O   UNL     1       6.045  -6.347   4.763  0.00  0.00    -0.506 OA
ATOM     17  H   UNL     1       5.617  -6.316   5.630  0.00  0.00    +0.292 HD
ENDBRANCH  15  16
BRANCH  11  18
ATOM     18  O   UNL     1       3.213  -8.464   1.545  0.00  0.00    -0.506 OA
ATOM     19  H   UNL     1       3.432  -8.168   0.651  0.00  0.00    +0.292 HD
ENDBRANCH  11  18
ENDBRANCH   2  10
BRANCH   1  20
ATOM     20  C   UNL     1       2.113  -4.619   3.901  0.00  0.00    +0.197 C 
BRANCH  20  21
ATOM     21  C   UNL     1       1.195  -4.522   5.093  0.00  0.00    -0.018 A 
ATOM     22  C   UNL     1       0.238  -5.496   5.309  0.00  0.00    +0.007 A 
ATOM     23  C   UNL     1      -0.604  -5.408   6.401  0.00  0.00    +0.020 A 
ATOM     24  C   UNL     1      -0.488  -4.345   7.279  0.00  0.00    +0.041 A 
ATOM     25  C   UNL     1       0.470  -3.371   7.063  0.00  0.00    +0.020 A 
ATOM     26  C   UNL     1       1.315  -3.463   5.973  0.00  0.00    +0.007 A 
ATOM     27 CL   UNL     1      -1.546  -4.234   8.652  0.00  0.00    -0.084 Cl
ENDBRANCH  20  21
BRANCH  20  29
ATOM     28  N   UNL     1       0.552  -3.446   2.382  0.00  0.00    -0.313 N 
ATOM     29  C   UNL     1       1.301  -4.538   2.635  0.00  0.00    +0.238 C 
ATOM     30  O   UNL     1       1.321  -5.457   1.842  0.00  0.00    -0.273 OA
ATOM     31  H   UNL     1       0.536  -2.712   3.015  0.00  0.00    +0.149 HD
BRANCH  28  32
ATOM     32  C   UNL     1      -0.237  -3.368   1.150  0.00  0.00    +0.104 C 
BRANCH  32  33
ATOM     33  C   UNL     1      -0.988  -2.036   1.109  0.00  0.00    +0.018 C 
BRANCH  33  35
ATOM     34  C   UNL     1      -2.563  -0.622  -0.219  0.00  0.00    +0.004 C 
ATOM     35  C   UNL     1      -1.812  -1.954  -0.178  0.00  0.00    -0.002 C 
ENDBRANCH  33  35
ENDBRANCH  32  33
ENDBRANCH  28  32
ENDBRANCH  20  29
ENDBRANCH   1  20
TORSDOF 10
