REMARK  Name = ZINC54423911
REMARK  7 active torsions:
REMARK  status: ('A' for Active; 'I' for Inactive)
REMARK    1  A    between atoms: C_1  and  C_2
REMARK    2  A    between atoms: C_9  and  N_13
REMARK    3  A    between atoms: C_10  and  C_11
REMARK    4  A    between atoms: C_14  and  C_16
REMARK    5  A    between atoms: C_16  and  C_17
REMARK    6  A    between atoms: C_17  and  N_18
REMARK    7  A    between atoms: C_21  and  C_24
REMARK                            x       y       z     vdW  Elec       q    Type
REMARK                         _______ _______ _______ _____ _____    ______ ____
ROOT
ATOM      1  N   UNL     1       1.941  -5.828   1.697  0.00  0.00    -0.279 N 
ATOM      2  C   UNL     1       2.252  -6.088   2.983  0.00  0.00    +0.216 C 
ATOM      3  O   UNL     1       2.232  -5.196   3.804  0.00  0.00    -0.276 OA
ATOM      4  H   UNL     1       1.957  -6.541   1.040  0.00  0.00    +0.155 HD
ENDROOT
BRANCH   1  12
ATOM      5  C   UNL     1      -0.019   1.526   0.010  0.00  0.00    +0.008 C 
ATOM      6  C   UNL     1       0.002  -0.004   0.002  0.00  0.00    -0.009 C 
ATOM      7  C   UNL     1       0.724  -0.500  -1.254  0.00  0.00    +0.008 C 
ATOM      8  C   UNL     1       0.537  -2.012  -1.399  0.00  0.00    +0.037 C 
ATOM      9  C   UNL     1       0.935  -2.680  -0.092  0.00  0.00    -0.018 A 
ATOM     10  C   UNL     1       1.019  -1.977   1.059  0.00  0.00    -0.004 A 
ATOM     11  S   UNL     1       1.508  -3.165   2.275  0.00  0.00    -0.077 S 
ATOM     12  C   UNL     1       1.599  -4.539   1.313  0.00  0.00    +0.090 A 
ATOM     13  C   UNL     1       1.254  -4.090   0.049  0.00  0.00    +0.084 A 
ATOM     14  C   UNL     1       0.750  -0.515   1.242  0.00  0.00    +0.046 C 
BRANCH  13  15
ATOM     15  C   UNL     1       1.212  -4.980  -1.072  0.00  0.00    +0.102 C 
ATOM     16  N   UNL     1       1.180  -5.685  -1.962  0.00  0.00    -0.191 NA
ENDBRANCH  13  15
ENDBRANCH   1  12
BRANCH   2  17
ATOM     17  C   UNL     1       2.624  -7.488   3.399  0.00  0.00    +0.077 C 
BRANCH  17  18
ATOM     18  C   UNL     1       2.928  -7.510   4.899  0.00  0.00    -0.070 C 
BRANCH  18  19
ATOM     19  N   UNL     1       3.290  -8.874   5.305  0.00  0.00    +0.380 N 
ATOM     20  C   UNL     1       4.540  -9.264   4.641  0.00  0.00    -0.078 C 
ATOM     21  C   UNL     1       4.880 -10.713   4.997  0.00  0.00    -0.006 C 
ATOM     22  C   UNL     1       5.046 -10.835   6.515  0.00  0.00    +0.071 C 
ATOM     23  C   UNL     1       3.763 -10.355   7.199  0.00  0.00    -0.006 C 
ATOM     24  C   UNL     1       3.465  -8.919   6.762  0.00  0.00    -0.078 C 
ATOM     25  H   UNL     1       2.555  -9.511   5.035  0.00  0.00    -0.082 HD
BRANCH  22  26
ATOM     26  C   UNL     1       5.304 -12.274   6.880  0.00  0.00    +0.213 C 
ATOM     27  O   UNL     1       5.350 -13.121   6.013  0.00  0.00    -0.276 OA
ATOM     28  N   UNL     1       5.483 -12.620   8.170  0.00  0.00    -0.329 N 
ATOM     29  H   UNL     1       5.446 -11.943   8.864  0.00  0.00    +0.145 HD
ATOM     30  H   UNL     1       5.649 -13.547   8.405  0.00  0.00    +0.145 HD
ENDBRANCH  22  26
ENDBRANCH  18  19
ENDBRANCH  17  18
ENDBRANCH   2  17
TORSDOF 6
