REMARK  Name = ZINC58369296
REMARK  8 active torsions:
REMARK  status: ('A' for Active; 'I' for Inactive)
REMARK    1  A    between atoms: C_1  and  C_2
REMARK    2  A    between atoms: C_2  and  C_3
REMARK    3  A    between atoms: C_3  and  C_5
REMARK    4  A    between atoms: C_3  and  C_6
REMARK    5  A    between atoms: C_17  and  C_19
REMARK    6  A    between atoms: N_21  and  C_22
REMARK    7  A    between atoms: C_22  and  C_23
REMARK    8  A    between atoms: C_28  and  N_29
REMARK                            x       y       z     vdW  Elec       q    Type
REMARK                         _______ _______ _______ _____ _____    ______ ____
ROOT
ATOM      1  C   UNL     1      -2.718  -5.210  -2.221  0.00  0.00    +0.219 C 
ATOM      2  O   UNL     1      -2.844  -5.797  -1.167  0.00  0.00    -0.275 OA
ATOM      3  N   UNL     1      -1.670  -4.384  -2.410  0.00  0.00    -0.285 N 
ATOM      4  C   UNL     1      -1.420  -3.755  -3.711  0.00  0.00    +0.144 C 
ATOM      5  C   UNL     1       0.048  -3.848  -4.046  0.00  0.00    -0.027 A 
ATOM      6  C   UNL     1       0.438  -3.527  -5.340  0.00  0.00    +0.005 A 
ATOM      7  C   UNL     1       1.768  -3.583  -5.704  0.00  0.00    +0.000 A 
ATOM      8  C   UNL     1       2.718  -3.960  -4.773  0.00  0.00    +0.000 A 
ATOM      9  C   UNL     1       2.331  -4.282  -3.489  0.00  0.00    +0.004 A 
ATOM     10  C   UNL     1       0.992  -4.233  -3.121  0.00  0.00    -0.040 A 
ATOM     11  C   UNL     1       0.640  -4.625  -1.710  0.00  0.00    +0.067 C 
ATOM     12  C   UNL     1      -0.734  -4.072  -1.317  0.00  0.00    +0.166 C 
ENDROOT
BRANCH  12  13
ATOM     13  C   UNL     1      -1.204  -4.723  -0.042  0.00  0.00    +0.234 C 
ATOM     14  O   UNL     1      -1.694  -4.048   0.839  0.00  0.00    -0.274 OA
ATOM     15  N   UNL     1      -1.080  -6.055   0.120  0.00  0.00    -0.310 N 
ATOM     16  H   UNL     1      -0.688  -6.595  -0.584  0.00  0.00    +0.149 HD
BRANCH  15  17
ATOM     17  C   UNL     1      -1.536  -6.688   1.360  0.00  0.00    +0.143 C 
BRANCH  17  18
ATOM     18  C   UNL     1      -1.286  -8.172   1.288  0.00  0.00    +0.014 A 
ATOM     19  C   UNL     1      -2.313  -9.043   0.966  0.00  0.00    +0.010 A 
ATOM     20  C   UNL     1      -2.037 -10.401   0.911  0.00  0.00    +0.020 A 
ATOM     21  C   UNL     1      -0.755 -10.842   1.177  0.00  0.00    +0.113 A 
ATOM     22  N   UNL     1       0.203  -9.989   1.482  0.00  0.00    -0.236 NA
ATOM     23  C   UNL     1      -0.019  -8.685   1.538  0.00  0.00    +0.159 A 
BRANCH  23  24
ATOM     24  N   UNL     1       1.029  -7.817   1.858  0.00  0.00    -0.222 N 
ATOM     25  C   UNL     1       2.145  -8.136   2.563  0.00  0.00    +0.116 A 
ATOM     26  C   UNL     1       2.905  -7.020   2.652  0.00  0.00    +0.041 A 
ATOM     27  C   UNL     1       2.237  -5.988   1.984  0.00  0.00    +0.135 A 
ATOM     28  N   UNL     1       1.118  -6.464   1.504  0.00  0.00    -0.173 NA
ENDBRANCH  23  24
ENDBRANCH  17  18
ENDBRANCH  15  17
ENDBRANCH  12  13
BRANCH   1  29
ATOM     29  C   UNL     1      -3.732  -5.405  -3.318  0.00  0.00    +0.072 C 
ATOM     30  C   UNL     1      -4.809  -6.385  -2.850  0.00  0.00    +0.017 C 
BRANCH  29  32
ATOM     31  C   UNL     1      -5.315  -4.235  -4.857  0.00  0.00    +0.004 C 
ATOM     32  C   UNL     1      -4.378  -4.061  -3.660  0.00  0.00    +0.009 C 
ENDBRANCH  29  32
ENDBRANCH   1  29
TORSDOF 6
