REMARK  Name = ZINC35556208
REMARK  8 active torsions:
REMARK  status: ('A' for Active; 'I' for Inactive)
REMARK    1  A    between atoms: C_1  and  C_2
REMARK    2  A    between atoms: C_2  and  C_3
REMARK    3  A    between atoms: C_12  and  C_13
REMARK    4  A    between atoms: C_13  and  C_15
REMARK    5  A    between atoms: C_13  and  C_27
REMARK    6  A    between atoms: C_15  and  C_16
REMARK    7  A    between atoms: C_24  and  C_26
REMARK    8  A    between atoms: C_31  and  N_33
REMARK                            x       y       z     vdW  Elec       q    Type
REMARK                         _______ _______ _______ _____ _____    ______ ____
ROOT
ATOM      1  C   UNL     1      -5.204  -1.183  -4.004  0.00  0.00    +0.060 C 
ENDROOT
BRANCH   1  11
ATOM      2  C   UNL     1      -1.559   0.276  -0.882  0.00  0.00    -0.024 A 
ATOM      3  C   UNL     1      -2.259   0.155   0.299  0.00  0.00    +0.005 A 
ATOM      4  C   UNL     1      -3.579  -0.272   0.299  0.00  0.00    +0.001 A 
ATOM      5  C   UNL     1      -4.209  -0.581  -0.875  0.00  0.00    +0.010 A 
ATOM      6  C   UNL     1      -3.519  -0.466  -2.083  0.00  0.00    +0.004 A 
ATOM      7  C   UNL     1      -2.182  -0.028  -2.088  0.00  0.00    +0.050 A 
ATOM      8  N   UNL     1      -1.767  -0.005  -3.401  0.00  0.00    -0.360 N 
ATOM      9  H   UNL     1      -0.883   0.255  -3.702  0.00  0.00    +0.165 HD
ATOM     10  C   UNL     1      -2.789  -0.406  -4.218  0.00  0.00    +0.088 A 
ATOM     11  C   UNL     1      -3.872  -0.705  -3.484  0.00  0.00    -0.015 A 
BRANCH   2  13
ATOM     12  C   UNL     1      -0.078   2.253  -1.103  0.00  0.00    +0.009 C 
ATOM     13  C   UNL     1      -0.126   0.742  -0.867  0.00  0.00    +0.034 C 
ENDBRANCH   2  13
ENDBRANCH   1  11
BRANCH   1  14
ATOM     14  C   UNL     1      -5.774  -0.153  -4.945  0.00  0.00    -0.037 A 
ATOM     15  C   UNL     1      -5.080   0.197  -6.089  0.00  0.00    +0.004 A 
ATOM     16  C   UNL     1      -5.603   1.141  -6.952  0.00  0.00    +0.003 A 
ATOM     17  C   UNL     1      -6.820   1.734  -6.673  0.00  0.00    +0.033 A 
ATOM     18  C   UNL     1      -7.514   1.384  -5.530  0.00  0.00    +0.126 A 
ATOM     19  C   UNL     1      -6.993   0.436  -4.668  0.00  0.00    +0.037 A 
BRANCH  18  20
ATOM     20  N   UNL     1      -8.817   2.019  -5.230  0.00  0.00    +0.056 N 
ATOM     21  O   UNL     1      -9.274   2.846  -5.985  0.00  0.00    -0.126 OA
ATOM     22  O   UNL     1      -9.424   1.713  -4.231  0.00  0.00    -0.126 OA
ENDBRANCH  18  20
ENDBRANCH   1  14
BRANCH   1  23
ATOM     23  C   UNL     1      -5.015  -2.506  -4.748  0.00  0.00    +0.109 C 
BRANCH  23  24
ATOM     24  C   UNL     1      -6.361  -3.046  -5.161  0.00  0.00    +0.217 C 
ATOM     25  O   UNL     1      -7.370  -2.432  -4.887  0.00  0.00    -0.276 OA
ATOM     26  N   UNL     1      -6.441  -4.210  -5.835  0.00  0.00    -0.298 N 
ATOM     27  C   UNL     1      -5.227  -4.967  -6.168  0.00  0.00    +0.126 C 
ATOM     28  C   UNL     1      -5.370  -6.391  -5.616  0.00  0.00    +0.126 C 
ATOM     29  N   UNL     1      -6.674  -6.926  -6.031  0.00  0.00    -0.299 N 
ATOM     30  C   UNL     1      -7.889  -6.169  -5.697  0.00  0.00    +0.126 C 
ATOM     31  C   UNL     1      -7.746  -4.748  -6.245  0.00  0.00    +0.126 C 
ATOM     32  C   UNL     1      -6.755  -8.091  -6.705  0.00  0.00    +0.213 C 
ATOM     33  O   UNL     1      -5.743  -8.659  -7.057  0.00  0.00    -0.276 OA
ATOM     34  C   UNL     1      -8.103  -8.686  -7.021  0.00  0.00    +0.109 C 
ENDBRANCH  23  24
ENDBRANCH   1  23
TORSDOF 6
