REMARK  Name = ZINC04847622
REMARK  6 active torsions:
REMARK  status: ('A' for Active; 'I' for Inactive)
REMARK    1  A    between atoms: C_1  and  C_2
REMARK    2  A    between atoms: C_5  and  C_8
REMARK    3  A    between atoms: C_8  and  C_10
REMARK    4  A    between atoms: C_14  and  N_15
REMARK    5  A    between atoms: C_16  and  C_18
REMARK    6  A    between atoms: C_18  and  N_59
REMARK                            x       y       z     vdW  Elec       q    Type
REMARK                         _______ _______ _______ _____ _____    ______ ____
ROOT
ATOM      1  C   UNL     1      -1.249   4.016  -2.277  0.00  0.00    +0.054 A 
ATOM      2  C   UNL     1      -1.005   3.073  -1.199  0.00  0.00    -0.024 A 
ATOM      3  C   UNL     1      -0.905   3.619   0.032  0.00  0.00    -0.005 A 
ATOM      4  S   UNL     1      -1.128   5.357  -0.223  0.00  0.00    -0.077 S 
ATOM      5  C   UNL     1      -1.353   5.362  -1.941  0.00  0.00    +0.083 A 
ATOM      6  C   UNL     1      -0.659   2.899   1.322  0.00  0.00    +0.043 C 
ATOM      7  C   UNL     1      -0.911   1.401   1.094  0.00  0.00    +0.005 C 
ATOM      8  C   UNL     1      -0.178   0.966  -0.178  0.00  0.00    +0.005 C 
ATOM      9  C   UNL     1      -0.866   1.569  -1.404  0.00  0.00    +0.037 C 
ENDROOT
BRANCH   5  10
ATOM     10  N   UNL     1      -1.580   6.443  -2.776  0.00  0.00    -0.281 N 
ATOM     11  C   UNL     1      -1.541   7.696  -2.282  0.00  0.00    +0.201 C 
ATOM     12  O   UNL     1      -1.308   7.877  -1.106  0.00  0.00    -0.278 OA
ATOM     13  H   UNL     1      -1.767   6.298  -3.717  0.00  0.00    +0.155 HD
BRANCH  11  14
ATOM     14  C   UNL     1      -1.788   8.873  -3.191  0.00  0.00    +0.019 C 
BRANCH  14  21
ATOM     15  C   UNL     1      -2.711  10.156  -1.345  0.00  0.00    -0.078 C 
ATOM     16  C   UNL     1      -2.833  11.512  -0.705  0.00  0.00    -0.019 C 
ATOM     17  C   UNL     1      -3.958  12.292  -1.418  0.00  0.00    -0.002 C 
ATOM     18  C   UNL     1      -3.519  12.845  -2.695  0.00  0.00    -0.002 C 
ATOM     19  C   UNL     1      -3.076  11.748  -3.685  0.00  0.00    -0.019 C 
ATOM     20  C   UNL     1      -1.690  11.298  -3.310  0.00  0.00    -0.078 C 
ATOM     21  N   UNL     1      -1.641  10.104  -2.399  0.00  0.00    +0.385 N 
ATOM     22  H   UNL     1      -0.727  10.091  -1.932  0.00  0.00    -0.081 HD
ENDBRANCH  14  21
ENDBRANCH  11  14
ENDBRANCH   5  10
BRANCH   1  23
ATOM     23  C   UNL     1      -1.380   3.567  -3.665  0.00  0.00    +0.196 C 
ATOM     24  O   UNL     1      -0.412   3.578  -4.403  0.00  0.00    -0.287 OA
BRANCH  23  29
ATOM     25  C   UNL     1      -6.475   1.752  -5.633  0.00  0.00    +0.044 C 
ATOM     26  C   UNL     1      -5.141   2.227  -5.117  0.00  0.00    -0.050 A 
ATOM     27  C   UNL     1      -4.020   2.137  -5.923  0.00  0.00    +0.004 A 
ATOM     28  C   UNL     1      -2.796   2.570  -5.457  0.00  0.00    +0.012 A 
ATOM     29  C   UNL     1      -2.690   3.101  -4.171  0.00  0.00    +0.022 A 
ATOM     30  C   UNL     1      -3.824   3.184  -3.361  0.00  0.00    +0.012 A 
ATOM     31  C   UNL     1      -5.043   2.752  -3.841  0.00  0.00    +0.004 A 
ENDBRANCH  23  29
ENDBRANCH   1  23
TORSDOF 5
