REMARK  Name = ZINC32316540
REMARK  11 active torsions:
REMARK  status: ('A' for Active; 'I' for Inactive)
REMARK    1  A    between atoms: C_1  and  C_2
REMARK    2  A    between atoms: C_2  and  N_3
REMARK    3  A    between atoms: N_3  and  C_4
REMARK    4  A    between atoms: N_3  and  C_6
REMARK    5  A    between atoms: C_4  and  C_5
REMARK    6  A    between atoms: C_6  and  C_8
REMARK    7  A    between atoms: C_6  and  C_28
REMARK    8  A    between atoms: C_8  and  N_9
REMARK    9  A    between atoms: C_10  and  C_12
REMARK   10  A    between atoms: C_18  and  C_20
REMARK   11  A    between atoms: C_21  and  C_22
REMARK                            x       y       z     vdW  Elec       q    Type
REMARK                         _______ _______ _______ _____ _____    ______ ____
ROOT
ATOM      1  N   UNL     1       7.609   4.588   0.945  0.00  0.00    -0.316 N 
ATOM      2  C   UNL     1       7.598   3.318   0.493  0.00  0.00    +0.216 C 
ATOM      3  O   UNL     1       8.118   2.438   1.145  0.00  0.00    -0.276 OA
ATOM      4  H   UNL     1       7.137   5.387   0.354  0.00  0.00    +0.149 HD
ENDROOT
BRANCH   2   5
ATOM      5  C   UNL     1       6.938   2.993  -0.822  0.00  0.00    +0.078 C 
ATOM      6  C   UNL     1       7.065   1.493  -1.098  0.00  0.00    +0.032 C 
ATOM      7  C   UNL     1       6.424   1.171  -2.452  0.00  0.00    +0.109 C 
ATOM      8  N   UNL     1       5.042   1.669  -2.451  0.00  0.00    -0.298 N 
ATOM      9  C   UNL     1       4.799   3.078  -2.114  0.00  0.00    +0.109 C 
ATOM     10  C   UNL     1       5.458   3.378  -0.759  0.00  0.00    +0.032 C 
ATOM     11  C   UNL     1       4.016   0.850  -2.758  0.00  0.00    +0.239 C 
ATOM     12  O   UNL     1       4.221  -0.333  -2.958  0.00  0.00    -0.271 OA
BRANCH  11  13
ATOM     13  C   UNL     1       2.656   1.383  -2.851  0.00  0.00    +0.068 C 
ATOM     14  C   UNL     1       1.646   0.587  -3.253  0.00  0.00    +0.013 C 
BRANCH  14  15
ATOM     15  C   UNL     1       0.279   1.125  -3.353  0.00  0.00    -0.025 A 
ATOM     16  C   UNL     1       0.022   2.458  -3.019  0.00  0.00    +0.008 A 
ATOM     17  C   UNL     1      -1.259   2.956  -3.120  0.00  0.00    +0.001 A 
ATOM     18  C   UNL     1      -2.293   2.136  -3.539  0.00  0.00    +0.000 A 
ATOM     19  C   UNL     1      -2.048   0.814  -3.866  0.00  0.00    +0.001 A 
ATOM     20  C   UNL     1      -0.771   0.303  -3.775  0.00  0.00    +0.008 A 
ENDBRANCH  14  15
ENDBRANCH  11  13
ENDBRANCH   2   5
BRANCH   1  21
ATOM     21  C   UNL     1       8.251   4.905   2.223  0.00  0.00    +0.093 C 
BRANCH  21  22
ATOM     22  C   UNL     1       8.027   6.382   2.554  0.00  0.00    -0.019 C 
BRANCH  22  23
ATOM     23  C   UNL     1       8.645   6.697   3.892  0.00  0.00    -0.041 A 
ATOM     24  C   UNL     1       9.834   7.400   3.955  0.00  0.00    +0.003 A 
ATOM     25  C   UNL     1      10.399   7.693   5.182  0.00  0.00    +0.000 A 
ATOM     26  C   UNL     1       9.781   7.274   6.346  0.00  0.00    +0.001 A 
ATOM     27  C   UNL     1       8.596   6.565   6.284  0.00  0.00    +0.020 A 
ATOM     28  C   UNL     1       8.027   6.277   5.056  0.00  0.00    +0.043 A 
ATOM     29 CL   UNL     1       6.539   5.386   4.976  0.00  0.00    -0.083 Cl
ENDBRANCH  22  23
BRANCH  22  30
ATOM     30  N   UNL     1       8.650   7.216   1.518  0.00  0.00    +0.385 N 
ATOM     31  H   UNL     1       9.139   8.066   2.017  0.00  0.00    -0.081 HD
BRANCH  30  33
ATOM     32  C   UNL     1      10.913   6.295   1.680  0.00  0.00    -0.017 C 
ATOM     33  C   UNL     1       9.681   6.466   0.789  0.00  0.00    -0.081 C 
ENDBRANCH  30  33
BRANCH  30  34
ATOM     34  C   UNL     1       7.640   7.754   0.597  0.00  0.00    -0.081 C 
ATOM     35  C   UNL     1       6.847   8.859   1.298  0.00  0.00    -0.017 C 
ENDBRANCH  30  34
ENDBRANCH  22  30
ENDBRANCH  21  22
ENDBRANCH   1  21
TORSDOF 9
