REMARK  Name = ZINC28970267
REMARK  4 active torsions:
REMARK  status: ('A' for Active; 'I' for Inactive)
REMARK    1  A    between atoms: C_1  and  N_2
REMARK    2  A    between atoms: N_2  and  C_3
REMARK    3  A    between atoms: C_3  and  C_4
REMARK    4  A    between atoms: C_15  and  C_17
REMARK                            x       y       z     vdW  Elec       q    Type
REMARK                         _______ _______ _______ _____ _____    ______ ____
ROOT
ATOM      1  C   UNL     1       0.121  -0.739   1.262  0.00  0.00    +0.182 C 
ENDROOT
BRANCH   1   2
ATOM      2  C   UNL     1      -1.245  -1.039   1.822  0.00  0.00    +0.128 A 
ATOM      3  N   UNL     1      -1.327  -1.716   2.998  0.00  0.00    -0.309 N 
ATOM      4  H   UNL     1      -0.521  -1.995   3.460  0.00  0.00    +0.170 HD
ATOM      5  C   UNL     1      -2.546  -1.996   3.520  0.00  0.00    +0.266 A 
ATOM      6  O   UNL     1      -2.653  -2.601   4.573  0.00  0.00    -0.267 OA
ATOM      7  C   UNL     1      -3.675  -1.572   2.818  0.00  0.00    +0.102 A 
ATOM      8  C   UNL     1      -3.562  -0.874   1.603  0.00  0.00    +0.085 A 
ATOM      9  N   UNL     1      -2.283  -0.635   1.163  0.00  0.00    -0.232 NA
ATOM     10  C   UNL     1      -4.775  -0.507   1.003  0.00  0.00    +0.036 A 
ATOM     11  C   UNL     1      -5.948  -0.827   1.591  0.00  0.00    +0.048 A 
ATOM     12  S   UNL     1      -5.426  -1.687   3.067  0.00  0.00    -0.090 S 
ENDBRANCH   1   2
BRANCH   1  14
ATOM     13  C   UNL     1      -0.067   1.461   0.012  0.00  0.00    +0.133 C 
ATOM     14  N   UNL     1      -0.018  -0.003   0.003  0.00  0.00    -0.291 N 
ATOM     15  C   UNL     1      -0.102  -0.673  -1.163  0.00  0.00    +0.282 C 
ATOM     16  O   UNL     1      -0.158  -1.889  -1.164  0.00  0.00    -0.267 OA
BRANCH  15  17
ATOM     17  C   UNL     1      -0.124   0.062  -2.431  0.00  0.00    +0.191 A 
ATOM     18  C   UNL     1      -0.326  -0.478  -3.669  0.00  0.00    +0.056 A 
ATOM     19  C   UNL     1      -0.266   0.581  -4.587  0.00  0.00    +0.058 A 
ATOM     20  C   UNL     1      -0.034   1.710  -3.878  0.00  0.00    +0.171 A 
ATOM     21  O   UNL     1       0.046   1.393  -2.579  0.00  0.00    -0.444 OA
ATOM     22 BR   UNL     1       0.142   3.448  -4.601  0.00  0.00    -0.008 Br
ENDBRANCH  15  17
ENDBRANCH   1  14
TORSDOF 3
