REMARK  Name = ZINC63637697
REMARK  4 active torsions:
REMARK  status: ('A' for Active; 'I' for Inactive)
REMARK    1  A    between atoms: C_1  and  C_2
REMARK    2  A    between atoms: C_2  and  C_30
REMARK    3  A    between atoms: C_6  and  C_18
REMARK    4  A    between atoms: C_23  and  C_24
REMARK                            x       y       z     vdW  Elec       q    Type
REMARK                         _______ _______ _______ _____ _____    ______ ____
ROOT
ATOM      1  C   UNL     1      -0.401   0.686   0.354  0.00  0.00    +0.011 C 
ATOM      2  C   UNL     1      -0.167  -0.808   0.121  0.00  0.00    -0.023 C 
ATOM      3  C   UNL     1       0.635  -1.010  -1.165  0.00  0.00    +0.058 C 
ATOM      4  C   UNL     1       1.979  -0.333  -1.038  0.00  0.00    +0.016 C 
ATOM      5  C   UNL     1       2.596  -0.235   0.155  0.00  0.00    +0.021 C 
ATOM      6  C   UNL     1       3.952   0.413   0.309  0.00  0.00    +0.073 C 
ATOM      7  C   UNL     1       4.224   1.362  -0.860  0.00  0.00    +0.148 C 
ATOM      8  C   UNL     1       3.825   0.646  -2.128  0.00  0.00    +0.106 C 
ATOM      9  N   UNL     1       4.651   0.458  -3.109  0.00  0.00    -0.151 NA
ATOM     10  C   UNL     1       5.929   0.863  -3.064  0.00  0.00    +0.331 C 
ATOM     11  O   UNL     1       6.644   0.678  -4.030  0.00  0.00    -0.250 OA
ATOM     12  N   UNL     1       6.437   1.468  -1.978  0.00  0.00    -0.238 N 
ATOM     13  C   UNL     1       5.678   1.731  -0.896  0.00  0.00    +0.231 C 
ATOM     14  O   UNL     1       6.176   2.273   0.067  0.00  0.00    -0.275 OA
ATOM     15  N   UNL     1       2.537   0.186  -2.185  0.00  0.00    -0.307 N 
ATOM     16  C   UNL     1       1.990  -0.740   1.324  0.00  0.00    +0.162 C 
ATOM     17  O   UNL     1       2.575  -0.645   2.385  0.00  0.00    -0.292 OA
ATOM     18  C   UNL     1       0.637  -1.393   1.288  0.00  0.00    +0.086 C 
ATOM     19  C   UNL     1      -1.512  -1.529   0.010  0.00  0.00    +0.011 C 
ATOM     20  H   UNL     1       7.372   1.724  -1.973  0.00  0.00    +0.159 HD
ATOM     21  H   UNL     1       2.031   0.224  -3.012  0.00  0.00    +0.153 HD
ENDROOT
BRANCH   6  22
ATOM     22  C   UNL     1       5.015  -0.655   0.338  0.00  0.00    -0.025 A 
ATOM     23  C   UNL     1       4.956  -1.712  -0.546  0.00  0.00    +0.005 A 
ATOM     24  C   UNL     1       5.931  -2.694  -0.522  0.00  0.00    +0.000 A 
ATOM     25  C   UNL     1       6.972  -2.622   0.388  0.00  0.00    +0.001 A 
ATOM     26  C   UNL     1       7.043  -1.571   1.278  0.00  0.00    +0.015 A 
ATOM     27  C   UNL     1       6.066  -0.573   1.255  0.00  0.00    +0.067 A 
BRANCH  27  28
ATOM     28  C   UNL     1       6.139   0.558   2.199  0.00  0.00    +0.387 C 
ATOM     29  O   UNL     1       6.994   0.571   3.073  0.00  0.00    -0.241 OA
ATOM     30  O   UNL     1       5.345   1.484   2.107  0.00  0.00    -0.241 OA
ENDBRANCH  27  28
ENDBRANCH   6  22
TORSDOF 2
