REMARK  Name = ZINC05605112
REMARK  5 active torsions:
REMARK  status: ('A' for Active; 'I' for Inactive)
REMARK    1  A    between atoms: C_6  and  O_25
REMARK    2  A    between atoms: C_7  and  C_11
REMARK    3  A    between atoms: N_13  and  N_14
REMARK    4  A    between atoms: C_15  and  C_16
REMARK    5  A    between atoms: C_21  and  O_22
REMARK                            x       y       z     vdW  Elec       q    Type
REMARK                         _______ _______ _______ _____ _____    ______ ____
ROOT
ATOM      1  C   UNL     1       3.439   6.306   0.003  0.00  0.00    +0.267 C 
ATOM      2  O   UNL     1       4.498   5.707  -0.010  0.00  0.00    -0.268 OA
ATOM      3  N   UNL     1       2.278   5.622   0.011  0.00  0.00    -0.203 N 
ATOM      4  H   UNL     1       1.434   6.100   0.021  0.00  0.00    +0.178 HD
ENDROOT
BRANCH   1  11
ATOM      5  C   UNL     1       1.030  11.942   0.055  0.00  0.00    +0.001 A 
ATOM      6  C   UNL     1       2.239  12.636   0.048  0.00  0.00    +0.001 A 
ATOM      7  C   UNL     1       3.428  11.973   0.033  0.00  0.00    +0.008 A 
ATOM      8  C   UNL     1       3.442  10.568   0.026  0.00  0.00    -0.014 A 
ATOM      9  C   UNL     1       4.654   9.857   0.011  0.00  0.00    +0.054 A 
ATOM     10  C   UNL     1       4.645   8.494   0.003  0.00  0.00    +0.130 A 
ATOM     11  C   UNL     1       3.426   7.782   0.011  0.00  0.00    +0.080 A 
ATOM     12  C   UNL     1       2.218   8.459   0.021  0.00  0.00    +0.025 A 
ATOM     13  C   UNL     1       2.212   9.861   0.034  0.00  0.00    -0.017 A 
ATOM     14  C   UNL     1       1.004  10.582   0.049  0.00  0.00    +0.008 A 
BRANCH  10  15
ATOM     15  O   UNL     1       5.820   7.814  -0.012  0.00  0.00    -0.506 OA
ATOM     16  H   UNL     1       6.151   7.622  -0.900  0.00  0.00    +0.292 HD
ENDBRANCH  10  15
ENDBRANCH   1  11
BRANCH   3  17
ATOM     17  N   UNL     1       2.290   4.221   0.003  0.00  0.00    -0.187 NA
ATOM     18  C   UNL     1       1.172   3.562   0.010  0.00  0.00    +0.142 C 
BRANCH  18  19
ATOM     19  C   UNL     1       1.185   2.089   0.002  0.00  0.00    +0.039 A 
ATOM     20  C   UNL     1      -0.017   1.376   0.010  0.00  0.00    +0.033 A 
ATOM     21  C   UNL     1       0.002  -0.004   0.002  0.00  0.00    +0.043 A 
ATOM     22  C   UNL     1       1.208  -0.686  -0.013  0.00  0.00    +0.043 A 
ATOM     23  C   UNL     1       2.404   0.009  -0.021  0.00  0.00    +0.084 A 
ATOM     24  C   UNL     1       2.402   1.395  -0.013  0.00  0.00    +0.144 A 
ATOM     25 CL   UNL     1       3.909  -0.856  -0.040  0.00  0.00    -0.080 Cl
ATOM     26 CL   UNL     1      -1.491  -0.889   0.012  0.00  0.00    -0.083 Cl
BRANCH  24  27
ATOM     27  O   UNL     1       3.576   2.079  -0.020  0.00  0.00    -0.505 OA
ATOM     28  H   UNL     1       3.908   2.281  -0.905  0.00  0.00    +0.292 HD
ENDBRANCH  24  27
ENDBRANCH  18  19
ENDBRANCH   3  17
TORSDOF 5
