REMARK  Name = ZINC39661754
REMARK  8 active torsions:
REMARK  status: ('A' for Active; 'I' for Inactive)
REMARK    1  A    between atoms: C_3  and  O_37
REMARK    2  A    between atoms: C_4  and  O_36
REMARK    3  A    between atoms: C_6  and  C_7
REMARK    4  A    between atoms: C_7  and  C_8
REMARK    5  A    between atoms: C_8  and  N_9
REMARK    6  A    between atoms: C_10  and  C_12
REMARK    7  A    between atoms: C_23  and  C_25
REMARK    8  A    between atoms: C_27  and  C_32
REMARK                            x       y       z     vdW  Elec       q    Type
REMARK                         _______ _______ _______ _____ _____    ______ ____
ROOT
ATOM      1  C   UNL     1      -4.302  -3.205  -2.721  0.00  0.00    +0.100 C 
ATOM      2  C   UNL     1      -4.393  -4.586  -2.033  0.00  0.00    +0.121 C 
ATOM      3  N   UNL     1      -5.341  -5.359  -2.870  0.00  0.00    -0.296 N 
ATOM      4  C   UNL     1      -5.003  -4.975  -4.261  0.00  0.00    +0.115 C 
ATOM      5  C   UNL     1      -4.702  -3.465  -4.183  0.00  0.00    -0.004 C 
ATOM      6  C   UNL     1      -3.551  -3.108  -5.117  0.00  0.00    -0.010 C 
ATOM      7  C   UNL     1      -3.992  -3.318  -6.568  0.00  0.00    -0.082 C 
ATOM      8  N   UNL     1      -5.160  -2.476  -6.854  0.00  0.00    +0.379 N 
ATOM      9  C   UNL     1      -6.292  -2.889  -6.015  0.00  0.00    -0.082 C 
ATOM     10  C   UNL     1      -5.948  -2.660  -4.541  0.00  0.00    -0.010 C 
ATOM     11  C   UNL     1      -6.295  -6.218  -2.459  0.00  0.00    +0.247 C 
ATOM     12  O   UNL     1      -6.539  -6.333  -1.273  0.00  0.00    -0.270 OA
ATOM     13  H   UNL     1      -4.933  -1.512  -6.660  0.00  0.00    -0.086 HD
ATOM     14  H   UNL     1      -5.411  -2.571  -7.826  0.00  0.00    -0.086 HD
ENDROOT
BRANCH  11  15
ATOM     15  C   UNL     1      -7.045  -7.019  -3.449  0.00  0.00    +0.040 A 
ATOM     16  C   UNL     1      -8.288  -7.561  -3.116  0.00  0.00    +0.025 A 
ATOM     17  C   UNL     1      -8.984  -8.307  -4.044  0.00  0.00    +0.058 A 
ATOM     18  C   UNL     1      -8.454  -8.520  -5.304  0.00  0.00    +0.050 A 
ATOM     19  C   UNL     1      -7.221  -7.986  -5.642  0.00  0.00    +0.125 A 
ATOM     20  C   UNL     1      -6.517  -7.232  -4.723  0.00  0.00    +0.051 A 
ATOM     21  F   UNL     1      -6.710  -8.199  -6.874  0.00  0.00    -0.205 F 
BRANCH  17  22
ATOM     22  C   UNL     1     -10.325  -8.892  -3.684  0.00  0.00    +0.418 C 
ATOM     23  F   UNL     1     -11.335  -7.979  -4.007  0.00  0.00    -0.166 F 
ATOM     24  F   UNL     1     -10.524 -10.078  -4.399  0.00  0.00    -0.166 F 
ATOM     25  F   UNL     1     -10.363  -9.163  -2.312  0.00  0.00    -0.166 F 
ENDBRANCH  17  22
ENDBRANCH  11  15
BRANCH   1  27
ATOM     26  N   UNL     1      -2.676  -1.345  -2.607  0.00  0.00    -0.315 N 
ATOM     27  C   UNL     1      -2.894  -2.675  -2.648  0.00  0.00    +0.218 C 
ATOM     28  O   UNL     1      -1.956  -3.444  -2.627  0.00  0.00    -0.275 OA
ATOM     29  H   UNL     1      -3.426  -0.730  -2.624  0.00  0.00    +0.149 HD
BRANCH  26  30
ATOM     30  C   UNL     1      -1.307  -0.829  -2.537  0.00  0.00    +0.109 C 
BRANCH  30  31
ATOM     31  C   UNL     1      -1.339   0.700  -2.501  0.00  0.00    +0.054 C 
BRANCH  31  37
ATOM     32  C   UNL     1       0.765   1.502  -3.592  0.00  0.00    +0.007 A 
ATOM     33  C   UNL     1       2.057   1.990  -3.531  0.00  0.00    +0.049 A 
ATOM     34  C   UNL     1       2.659   2.206  -2.302  0.00  0.00    +0.158 A 
ATOM     35  C   UNL     1       1.958   1.933  -1.130  0.00  0.00    +0.158 A 
ATOM     36  C   UNL     1       0.664   1.445  -1.198  0.00  0.00    +0.052 A 
ATOM     37  C   UNL     1       0.070   1.231  -2.429  0.00  0.00    -0.042 A 
BRANCH  35  38
ATOM     38  O   UNL     1       2.545   2.143   0.079  0.00  0.00    -0.503 OA
ATOM     39  H   UNL     1       2.403   3.031   0.435  0.00  0.00    +0.292 HD
ENDBRANCH  35  38
BRANCH  34  40
ATOM     40  O   UNL     1       3.930   2.685  -2.240  0.00  0.00    -0.503 OA
ATOM     41  H   UNL     1       3.986   3.650  -2.215  0.00  0.00    +0.292 HD
ENDBRANCH  34  40
ENDBRANCH  31  37
ENDBRANCH  30  31
ENDBRANCH  26  30
ENDBRANCH   1  27
TORSDOF 8
