REMARK  Name = ZINC35004240
REMARK  9 active torsions:
REMARK  status: ('A' for Active; 'I' for Inactive)
REMARK    1  A    between atoms: C_1  and  C_2
REMARK    2  A    between atoms: C_7  and  C_12
REMARK    3  A    between atoms: C_12  and  C_13
REMARK    4  A    between atoms: C_14  and  C_26
REMARK    5  A    between atoms: N_16  and  C_21
REMARK    6  A    between atoms: C_21  and  C_22
REMARK    7  A    between atoms: C_22  and  N_23
REMARK    8  A    between atoms: N_23  and  C_24
REMARK    9  A    between atoms: N_23  and  C_25
REMARK                            x       y       z     vdW  Elec       q    Type
REMARK                         _______ _______ _______ _____ _____    ______ ____
ROOT
ATOM      1  C   UNL     1      -1.869  -6.051   3.158  0.00  0.00    +0.076 C 
ATOM      2  C   UNL     1      -0.537  -6.065   3.872  0.00  0.00    +0.146 C 
ATOM      3  N   UNL     1      -0.453  -7.361   4.555  0.00  0.00    -0.285 N 
ATOM      4  C   UNL     1      -1.582  -8.043   4.291  0.00  0.00    +0.288 C 
ATOM      5  O   UNL     1      -1.838  -9.156   4.704  0.00  0.00    -0.266 OA
ATOM      6  C   UNL     1      -2.469  -7.234   3.429  0.00  0.00    +0.249 C 
ATOM      7  O   UNL     1      -3.687  -7.616   2.979  0.00  0.00    -0.282 OA
ENDROOT
BRANCH   2   8
ATOM      8  C   UNL     1       0.586  -5.930   2.876  0.00  0.00    -0.004 A 
ATOM      9  C   UNL     1       1.166  -7.060   2.331  0.00  0.00    +0.008 A 
ATOM     10  C   UNL     1       2.196  -6.937   1.418  0.00  0.00    +0.020 A 
ATOM     11  C   UNL     1       2.647  -5.682   1.049  0.00  0.00    +0.042 A 
ATOM     12  C   UNL     1       2.067  -4.551   1.593  0.00  0.00    +0.040 A 
ATOM     13  C   UNL     1       1.032  -4.675   2.504  0.00  0.00    +0.048 A 
ATOM     14 CL   UNL     1       0.299  -3.255   3.183  0.00  0.00    -0.083 Cl
ATOM     15 CL   UNL     1       3.941  -5.527  -0.098  0.00  0.00    -0.083 Cl
ENDBRANCH   2   8
BRANCH   1  16
ATOM     16  C   UNL     1      -2.409  -4.964   2.335  0.00  0.00    +0.195 C 
ATOM     17  O   UNL     1      -2.545  -5.119   1.136  0.00  0.00    -0.287 OA
BRANCH  16  23
ATOM     18  C   UNL     1      -4.986   1.889   3.441  0.00  0.00    +0.052 C 
ATOM     19  C   UNL     1      -3.861   0.854   3.385  0.00  0.00    +0.175 C 
ATOM     20  C   UNL     1      -4.062  -0.109   2.191  0.00  0.00    +0.083 C 
ATOM     21  C   UNL     1      -3.572  -1.425   2.764  0.00  0.00    -0.002 A 
ATOM     22  C   UNL     1      -3.221  -2.612   2.173  0.00  0.00    +0.019 A 
ATOM     23  C   UNL     1      -2.788  -3.683   2.962  0.00  0.00    +0.023 A 
ATOM     24  C   UNL     1      -2.717  -3.529   4.350  0.00  0.00    +0.015 A 
ATOM     25  C   UNL     1      -3.074  -2.337   4.933  0.00  0.00    +0.046 A 
ATOM     26  C   UNL     1      -3.510  -1.268   4.147  0.00  0.00    +0.124 A 
ATOM     27  O   UNL     1      -3.920  -0.024   4.521  0.00  0.00    -0.488 OA
ENDBRANCH  16  23
ENDBRANCH   1  16
BRANCH   3  28
ATOM     28  C   UNL     1       0.664  -7.830   5.379  0.00  0.00    +0.090 C 
BRANCH  28  29
ATOM     29  C   UNL     1       0.432  -7.418   6.834  0.00  0.00    -0.060 C 
BRANCH  29  30
ATOM     30  N   UNL     1       1.552  -7.888   7.661  0.00  0.00    +0.377 N 
ATOM     31  C   UNL     1       1.390  -7.390   9.034  0.00  0.00    -0.097 C 
ATOM     32  C   UNL     1       1.570  -9.357   7.671  0.00  0.00    -0.097 C 
ATOM     33  H   UNL     1       2.420  -7.543   7.279  0.00  0.00    -0.083 HD
ENDBRANCH  29  30
ENDBRANCH  28  29
ENDBRANCH   3  28
TORSDOF 6
