REMARK  Name = ZINC13107243
REMARK  10 active torsions:
REMARK  status: ('A' for Active; 'I' for Inactive)
REMARK    1  A    between atoms: C_1  and  C_2
REMARK    2  A    between atoms: C_4  and  C_28
REMARK    3  A    between atoms: C_5  and  N_9
REMARK    4  A    between atoms: C_6  and  C_8
REMARK    5  A    between atoms: C_12  and  C_19
REMARK    6  A    between atoms: C_14  and  O_18
REMARK    7  A    between atoms: C_20  and  C_21
REMARK    8  A    between atoms: C_20  and  N_51
REMARK    9  A    between atoms: C_21  and  C_22
REMARK   10  A    between atoms: C_22  and  N_23
REMARK                            x       y       z     vdW  Elec       q    Type
REMARK                         _______ _______ _______ _____ _____    ______ ____
ROOT
ATOM      1  N   UNL     1       0.807   1.847  -1.216  0.00  0.00    -0.191 N 
ATOM      2  C   UNL     1      -0.344   1.258  -0.823  0.00  0.00    +0.245 C 
ATOM      3  O   UNL     1      -1.363   1.897  -0.674  0.00  0.00    -0.274 OA
ATOM      4  C   UNL     1      -0.306  -0.240  -0.582  0.00  0.00    +0.197 C 
ATOM      5  C   UNL     1       1.029  -0.922  -0.809  0.00  0.00    +0.198 C 
ATOM      6  N   UNL     1       2.037  -0.180  -1.191  0.00  0.00    -0.131 NA
ATOM      7  C   UNL     1       1.931   1.138  -1.384  0.00  0.00    +0.339 C 
ATOM      8  O   UNL     1       2.927   1.738  -1.740  0.00  0.00    -0.250 OA
ENDROOT
BRANCH   1  13
ATOM      9  C   UNL     1       0.882   7.440  -2.173  0.00  0.00    +0.044 C 
ATOM     10  C   UNL     1       0.861   5.955  -1.918  0.00  0.00    -0.050 A 
ATOM     11  C   UNL     1       1.145   5.467  -0.656  0.00  0.00    +0.008 A 
ATOM     12  C   UNL     1       1.128   4.106  -0.420  0.00  0.00    -0.028 A 
ATOM     13  C   UNL     1       0.825   3.228  -1.452  0.00  0.00    +0.051 A 
ATOM     14  C   UNL     1       0.546   3.720  -2.720  0.00  0.00    -0.028 A 
ATOM     15  C   UNL     1       0.560   5.083  -2.948  0.00  0.00    +0.008 A 
ATOM     16  C   UNL     1       0.223   2.770  -3.844  0.00  0.00    +0.046 C 
ATOM     17  C   UNL     1       1.437   3.575   0.956  0.00  0.00    +0.046 C 
ENDBRANCH   1  13
BRANCH   4  18
ATOM     18  C   UNL     1      -0.728  -0.497   0.842  0.00  0.00    +0.072 C 
ATOM     19  N   UNL     1      -1.791  -1.246   1.031  0.00  0.00    -0.392 N 
ATOM     20  H   UNL     1      -2.298  -1.629   0.224  0.00  0.00    +0.159 HD
BRANCH  19  21
ATOM     21  C   UNL     1      -2.265  -1.541   2.426  0.00  0.00    +0.113 C 
BRANCH  21  22
ATOM     22  C   UNL     1      -3.647  -0.913   2.613  0.00  0.00    +0.042 C 
BRANCH  22  23
ATOM     23  C   UNL     1      -4.175  -1.246   4.010  0.00  0.00    +0.124 C 
BRANCH  23  24
ATOM     24  N   UNL     1      -5.499  -0.644   4.188  0.00  0.00    -0.337 N 
ATOM     25  C   UNL     1      -5.764   0.602   4.687  0.00  0.00    +0.106 A 
ATOM     26  C   UNL     1      -7.103   0.750   4.674  0.00  0.00    +0.130 A 
ATOM     27  N   UNL     1      -7.641  -0.379   4.189  0.00  0.00    -0.244 NA
ATOM     28  C   UNL     1      -6.686  -1.219   3.896  0.00  0.00    +0.199 A 
ENDBRANCH  23  24
ENDBRANCH  22  23
ENDBRANCH  21  22
ENDBRANCH  19  21
ENDBRANCH   4  18
BRANCH   5  29
ATOM     29  O   UNL     1       1.172  -2.244  -0.624  0.00  0.00    -0.496 OA
ATOM     30  H   UNL     1       2.050  -2.617  -0.786  0.00  0.00    +0.293 HD
ENDBRANCH   5  29
TORSDOF 7
