REMARK  Name = ZINC32634361
REMARK  10 active torsions:
REMARK  status: ('A' for Active; 'I' for Inactive)
REMARK    1  A    between atoms: C_1  and  C_2
REMARK    2  A    between atoms: C_2  and  C_3
REMARK    3  A    between atoms: C_2  and  C_4
REMARK    4  A    between atoms: C_2  and  O_5
REMARK    5  A    between atoms: O_5  and  C_6
REMARK    6  A    between atoms: N_8  and  C_9
REMARK    7  A    between atoms: C_9  and  C_10
REMARK    8  A    between atoms: C_10  and  C_11
REMARK    9  A    between atoms: C_11  and  N_13
REMARK   10  A    between atoms: N_15  and  C_26
REMARK                            x       y       z     vdW  Elec       q    Type
REMARK                         _______ _______ _______ _____ _____    ______ ____
ROOT
ATOM      1  N   UNL     1       6.811  -0.879  -4.920  0.00  0.00    -0.159 NA
ATOM      2  C   UNL     1       7.960  -0.307  -5.259  0.00  0.00    +0.154 C 
ATOM      3  N   UNL     1       8.679   0.621  -4.552  0.00  0.00    -0.273 N 
ATOM      4  C   UNL     1      10.059   0.844  -4.899  0.00  0.00    +0.116 C 
ATOM      5  C   UNL     1      11.016   0.778  -3.706  0.00  0.00    +0.190 C 
ATOM      6  S   UNL     1      11.784  -0.879  -3.902  0.00  0.00    -0.028 S 
ATOM      7  O   UNL     1      11.117  -1.799  -3.050  0.00  0.00    -0.174 OA
ATOM      8  O   UNL     1      13.196  -0.745  -3.814  0.00  0.00    -0.174 OA
ATOM      9  C   UNL     1      11.328  -1.242  -5.642  0.00  0.00    +0.182 C 
ATOM     10  C   UNL     1      10.556   0.003  -6.086  0.00  0.00    +0.097 C 
ATOM     11  S   UNL     1       8.927  -0.576  -6.739  0.00  0.00    -0.086 S 
ENDROOT
BRANCH   3  12
ATOM     12  C   UNL     1       8.083   1.340  -3.510  0.00  0.00    +0.073 A 
ATOM     13  C   UNL     1       7.516   2.584  -3.758  0.00  0.00    +0.064 A 
ATOM     14  C   UNL     1       6.928   3.292  -2.727  0.00  0.00    +0.022 A 
ATOM     15  C   UNL     1       6.903   2.763  -1.449  0.00  0.00    +0.003 A 
ATOM     16  C   UNL     1       7.466   1.525  -1.199  0.00  0.00    +0.022 A 
ATOM     17  C   UNL     1       8.051   0.809  -2.227  0.00  0.00    +0.064 A 
ATOM     18 CL   UNL     1       8.750  -0.749  -1.913  0.00  0.00    -0.082 Cl
ATOM     19 CL   UNL     1       7.547   3.250  -5.361  0.00  0.00    -0.082 Cl
ENDBRANCH   3  12
BRANCH   1  20
ATOM     20  C   UNL     1       6.130  -0.432  -3.868  0.00  0.00    +0.240 C 
ATOM     21  O   UNL     1       5.836   0.745  -3.790  0.00  0.00    -0.274 OA
BRANCH  20  22
ATOM     22  C   UNL     1       5.724  -1.385  -2.773  0.00  0.00    +0.117 C 
BRANCH  22  23
ATOM     23  C   UNL     1       4.958  -0.621  -1.691  0.00  0.00    +0.117 C 
BRANCH  23  26
ATOM     24  C   UNL     1       3.873  -1.094   0.439  0.00  0.00    +0.401 C 
ATOM     25  O   UNL     1       3.579   0.082   0.517  0.00  0.00    -0.226 OA
ATOM     26  N   UNL     1       4.563  -1.547  -0.626  0.00  0.00    -0.281 N 
ATOM     27  H   UNL     1       4.798  -2.486  -0.689  0.00  0.00    +0.152 HD
BRANCH  24  28
ATOM     28  O   UNL     1       3.510  -1.945   1.417  0.00  0.00    -0.445 OA
BRANCH  28  30
ATOM     29  C   UNL     1       1.479  -0.777   2.007  0.00  0.00    +0.055 C 
ATOM     30  C   UNL     1       2.781  -1.397   2.517  0.00  0.00    +0.107 C 
ATOM     31  C   UNL     1       3.625  -0.320   3.202  0.00  0.00    +0.055 C 
ATOM     32  C   UNL     1       2.459  -2.507   3.520  0.00  0.00    +0.055 C 
ENDBRANCH  28  30
ENDBRANCH  24  28
ENDBRANCH  23  26
ENDBRANCH  22  23
ENDBRANCH  20  22
ENDBRANCH   1  20
TORSDOF 7
