REMARK  Name = ZINC38591516
REMARK  12 active torsions:
REMARK  status: ('A' for Active; 'I' for Inactive)
REMARK    1  A    between atoms: C_1  and  C_2
REMARK    2  A    between atoms: C_2  and  O_3
REMARK    3  A    between atoms: O_3  and  C_4
REMARK    4  A    between atoms: C_4  and  C_6
REMARK    5  A    between atoms: C_8  and  N_18
REMARK    6  A    between atoms: C_11  and  O_16
REMARK    7  A    between atoms: O_16  and  C_17
REMARK    8  A    between atoms: C_19  and  C_21
REMARK    9  A    between atoms: C_21  and  N_22
REMARK   10  A    between atoms: N_25  and  C_28
REMARK   11  A    between atoms: C_32  and  C_35
REMARK   12  A    between atoms: C_33  and  C_34
REMARK                            x       y       z     vdW  Elec       q    Type
REMARK                         _______ _______ _______ _____ _____    ______ ____
ROOT
ATOM      1  N   UNL     1      -0.328  -0.915  -4.022  0.00  0.00    -0.285 N 
ATOM      2  C   UNL     1      -1.155  -1.153  -5.060  0.00  0.00    +0.231 C 
ATOM      3  O   UNL     1      -1.632  -2.257  -5.213  0.00  0.00    -0.274 OA
ATOM      4  H   UNL     1      -0.001  -0.017  -3.860  0.00  0.00    +0.155 HD
ENDROOT
BRANCH   1   6
ATOM      5  C   UNL     1      -0.237  -3.411  -3.389  0.00  0.00    +0.234 C 
ATOM      6  C   UNL     1       0.048  -1.938  -3.201  0.00  0.00    +0.053 C 
ATOM      7  C   UNL     1       0.769  -1.841  -2.025  0.00  0.00    +0.021 A 
ATOM      8  C   UNL     1       1.319  -0.736  -1.330  0.00  0.00    +0.057 A 
ATOM      9  C   UNL     1       1.996  -0.940  -0.169  0.00  0.00    +0.121 A 
ATOM     10  C   UNL     1       2.168  -2.226   0.362  0.00  0.00    +0.047 A 
ATOM     11  C   UNL     1       1.669  -3.326  -0.251  0.00  0.00    +0.029 A 
ATOM     12  C   UNL     1       0.949  -3.192  -1.467  0.00  0.00    +0.045 A 
ATOM     13  N   UNL     1       0.375  -4.092  -2.244  0.00  0.00    -0.367 N 
ATOM     14  H   UNL     1       0.359  -5.048  -2.083  0.00  0.00    +0.161 HD
BRANCH   5  15
ATOM     15  C   UNL     1       0.381  -3.900  -4.674  0.00  0.00    +0.336 C 
ATOM     16  O   UNL     1       1.573  -4.090  -4.737  0.00  0.00    -0.248 OA
BRANCH  15  17
ATOM     17  O   UNL     1      -0.392  -4.123  -5.748  0.00  0.00    -0.463 OA
BRANCH  17  19
ATOM     18  C   UNL     1      -0.778  -4.832  -8.026  0.00  0.00    +0.048 C 
ATOM     19  C   UNL     1       0.235  -4.722  -6.885  0.00  0.00    +0.229 C 
ENDBRANCH  17  19
ENDBRANCH  15  17
ENDBRANCH   5  15
BRANCH   9  20
ATOM     20  O   UNL     1       2.520   0.127   0.491  0.00  0.00    -0.495 OA
ATOM     21  C   UNL     1       3.223  -0.143   1.706  0.00  0.00    +0.277 C 
ENDBRANCH   9  20
ENDBRANCH   1   6
BRANCH   2  22
ATOM     22  C   UNL     1      -1.486  -0.048  -6.029  0.00  0.00    +0.180 C 
BRANCH  22  23
ATOM     23  N   UNL     1      -2.526  -0.507  -6.958  0.00  0.00    -0.291 NA
ATOM     24  C   UNL     1      -1.967  -1.417  -7.967  0.00  0.00    +0.104 C 
ATOM     25  C   UNL     1      -3.107  -2.012  -8.801  0.00  0.00    +0.120 C 
ATOM     26  N   UNL     1      -3.917  -0.909  -9.339  0.00  0.00    -0.327 N 
ATOM     27  C   UNL     1      -4.400   0.120  -8.406  0.00  0.00    +0.120 C 
ATOM     28  C   UNL     1      -3.209   0.631  -7.588  0.00  0.00    +0.104 C 
BRANCH  26  29
ATOM     29  C   UNL     1      -4.220  -0.841 -10.701  0.00  0.00    +0.033 A 
ATOM     30  C   UNL     1      -5.373  -1.444 -11.189  0.00  0.00    +0.023 A 
ATOM     31  C   UNL     1      -5.670  -1.374 -12.536  0.00  0.00    +0.002 A 
ATOM     32  C   UNL     1      -4.821  -0.706 -13.399  0.00  0.00    +0.004 A 
ATOM     33  C   UNL     1      -3.673  -0.105 -12.917  0.00  0.00    -0.046 A 
ATOM     34  C   UNL     1      -3.373  -0.166 -11.570  0.00  0.00    -0.027 A 
ATOM     35  C   UNL     1      -2.124   0.494 -11.045  0.00  0.00    +0.046 C 
ATOM     36  C   UNL     1      -2.750   0.621 -13.861  0.00  0.00    +0.044 C 
ENDBRANCH  26  29
ENDBRANCH  22  23
ENDBRANCH   2  22
TORSDOF 8
