REMARK  Name = ZINC08791572
REMARK  10 active torsions:
REMARK  status: ('A' for Active; 'I' for Inactive)
REMARK    1  A    between atoms: C_1  and  C_2
REMARK    2  A    between atoms: C_2  and  C_3
REMARK    3  A    between atoms: C_2  and  C_4
REMARK    4  A    between atoms: C_4  and  C_5
REMARK    5  A    between atoms: C_5  and  C_7
REMARK    6  A    between atoms: C_5  and  N_13
REMARK    7  A    between atoms: N_9  and  C_10
REMARK    8  A    between atoms: C_10  and  C_11
REMARK    9  A    between atoms: C_10  and  C_12
REMARK   10  A    between atoms: C_14  and  C_16
REMARK                            x       y       z     vdW  Elec       q    Type
REMARK                         _______ _______ _______ _____ _____    ______ ____
ROOT
ATOM      1  C   UNL     1       1.389  -0.160   0.692  0.00  0.00    +0.167 C 
ATOM      2  C   UNL     1       0.896   1.270   0.427  0.00  0.00    +0.069 C 
ATOM      3  C   UNL     1      -0.514   1.438   0.932  0.00  0.00    -0.015 A 
ATOM      4  C   UNL     1      -1.227   2.685   1.147  0.00  0.00    +0.003 A 
ATOM      5  C   UNL     1      -0.860   4.023   0.975  0.00  0.00    +0.010 A 
ATOM      6  C   UNL     1      -1.807   4.969   1.281  0.00  0.00    +0.001 A 
ATOM      7  C   UNL     1      -3.068   4.627   1.740  0.00  0.00    +0.002 A 
ATOM      8  C   UNL     1      -3.458   3.311   1.919  0.00  0.00    +0.026 A 
ATOM      9  C   UNL     1      -2.517   2.328   1.615  0.00  0.00    +0.047 A 
ATOM     10  N   UNL     1      -2.565   0.966   1.675  0.00  0.00    -0.356 N 
ATOM     11  H   UNL     1      -3.332   0.446   1.960  0.00  0.00    +0.166 HD
ATOM     12  C   UNL     1      -1.367   0.444   1.269  0.00  0.00    +0.046 A 
ATOM     13  C   UNL     1      -0.995  -1.017   1.194  0.00  0.00    +0.155 C 
ATOM     14  N   UNL     1       0.271  -1.074   0.428  0.00  0.00    -0.273 N 
ATOM     15  C   UNL     1       0.154  -2.004  -0.528  0.00  0.00    +0.248 C 
ATOM     16  O   UNL     1       1.066  -2.422  -1.214  0.00  0.00    -0.270 OA
ATOM     17  C   UNL     1      -1.243  -2.443  -0.621  0.00  0.00    +0.042 A 
ATOM     18  C   UNL     1      -1.975  -1.820   0.410  0.00  0.00    -0.009 A 
ATOM     19  C   UNL     1      -3.332  -2.011   0.546  0.00  0.00    +0.006 A 
ATOM     20  C   UNL     1      -3.947  -2.857  -0.372  0.00  0.00    +0.000 A 
ATOM     21  C   UNL     1      -3.236  -3.482  -1.377  0.00  0.00    +0.001 A 
ATOM     22  C   UNL     1      -1.871  -3.295  -1.532  0.00  0.00    +0.013 A 
ENDROOT
BRANCH   1  24
ATOM     23  N   UNL     1       2.847   0.458   2.592  0.00  0.00    -0.302 N 
ATOM     24  C   UNL     1       1.828  -0.292   2.128  0.00  0.00    +0.235 C 
ATOM     25  O   UNL     1       1.266  -1.074   2.865  0.00  0.00    -0.274 OA
ATOM     26  H   UNL     1       3.345   1.029   1.986  0.00  0.00    +0.150 HD
BRANCH  23  27
ATOM     27  C   UNL     1       3.203   0.412   4.013  0.00  0.00    +0.159 C 
BRANCH  27  28
ATOM     28  C   UNL     1       3.809   1.730   4.422  0.00  0.00    +0.234 C 
ATOM     29  O   UNL     1       4.158   2.525   3.576  0.00  0.00    -0.274 OA
ATOM     30  N   UNL     1       3.962   2.024   5.728  0.00  0.00    -0.311 N 
ATOM     31  H   UNL     1       3.750   1.360   6.403  0.00  0.00    +0.149 HD
BRANCH  30  32
ATOM     32  C   UNL     1       4.449   3.346   6.129  0.00  0.00    +0.067 C 
ATOM     33  C   UNL     1       3.966   3.660   7.546  0.00  0.00    +0.027 C 
ATOM     34  C   UNL     1       5.979   3.357   6.098  0.00  0.00    +0.027 C 
ENDBRANCH  30  32
ENDBRANCH  27  28
BRANCH  27  35
ATOM     35  C   UNL     1       4.215  -0.711   4.249  0.00  0.00    +0.034 C 
BRANCH  35  37
ATOM     36  C   UNL     1       3.198  -1.349   6.440  0.00  0.00    +0.007 C 
ATOM     37  C   UNL     1       4.473  -0.858   5.750  0.00  0.00    -0.015 C 
ATOM     38  C   UNL     1       5.598  -1.870   5.977  0.00  0.00    +0.007 C 
ENDBRANCH  35  37
ENDBRANCH  27  35
ENDBRANCH  23  27
ENDBRANCH   1  24
TORSDOF 6
