REMARK  Name = ZINC48666070
REMARK  5 active torsions:
REMARK  status: ('A' for Active; 'I' for Inactive)
REMARK    1  A    between atoms: C_4  and  C_18
REMARK    2  A    between atoms: C_6  and  S_7
REMARK    3  A    between atoms: S_7  and  N_10
REMARK    4  A    between atoms: N_10  and  C_11
REMARK    5  A    between atoms: C_11  and  C_12
REMARK                            x       y       z     vdW  Elec       q    Type
REMARK                         _______ _______ _______ _____ _____    ______ ____
ROOT
ATOM      1  S   UNL     1      -1.513  -0.903   0.012  0.00  0.00    +0.059 S 
ATOM      2  O   UNL     1      -1.222  -2.184   0.553  0.00  0.00    -0.153 OA
ATOM      3  O   UNL     1      -2.493  -0.043   0.576  0.00  0.00    -0.153 OA
ENDROOT
BRANCH   1   9
ATOM      4  C   UNL     1      -0.017   1.379   0.010  0.00  0.00    +0.030 A 
ATOM      5  C   UNL     1       1.168   2.094   0.002  0.00  0.00    +0.023 A 
ATOM      6  C   UNL     1       2.378   1.430  -0.013  0.00  0.00    +0.058 A 
ATOM      7  C   UNL     1       2.404   0.032  -0.021  0.00  0.00    +0.072 A 
ATOM      8  C   UNL     1       1.204  -0.681  -0.013  0.00  0.00    +0.048 A 
ATOM      9  C   UNL     1       0.002  -0.004   0.002  0.00  0.00    +0.107 A 
ATOM     10 CL   UNL     1       3.864   2.328  -0.023  0.00  0.00    -0.082 Cl
BRANCH   7  11
ATOM     11  C   UNL     1       3.655  -0.664  -0.037  0.00  0.00    +0.101 C 
ATOM     12  N   UNL     1       4.647  -1.217  -0.050  0.00  0.00    -0.191 NA
ENDBRANCH   7  11
ENDBRANCH   1   9
BRANCH   1  13
ATOM     13  N   UNL     1      -1.949  -1.145  -1.568  0.00  0.00    -0.185 NA
ATOM     14  H   UNL     1      -2.756  -0.734  -1.916  0.00  0.00    +0.148 HD
BRANCH  13  15
ATOM     15  C   UNL     1      -1.116  -1.978  -2.438  0.00  0.00    +0.148 C 
BRANCH  15  16
ATOM     16  C   UNL     1      -1.892  -2.341  -3.678  0.00  0.00    +0.007 A 
ATOM     17  C   UNL     1      -1.964  -1.685  -4.862  0.00  0.00    +0.014 A 
ATOM     18  C   UNL     1      -2.749  -2.209  -5.873  0.00  0.00    +0.028 A 
ATOM     19  C   UNL     1      -3.423  -3.364  -5.649  0.00  0.00    +0.078 A 
ATOM     20  S   UNL     1      -2.949  -3.750  -3.971  0.00  0.00    -0.080 S 
ATOM     21 CL   UNL     1      -4.471  -4.244  -6.718  0.00  0.00    -0.076 Cl
ENDBRANCH  15  16
ENDBRANCH  13  15
ENDBRANCH   1  13
TORSDOF 5
