REMARK  Name = ZINC22942816
REMARK  12 active torsions:
REMARK  status: ('A' for Active; 'I' for Inactive)
REMARK    1  A    between atoms: C_1  and  C_2
REMARK    2  A    between atoms: C_5  and  C_8
REMARK    3  A    between atoms: C_8  and  C_10
REMARK    4  A    between atoms: C_10  and  C_11
REMARK    5  A    between atoms: C_11  and  C_13
REMARK    6  A    between atoms: C_11  and  N_19
REMARK    7  A    between atoms: N_22  and  C_25
REMARK    8  A    between atoms: C_25  and  C_27
REMARK    9  A    between atoms: C_25  and  C_37
REMARK   10  A    between atoms: C_27  and  C_28
REMARK   11  A    between atoms: C_28  and  C_30
REMARK   12  A    between atoms: C_33  and  C_36
REMARK                            x       y       z     vdW  Elec       q    Type
REMARK                         _______ _______ _______ _____ _____    ______ ____
ROOT
ATOM      1  N   UNL     1       1.030   2.216   0.195  0.00  0.00    +0.386 N 
ATOM      2  C   UNL     1       1.290   2.539  -1.215  0.00  0.00    -0.062 C 
ATOM      3  C   UNL     1       2.318   3.670  -1.295  0.00  0.00    +0.066 C 
ATOM      4  N   UNL     1       3.553   3.254  -0.617  0.00  0.00    -0.299 NA
ATOM      5  C   UNL     1       3.293   2.931   0.793  0.00  0.00    +0.066 C 
ATOM      6  C   UNL     1       2.265   1.800   0.874  0.00  0.00    -0.062 C 
ATOM      7  H   UNL     1       0.660   3.126   0.689  0.00  0.00    -0.081 HD
ENDROOT
BRANCH   1   8
ATOM      8  C   UNL     1      -0.010   1.185   0.315  0.00  0.00    -0.030 C 
BRANCH   8   9
ATOM      9  C   UNL     1       0.578  -0.163  -0.016  0.00  0.00    -0.061 A 
ATOM     10  C   UNL     1       1.381  -0.811   0.904  0.00  0.00    +0.002 A 
ATOM     11  C   UNL     1       1.916  -2.049   0.602  0.00  0.00    +0.000 A 
ATOM     12  C   UNL     1       1.658  -2.634  -0.623  0.00  0.00    +0.000 A 
ATOM     13  C   UNL     1       0.859  -1.984  -1.545  0.00  0.00    +0.000 A 
ATOM     14  C   UNL     1       0.320  -0.748  -1.241  0.00  0.00    +0.002 A 
ENDBRANCH   8   9
BRANCH   8  15
ATOM     15  C   UNL     1      -0.548   1.169   1.747  0.00  0.00    +0.069 C 
BRANCH  15  16
ATOM     16  C   UNL     1      -1.151   2.511   2.073  0.00  0.00    +0.162 C 
ATOM     17  O   UNL     1      -1.240   3.360   1.212  0.00  0.00    -0.292 OA
BRANCH  16  22
ATOM     18  C   UNL     1      -3.029   3.605   7.395  0.00  0.00    +0.044 C 
ATOM     19  C   UNL     1      -2.537   3.318   6.000  0.00  0.00    -0.050 A 
ATOM     20  C   UNL     1      -2.641   4.290   5.020  0.00  0.00    +0.004 A 
ATOM     21  C   UNL     1      -2.193   4.035   3.741  0.00  0.00    +0.011 A 
ATOM     22  C   UNL     1      -1.632   2.791   3.435  0.00  0.00    +0.017 A 
ATOM     23  C   UNL     1      -1.537   1.812   4.429  0.00  0.00    +0.011 A 
ATOM     24  C   UNL     1      -1.984   2.084   5.705  0.00  0.00    +0.004 A 
ENDBRANCH  16  22
ENDBRANCH  15  16
ENDBRANCH   8  15
ENDBRANCH   1   8
BRANCH   4  25
ATOM     25  C   UNL     1       4.593   4.285  -0.737  0.00  0.00    +0.094 C 
BRANCH  25  26
ATOM     26  C   UNL     1       5.880   3.772  -0.145  0.00  0.00    -0.030 A 
ATOM     27  C   UNL     1       6.259   2.458  -0.347  0.00  0.00    +0.005 A 
ATOM     28  C   UNL     1       7.442   1.988   0.192  0.00  0.00    +0.000 A 
ATOM     29  C   UNL     1       8.242   2.830   0.942  0.00  0.00    +0.000 A 
ATOM     30  C   UNL     1       7.861   4.143   1.148  0.00  0.00    +0.000 A 
ATOM     31  C   UNL     1       6.680   4.614   0.605  0.00  0.00    +0.005 A 
ENDBRANCH  25  26
BRANCH  25  32
ATOM     32  C   UNL     1       4.809   4.620  -2.214  0.00  0.00    +0.103 C 
BRANCH  32  33
ATOM     33  C   UNL     1       5.752   5.790  -2.330  0.00  0.00    +0.165 C 
ATOM     34  O   UNL     1       6.122   6.373  -1.333  0.00  0.00    -0.292 OA
BRANCH  33  35
ATOM     35  C   UNL     1       6.224   6.226  -3.655  0.00  0.00    +0.017 A 
ATOM     36  C   UNL     1       5.805   5.553  -4.807  0.00  0.00    +0.011 A 
ATOM     37  C   UNL     1       6.248   5.971  -6.044  0.00  0.00    +0.004 A 
ATOM     38  C   UNL     1       7.114   7.045  -6.147  0.00  0.00    -0.050 A 
ATOM     39  C   UNL     1       7.538   7.713  -5.011  0.00  0.00    +0.004 A 
ATOM     40  C   UNL     1       7.100   7.311  -3.767  0.00  0.00    +0.011 A 
ATOM     41  C   UNL     1       7.597   7.492  -7.503  0.00  0.00    +0.044 C 
ENDBRANCH  33  35
ENDBRANCH  32  33
ENDBRANCH  25  32
ENDBRANCH   4  25
TORSDOF 10
