REMARK  Name = ZINC66079740
REMARK  6 active torsions:
REMARK  status: ('A' for Active; 'I' for Inactive)
REMARK    1  A    between atoms: C_1  and  C_2
REMARK    2  A    between atoms: C_7  and  C_30
REMARK    3  A    between atoms: N_12  and  C_16
REMARK    4  A    between atoms: C_16  and  N_17
REMARK    5  A    between atoms: C_20  and  N_23
REMARK    6  A    between atoms: C_24  and  C_26
REMARK                            x       y       z     vdW  Elec       q    Type
REMARK                         _______ _______ _______ _____ _____    ______ ____
ROOT
ATOM      1  C   UNL     1       3.436   1.482   2.825  0.00  0.00    +0.043 C 
ENDROOT
BRANCH   1  11
ATOM      2  C   UNL     1      -0.019   1.526   0.010  0.00  0.00    +0.010 C 
ATOM      3  C   UNL     1       0.002  -0.004   0.002  0.00  0.00    +0.019 C 
ATOM      4  C   UNL     1      -1.434  -0.534   0.012  0.00  0.00    +0.006 C 
ATOM      5  C   UNL     1      -1.412  -2.064   0.024  0.00  0.00    +0.001 C 
ATOM      6  C   UNL     1      -0.687  -2.556   1.279  0.00  0.00    +0.006 C 
ATOM      7  C   UNL     1       0.752  -2.033   1.273  0.00  0.00    +0.019 C 
ATOM      8  C   UNL     1       0.740  -0.509   1.237  0.00  0.00    +0.118 C 
ATOM      9  C   UNL     1       2.151   0.030   1.266  0.00  0.00    +0.245 C 
ATOM     10  O   UNL     1       3.026  -0.158   0.448  0.00  0.00    -0.273 OA
ATOM     11  N   UNL     1       2.233   0.767   2.394  0.00  0.00    -0.241 N 
ATOM     12  C   UNL     1       1.077   0.763   3.069  0.00  0.00    +0.308 C 
ATOM     13  O   UNL     1       0.904   1.356   4.116  0.00  0.00    -0.252 OA
ATOM     14  N   UNL     1       0.127   0.030   2.458  0.00  0.00    -0.284 N 
ATOM     15  C   UNL     1       1.483  -2.567   0.040  0.00  0.00    +0.010 C 
ATOM     16  H   UNL     1      -0.782  -0.114   2.764  0.00  0.00    +0.151 HD
ENDBRANCH   1  11
BRANCH   1  17
ATOM     17  N   UNL     1       3.425   2.841   2.268  0.00  0.00    +0.391 N 
ATOM     18  C   UNL     1       2.296   3.590   2.831  0.00  0.00    -0.075 C 
ATOM     19  C   UNL     1       2.232   4.979   2.193  0.00  0.00    +0.004 C 
ATOM     20  C   UNL     1       3.537   5.728   2.480  0.00  0.00    +0.069 C 
ATOM     21  C   UNL     1       4.714   4.901   1.954  0.00  0.00    +0.004 C 
ATOM     22  C   UNL     1       4.686   3.515   2.601  0.00  0.00    -0.075 C 
ATOM     23  H   UNL     1       3.327   2.791   1.265  0.00  0.00    -0.079 HD
BRANCH  20  24
ATOM     24  N   UNL     1       3.513   7.029   1.808  0.00  0.00    -0.312 N 
ATOM     25  C   UNL     1       4.260   8.046   2.282  0.00  0.00    +0.216 C 
ATOM     26  O   UNL     1       4.952   7.883   3.265  0.00  0.00    -0.276 OA
ATOM     27  H   UNL     1       2.960   7.159   1.022  0.00  0.00    +0.149 HD
BRANCH  25  28
ATOM     28  C   UNL     1       4.236   9.385   1.591  0.00  0.00    +0.075 C 
ATOM     29  C   UNL     1       5.169   9.466   0.371  0.00  0.00    +0.013 C 
ATOM     30  C   UNL     1       5.522  10.889   0.834  0.00  0.00    +0.001 C 
ATOM     31  C   UNL     1       5.141  10.437   2.254  0.00  0.00    +0.013 C 
ENDBRANCH  25  28
ENDBRANCH  20  24
ENDBRANCH   1  17
TORSDOF 4
