REMARK  Name = ZINC09424674
REMARK  15 active torsions:
REMARK  status: ('A' for Active; 'I' for Inactive)
REMARK    1  A    between atoms: C_1  and  C_2
REMARK    2  A    between atoms: C_2  and  N_72
REMARK    3  A    between atoms: C_3  and  C_4
REMARK    4  A    between atoms: C_3  and  N_72
REMARK    5  A    between atoms: C_5  and  C_6
REMARK    6  A    between atoms: C_5  and  N_72
REMARK    7  A    between atoms: C_6  and  C_7
REMARK    8  A    between atoms: C_7  and  N_8
REMARK    9  A    between atoms: C_9  and  C_28
REMARK   10  A    between atoms: C_11  and  C_16
REMARK   11  A    between atoms: C_12  and  O_15
REMARK   12  A    between atoms: C_16  and  C_18
REMARK   13  A    between atoms: C_31  and  C_34
REMARK   14  A    between atoms: C_34  and  C_35
REMARK   15  A    between atoms: C_34  and  C_36
REMARK                            x       y       z     vdW  Elec       q    Type
REMARK                         _______ _______ _______ _____ _____    ______ ____
ROOT
ATOM      1  N   UNL     1       3.006  -4.755   0.159  0.00  0.00    -0.284 N 
ATOM      2  C   UNL     1       3.008  -3.290   0.070  0.00  0.00    +0.144 C 
ATOM      3  C   UNL     1       4.456  -2.865   0.147  0.00  0.00    +0.071 C 
ATOM      4  C   UNL     1       5.188  -3.996   0.276  0.00  0.00    +0.188 C 
ATOM      5  C   UNL     1       4.282  -5.164   0.283  0.00  0.00    +0.282 C 
ATOM      6  O   UNL     1       4.637  -6.321   0.385  0.00  0.00    -0.267 OA
ENDROOT
BRANCH   2   7
ATOM      7  C   UNL     1       2.232  -2.698   1.219  0.00  0.00    -0.022 A 
ATOM      8  C   UNL     1       2.479  -3.122   2.511  0.00  0.00    +0.006 A 
ATOM      9  C   UNL     1       1.771  -2.575   3.565  0.00  0.00    +0.004 A 
ATOM     10  C   UNL     1       0.809  -1.611   3.325  0.00  0.00    -0.045 A 
ATOM     11  C   UNL     1       0.559  -1.191   2.032  0.00  0.00    +0.004 A 
ATOM     12  C   UNL     1       1.270  -1.735   0.979  0.00  0.00    +0.006 A 
BRANCH  10  13
ATOM     13  C   UNL     1       0.033  -1.019   4.473  0.00  0.00    +0.013 C 
ATOM     14  C   UNL     1      -0.729  -2.128   5.200  0.00  0.00    +0.012 C 
ATOM     15  C   UNL     1       1.000  -0.342   5.447  0.00  0.00    +0.012 C 
ENDBRANCH  10  13
ENDBRANCH   2   7
BRANCH   4  16
ATOM     16  O   UNL     1       6.536  -4.049   0.383  0.00  0.00    -0.502 OA
ATOM     17  H   UNL     1       6.826  -5.002   0.466  0.00  0.00    +0.292 HD
ENDBRANCH   4  16
BRANCH   3  18
ATOM     18  C   UNL     1       4.968  -1.492   0.098  0.00  0.00    +0.195 C 
ATOM     19  O   UNL     1       5.494  -1.004   1.081  0.00  0.00    -0.287 OA
BRANCH  18  20
ATOM     20  C   UNL     1       4.845  -0.703  -1.143  0.00  0.00    +0.026 A 
ATOM     21  C   UNL     1       4.271  -1.273  -2.283  0.00  0.00    +0.015 A 
ATOM     22  C   UNL     1       4.159  -0.534  -3.439  0.00  0.00    +0.050 A 
ATOM     23  C   UNL     1       4.614   0.779  -3.479  0.00  0.00    +0.162 A 
ATOM     24  C   UNL     1       5.185   1.354  -2.345  0.00  0.00    +0.163 A 
ATOM     25  C   UNL     1       5.302   0.617  -1.182  0.00  0.00    +0.061 A 
ATOM     26  O   UNL     1       5.628   2.642  -2.366  0.00  0.00    -0.485 OA
ATOM     27  C   UNL     1       5.835   3.230  -3.655  0.00  0.00    +0.270 C 
ATOM     28  C   UNL     1       4.616   2.910  -4.530  0.00  0.00    +0.270 C 
ATOM     29  O   UNL     1       4.500   1.487  -4.634  0.00  0.00    -0.485 OA
ENDBRANCH  18  20
ENDBRANCH   3  18
BRANCH   1  30
ATOM     30  C   UNL     1       1.824  -5.620   0.126  0.00  0.00    +0.107 C 
BRANCH  30  31
ATOM     31  C   UNL     1       1.303  -5.828   1.549  0.00  0.00    +0.000 C 
BRANCH  31  32
ATOM     32  C   UNL     1       0.069  -6.730   1.514  0.00  0.00    -0.077 C 
BRANCH  32  33
ATOM     33  N   UNL     1      -0.398  -6.949   2.900  0.00  0.00    +0.379 N 
ATOM     34  H   UNL     1       0.416  -7.109   3.504  0.00  0.00    -0.082 HD
BRANCH  33  36
ATOM     35  C   UNL     1      -1.401  -5.917   4.878  0.00  0.00    -0.017 C 
ATOM     36  C   UNL     1      -1.127  -5.757   3.381  0.00  0.00    -0.082 C 
ENDBRANCH  33  36
BRANCH  33  37
ATOM     37  C   UNL     1      -1.277  -8.136   2.955  0.00  0.00    -0.082 C 
ATOM     38  C   UNL     1      -0.407  -9.393   2.907  0.00  0.00    -0.017 C 
ENDBRANCH  33  37
ENDBRANCH  32  33
ENDBRANCH  31  32
ENDBRANCH  30  31
ENDBRANCH   1  30
TORSDOF 11
