REMARK  Name = ZINC39293345
REMARK  6 active torsions:
REMARK  status: ('A' for Active; 'I' for Inactive)
REMARK    1  A    between atoms: C_1  and  O_2
REMARK    2  A    between atoms: O_2  and  C_3
REMARK    3  A    between atoms: C_17  and  S_21
REMARK    4  A    between atoms: N_18  and  C_19
REMARK    5  A    between atoms: S_21  and  C_22
REMARK    6  A    between atoms: C_25  and  O_28
REMARK                            x       y       z     vdW  Elec       q    Type
REMARK                         _______ _______ _______ _____ _____    ______ ____
ROOT
ATOM      1  C   UNL     1      -0.051  -0.212  -1.300  0.00  0.00    +0.162 A 
ATOM      2  C   UNL     1       0.536   0.506  -2.340  0.00  0.00    +0.050 A 
ATOM      3  C   UNL     1       1.282  -0.107  -3.336  0.00  0.00    +0.009 A 
ATOM      4  C   UNL     1       1.485  -1.464  -3.307  0.00  0.00    -0.022 A 
ATOM      5  C   UNL     1       0.969  -2.179  -2.243  0.00  0.00    +0.016 A 
ATOM      6  C   UNL     1       0.160  -1.590  -1.263  0.00  0.00    +0.167 A 
ATOM      7  O   UNL     1      -0.361  -2.545  -0.441  0.00  0.00    -0.484 OA
ATOM      8  C   UNL     1       0.504  -3.658  -0.491  0.00  0.00    +0.191 C 
ATOM      9  C   UNL     1       1.065  -3.632  -1.936  0.00  0.00    +0.056 C 
ATOM     10  C   UNL     1       0.176  -4.382  -2.936  0.00  0.00    +0.038 C 
ATOM     11  C   UNL     1       0.943  -4.499  -4.252  0.00  0.00    +0.108 C 
ATOM     12  N   UNL     1       1.237  -3.233  -4.897  0.00  0.00    -0.305 N 
ATOM     13  C   UNL     1       2.220  -2.272  -4.359  0.00  0.00    +0.142 C 
ATOM     14  C   UNL     1       0.576  -2.917  -6.052  0.00  0.00    +0.168 C 
ATOM     15  N   UNL     1      -0.701  -3.231  -6.190  0.00  0.00    -0.151 NA
ATOM     16  C   UNL     1       2.403  -4.285  -1.819  0.00  0.00    -0.013 C 
ATOM     17  C   UNL     1       2.379  -5.429  -1.147  0.00  0.00    +0.001 C 
ATOM     18  C   UNL     1       1.135  -6.047  -0.595  0.00  0.00    +0.141 C 
ATOM     19  C   UNL     1       0.047  -5.056  -0.209  0.00  0.00    +0.081 C 
ENDROOT
BRANCH   1  21
ATOM     20  C   UNL     1      -0.960   1.825  -0.475  0.00  0.00    +0.277 C 
ATOM     21  O   UNL     1      -0.800   0.410  -0.351  0.00  0.00    -0.491 OA
ENDBRANCH   1  21
BRANCH  15  22
ATOM     22  C   UNL     1      -1.331  -3.947  -5.227  0.00  0.00    +0.207 C 
ATOM     23  N   UNL     1      -1.859  -4.546  -4.420  0.00  0.00    -0.169 NA
ENDBRANCH  15  22
BRANCH  14  24
ATOM     24  S   UNL     1       1.427  -2.091  -7.356  0.00  0.00    -0.093 S 
ATOM     25  C   UNL     1       0.166  -1.892  -8.645  0.00  0.00    +0.093 C 
ENDBRANCH  14  24
BRANCH  18  26
ATOM     26  O   UNL     1       0.606  -6.942  -1.575  0.00  0.00    -0.388 OA
ATOM     27  H   UNL     1       1.208  -7.658  -1.820  0.00  0.00    +0.210 HD
ENDBRANCH  18  26
TORSDOF 4
