REMARK  Name = ZINC39710465
REMARK  12 active torsions:
REMARK  status: ('A' for Active; 'I' for Inactive)
REMARK    1  A    between atoms: C_1  and  C_2
REMARK    2  A    between atoms: C_2  and  C_3
REMARK    3  A    between atoms: C_10  and  C_15
REMARK    4  A    between atoms: C_15  and  C_17
REMARK    5  A    between atoms: C_15  and  N_27
REMARK    6  A    between atoms: N_22  and  C_23
REMARK    7  A    between atoms: C_23  and  C_24
REMARK    8  A    between atoms: C_23  and  C_25
REMARK    9  A    between atoms: C_23  and  C_26
REMARK   10  A    between atoms: N_30  and  C_33
REMARK   11  A    between atoms: C_38  and  O_39
REMARK   12  A    between atoms: O_39  and  C_40
REMARK                            x       y       z     vdW  Elec       q    Type
REMARK                         _______ _______ _______ _____ _____    ______ ____
ROOT
ATOM      1  C   UNL     1       5.759  -0.877  -4.134  0.00  0.00    -0.009 C 
ENDROOT
BRANCH   1   9
ATOM      2  C   UNL     1       5.555  -5.768  -0.958  0.00  0.00    -0.047 A 
ATOM      3  C   UNL     1       4.727  -5.172  -0.005  0.00  0.00    +0.005 A 
ATOM      4  C   UNL     1       4.114  -3.978  -0.211  0.00  0.00    +0.024 A 
ATOM      5  C   UNL     1       4.295  -3.281  -1.421  0.00  0.00    +0.040 A 
ATOM      6  N   UNL     1       3.689  -2.110  -1.612  0.00  0.00    -0.285 N 
ATOM      7  C   UNL     1       3.815  -1.404  -2.723  0.00  0.00    +0.223 C 
ATOM      8  O   UNL     1       3.236  -0.340  -2.840  0.00  0.00    -0.275 OA
ATOM      9  C   UNL     1       4.681  -1.925  -3.848  0.00  0.00    +0.088 C 
ATOM     10  C   UNL     1       5.374  -3.256  -3.635  0.00  0.00    -0.006 C 
ATOM     11  C   UNL     1       5.163  -3.887  -2.445  0.00  0.00    -0.007 A 
ATOM     12  C   UNL     1       5.797  -5.174  -2.155  0.00  0.00    +0.013 A 
ATOM     13  H   UNL     1       3.128  -1.758  -0.902  0.00  0.00    +0.155 HD
BRANCH   2  15
ATOM     14  C   UNL     1       7.552  -6.862   0.024  0.00  0.00    +0.009 C 
ATOM     15  C   UNL     1       6.198  -7.095  -0.649  0.00  0.00    +0.032 C 
ENDBRANCH   2  15
ENDBRANCH   1   9
BRANCH   1  16
ATOM     16  N   UNL     1       6.590  -1.323  -5.259  0.00  0.00    +0.387 N 
ATOM     17  C   UNL     1       5.742  -1.529  -6.440  0.00  0.00    -0.059 C 
ATOM     18  C   UNL     1       6.588  -2.104  -7.581  0.00  0.00    +0.086 C 
ATOM     19  N   UNL     1       7.737  -1.212  -7.806  0.00  0.00    -0.331 N 
ATOM     20  C   UNL     1       8.548  -0.821  -6.643  0.00  0.00    +0.086 C 
ATOM     21  C   UNL     1       7.610  -0.307  -5.546  0.00  0.00    -0.059 C 
ATOM     22  H   UNL     1       7.042  -2.193  -5.018  0.00  0.00    -0.081 HD
BRANCH  19  23
ATOM     23  C   UNL     1       8.048  -0.749  -9.089  0.00  0.00    +0.072 A 
ATOM     24  C   UNL     1       7.500   0.438  -9.552  0.00  0.00    +0.027 A 
ATOM     25  C   UNL     1       7.810   0.894 -10.820  0.00  0.00    +0.002 A 
ATOM     26  C   UNL     1       8.665   0.169 -11.629  0.00  0.00    +0.004 A 
ATOM     27  C   UNL     1       9.215  -1.016 -11.174  0.00  0.00    +0.047 A 
ATOM     28  C   UNL     1       8.914  -1.476  -9.903  0.00  0.00    +0.141 A 
BRANCH  28  29
ATOM     29  O   UNL     1       9.458  -2.638  -9.452  0.00  0.00    -0.493 OA
ATOM     30  C   UNL     1      10.337  -3.330 -10.341  0.00  0.00    +0.277 C 
ENDBRANCH  28  29
ENDBRANCH  19  23
ENDBRANCH   1  16
BRANCH   1  31
ATOM     31  C   UNL     1       6.635  -0.695  -2.893  0.00  0.00    +0.205 C 
ATOM     32  N   UNL     1       7.210  -1.982  -2.478  0.00  0.00    -0.152 NA
ATOM     33  N   UNL     1       6.815  -2.247  -1.340  0.00  0.00    -0.070 NA
ATOM     34  N   UNL     1       5.970  -1.268  -0.818  0.00  0.00    -0.179 N 
ATOM     35  N   UNL     1       5.816  -0.263  -1.741  0.00  0.00    -0.183 NA
ATOM     36  H   UNL     1       5.557  -1.292   0.059  0.00  0.00    +0.191 HD
BRANCH  35  37
ATOM     37  C   UNL     1       6.290   1.021  -1.209  0.00  0.00    +0.035 C 
ATOM     38  C   UNL     1       6.203   2.089  -2.301  0.00  0.00    +0.029 C 
ATOM     39  C   UNL     1       5.420   1.434  -0.021  0.00  0.00    +0.029 C 
ATOM     40  C   UNL     1       7.743   0.878  -0.751  0.00  0.00    +0.029 C 
ENDBRANCH  35  37
ENDBRANCH   1  31
TORSDOF 7
