REMARK  Name = ZINC03112523
REMARK  8 active torsions:
REMARK  status: ('A' for Active; 'I' for Inactive)
REMARK    1  A    between atoms: C_6  and  O_35
REMARK    2  A    between atoms: C_7  and  C_11
REMARK    3  A    between atoms: N_13  and  N_14
REMARK    4  A    between atoms: C_15  and  C_16
REMARK    5  A    between atoms: C_19  and  O_22
REMARK    6  A    between atoms: O_22  and  S_23
REMARK    7  A    between atoms: S_23  and  C_26
REMARK    8  A    between atoms: C_29  and  N_32
REMARK                            x       y       z     vdW  Elec       q    Type
REMARK                         _______ _______ _______ _____ _____    ______ ____
ROOT
ATOM      1  C   UNL     1      -6.311   6.090   0.096  0.00  0.00    -0.005 A 
ATOM      2  C   UNL     1      -7.505   5.363   0.099  0.00  0.00    +0.013 A 
ATOM      3  C   UNL     1      -8.713   6.026   0.121  0.00  0.00    +0.049 A 
ATOM      4  C   UNL     1      -8.745   7.415   0.128  0.00  0.00    +0.157 A 
ATOM      5  C   UNL     1      -7.561   8.141   0.119  0.00  0.00    +0.049 A 
ATOM      6  C   UNL     1      -6.348   7.487   0.103  0.00  0.00    +0.013 A 
ENDROOT
BRANCH   1   8
ATOM      7  N   UNL     1      -4.984   4.087   0.073  0.00  0.00    -0.187 NA
ATOM      8  C   UNL     1      -5.017   5.385   0.080  0.00  0.00    +0.138 C 
BRANCH   7  11
ATOM      9  C   UNL     1      -3.721   2.070   0.050  0.00  0.00    +0.267 C 
ATOM     10  O   UNL     1      -4.758   1.435   0.057  0.00  0.00    -0.268 OA
ATOM     11  N   UNL     1      -3.754   3.417   0.057  0.00  0.00    -0.203 N 
ATOM     12  H   UNL     1      -2.926   3.923   0.051  0.00  0.00    +0.178 HD
BRANCH   9  19
ATOM     13  C   UNL     1       2.376   1.436  -0.013  0.00  0.00    +0.001 A 
ATOM     14  C   UNL     1       2.394   0.042  -0.021  0.00  0.00    +0.001 A 
ATOM     15  C   UNL     1       1.238  -0.675  -0.013  0.00  0.00    +0.008 A 
ATOM     16  C   UNL     1       0.002  -0.004   0.002  0.00  0.00    -0.014 A 
ATOM     17  C   UNL     1      -1.208  -0.718   0.010  0.00  0.00    +0.054 A 
ATOM     18  C   UNL     1      -2.395  -0.047   0.026  0.00  0.00    +0.130 A 
ATOM     19  C   UNL     1      -2.425   1.364   0.033  0.00  0.00    +0.080 A 
ATOM     20  C   UNL     1      -1.245   2.091   0.031  0.00  0.00    +0.025 A 
ATOM     21  C   UNL     1      -0.017   1.415   0.010  0.00  0.00    -0.017 A 
ATOM     22  C   UNL     1       1.200   2.121   0.002  0.00  0.00    +0.008 A 
BRANCH  18  23
ATOM     23  O   UNL     1      -3.560  -0.744   0.033  0.00  0.00    -0.506 OA
ATOM     24  H   UNL     1      -3.889  -0.950   0.919  0.00  0.00    +0.292 HD
ENDBRANCH  18  23
ENDBRANCH   9  19
ENDBRANCH   7  11
ENDBRANCH   1   8
BRANCH   4  25
ATOM     25  O   UNL     1      -9.938   8.065   0.143  0.00  0.00    -0.342 OA
BRANCH  25  26
ATOM     26  S   UNL     1     -10.496   8.367  -1.240  0.00  0.00    +0.151 S 
ATOM     27  O   UNL     1     -11.618   9.217  -1.048  0.00  0.00    -0.131 OA
ATOM     28  O   UNL     1      -9.390   8.737  -2.052  0.00  0.00    -0.131 OA
BRANCH  26  29
ATOM     29  C   UNL     1     -11.117   6.853  -1.894  0.00  0.00    +0.128 A 
ATOM     30  C   UNL     1     -10.291   6.031  -2.638  0.00  0.00    +0.033 A 
ATOM     31  C   UNL     1     -10.777   4.842  -3.147  0.00  0.00    +0.035 A 
ATOM     32  C   UNL     1     -12.091   4.479  -2.920  0.00  0.00    +0.126 A 
ATOM     33  C   UNL     1     -12.918   5.303  -2.181  0.00  0.00    +0.035 A 
ATOM     34  C   UNL     1     -12.431   6.490  -1.668  0.00  0.00    +0.033 A 
BRANCH  32  35
ATOM     35  N   UNL     1     -12.613   3.207  -3.470  0.00  0.00    +0.056 N 
ATOM     36  O   UNL     1     -13.771   2.887  -3.270  0.00  0.00    -0.126 OA
ATOM     37  O   UNL     1     -11.884   2.481  -4.121  0.00  0.00    -0.126 OA
ENDBRANCH  32  35
ENDBRANCH  26  29
ENDBRANCH  25  26
ENDBRANCH   4  25
TORSDOF 8
