REMARK  Name = ZINC40476324
REMARK  10 active torsions:
REMARK  status: ('A' for Active; 'I' for Inactive)
REMARK    1  A    between atoms: C_1  and  C_2
REMARK    2  A    between atoms: C_2  and  C_3
REMARK    3  A    between atoms: C_3  and  C_4
REMARK    4  A    between atoms: C_4  and  C_5
REMARK    5  A    between atoms: C_5  and  S_6
REMARK    6  A    between atoms: S_6  and  C_7
REMARK    7  A    between atoms: C_17  and  C_19
REMARK    8  A    between atoms: C_24  and  N_25
REMARK    9  A    between atoms: C_34  and  C_36
REMARK   10  A    between atoms: C_34  and  C_37
REMARK                            x       y       z     vdW  Elec       q    Type
REMARK                         _______ _______ _______ _____ _____    ______ ____
ROOT
ATOM      1  C   UNL     1       4.522  -1.949   3.182  0.00  0.00    +0.171 A 
ATOM      2  N   UNL     1       4.907  -1.502   4.359  0.00  0.00    -0.185 NA
ATOM      3  C   UNL     1       4.938  -2.311   5.429  0.00  0.00    +0.280 A 
ATOM      4  O   UNL     1       5.296  -1.880   6.516  0.00  0.00    -0.265 OA
ATOM      5  C   UNL     1       4.553  -3.663   5.293  0.00  0.00    +0.069 A 
ATOM      6  C   UNL     1       4.153  -4.111   4.073  0.00  0.00    +0.111 A 
ATOM      7  N   UNL     1       4.134  -3.244   3.012  0.00  0.00    -0.322 N 
ATOM      8  N   UNL     1       3.763  -5.420   3.910  0.00  0.00    -0.304 N 
ATOM      9  C   UNL     1       3.402  -6.181   4.989  0.00  0.00    +0.017 C 
ATOM     10  C   UNL     1       3.768  -5.820   6.238  0.00  0.00    +0.024 C 
ATOM     11  C   UNL     1       4.593  -4.581   6.478  0.00  0.00    +0.095 C 
ATOM     12  C   UNL     1       3.389  -6.588   7.353  0.00  0.00    +0.162 C 
ATOM     13  O   UNL     1       3.739  -6.240   8.463  0.00  0.00    -0.292 OA
ATOM     14  C   UNL     1       2.558  -7.832   7.198  0.00  0.00    +0.086 C 
ATOM     15  C   UNL     1       1.683  -7.696   5.948  0.00  0.00    -0.023 C 
ATOM     16  C   UNL     1       2.593  -7.431   4.747  0.00  0.00    +0.058 C 
ATOM     17  C   UNL     1       0.712  -6.527   6.125  0.00  0.00    +0.011 C 
ATOM     18  C   UNL     1       0.900  -8.991   5.724  0.00  0.00    +0.011 C 
ATOM     19  H   UNL     1       3.743  -5.808   3.022  0.00  0.00    +0.153 HD
ATOM     20  H   UNL     1       3.849  -3.554   2.139  0.00  0.00    +0.169 HD
ENDROOT
BRANCH  11  21
ATOM     21  C   UNL     1       6.021  -4.982   6.744  0.00  0.00    -0.001 A 
ATOM     22  C   UNL     1       6.704  -5.753   5.822  0.00  0.00    +0.056 A 
ATOM     23  C   UNL     1       8.016  -6.124   6.064  0.00  0.00    +0.167 A 
ATOM     24  C   UNL     1       8.645  -5.718   7.239  0.00  0.00    +0.168 A 
ATOM     25  C   UNL     1       7.955  -4.945   8.158  0.00  0.00    +0.082 A 
ATOM     26  C   UNL     1       6.646  -4.575   7.907  0.00  0.00    +0.134 A 
ATOM     27  O   UNL     1       9.920  -6.206   7.242  0.00  0.00    -0.453 OA
ATOM     28  C   UNL     1       9.933  -7.253   6.254  0.00  0.00    +0.466 C 
ATOM     29  O   UNL     1       8.897  -6.866   5.332  0.00  0.00    -0.453 OA
BRANCH  26  30
ATOM     30  N   UNL     1       5.913  -3.744   8.888  0.00  0.00    +0.057 N 
ATOM     31  O   UNL     1       6.470  -2.821   9.435  0.00  0.00    -0.126 OA
ATOM     32  O   UNL     1       4.756  -3.990   9.143  0.00  0.00    -0.126 OA
ENDBRANCH  26  30
ENDBRANCH  11  21
BRANCH   1  33
ATOM     33  S   UNL     1       4.499  -0.851   1.804  0.00  0.00    -0.088 S 
BRANCH  33  34
ATOM     34  C   UNL     1       5.080   0.725   2.489  0.00  0.00    +0.077 C 
BRANCH  34  35
ATOM     35  C   UNL     1       5.110   1.782   1.383  0.00  0.00    +0.011 C 
BRANCH  35  36
ATOM     36  C   UNL     1       5.600   3.111   1.961  0.00  0.00    +0.001 C 
BRANCH  36  38
ATOM     37  C   UNL     1       6.120   5.497   1.433  0.00  0.00    +0.004 C 
ATOM     38  C   UNL     1       5.629   4.168   0.855  0.00  0.00    -0.003 C 
ENDBRANCH  36  38
ENDBRANCH  35  36
ENDBRANCH  34  35
ENDBRANCH  33  34
ENDBRANCH   1  33
TORSDOF 7
