REMARK  Name = ZINC59293529
REMARK  13 active torsions:
REMARK  status: ('A' for Active; 'I' for Inactive)
REMARK    1  A    between atoms: C_1  and  C_2
REMARK    2  A    between atoms: C_2  and  N_3
REMARK    3  A    between atoms: N_3  and  C_4
REMARK    4  A    between atoms: C_4  and  C_5
REMARK    5  A    between atoms: C_6  and  C_8
REMARK    6  A    between atoms: C_14  and  C_15
REMARK    7  A    between atoms: C_19  and  O_21
REMARK    8  A    between atoms: O_21  and  C_22
REMARK    9  A    between atoms: C_24  and  N_38
REMARK   10  A    between atoms: C_25  and  C_36
REMARK   11  A    between atoms: C_26  and  C_28
REMARK   12  A    between atoms: C_32  and  O_34
REMARK   13  A    between atoms: O_34  and  C_35
REMARK                            x       y       z     vdW  Elec       q    Type
REMARK                         _______ _______ _______ _____ _____    ______ ____
ROOT
ATOM      1  C   UNL     1      -1.698  -1.042  -2.511  0.00  0.00    +0.058 C 
ATOM      2  C   UNL     1      -2.557  -1.214  -3.550  0.00  0.00    +0.099 A 
ATOM      3  N   UNL     1      -3.932  -1.188  -3.436  0.00  0.00    -0.257 N 
ATOM      4  C   UNL     1      -4.657  -1.375  -4.557  0.00  0.00    +0.271 A 
ATOM      5  O   UNL     1      -5.873  -1.362  -4.522  0.00  0.00    -0.266 OA
ATOM      6  C   UNL     1      -3.943  -1.594  -5.822  0.00  0.00    +0.079 A 
ATOM      7  C   UNL     1      -4.441  -1.804  -7.066  0.00  0.00    +0.028 C 
ATOM      8  S   UNL     1      -2.245  -1.510  -5.279  0.00  0.00    -0.065 S 
ATOM      9  C   UNL     1      -4.508  -0.971  -2.178  0.00  0.00    +0.118 C 
ATOM     10  C   UNL     1      -3.791  -0.782  -1.048  0.00  0.00    +0.079 C 
ATOM     11  C   UNL     1      -2.279  -0.810  -1.130  0.00  0.00    +0.100 C 
ENDROOT
BRANCH   7  12
ATOM     12  C   UNL     1      -5.884  -1.671  -7.313  0.00  0.00    -0.020 A 
ATOM     13  C   UNL     1      -6.607  -0.634  -6.713  0.00  0.00    +0.008 A 
ATOM     14  C   UNL     1      -7.960  -0.513  -6.948  0.00  0.00    +0.004 A 
ATOM     15  C   UNL     1      -8.607  -1.415  -7.775  0.00  0.00    +0.045 A 
ATOM     16  C   UNL     1      -7.899  -2.448  -8.375  0.00  0.00    +0.121 A 
ATOM     17  C   UNL     1      -6.539  -2.577  -8.153  0.00  0.00    +0.053 A 
BRANCH  16  18
ATOM     18  O   UNL     1      -8.541  -3.329  -9.186  0.00  0.00    -0.495 OA
ATOM     19  C   UNL     1      -9.944  -3.133  -9.376  0.00  0.00    +0.277 C 
ENDBRANCH  16  18
ENDBRANCH   7  12
BRANCH  11  20
ATOM     20  C   UNL     1      -1.758   0.508  -0.615  0.00  0.00    -0.031 A 
ATOM     21  C   UNL     1      -2.113   1.685  -1.248  0.00  0.00    +0.005 A 
ATOM     22  C   UNL     1      -1.637   2.895  -0.778  0.00  0.00    +0.004 A 
ATOM     23  C   UNL     1      -0.806   2.931   0.325  0.00  0.00    +0.045 A 
ATOM     24  C   UNL     1      -0.450   1.751   0.962  0.00  0.00    +0.120 A 
ATOM     25  C   UNL     1      -0.933   0.539   0.492  0.00  0.00    +0.050 A 
BRANCH  24  26
ATOM     26  O   UNL     1       0.367   1.784   2.047  0.00  0.00    -0.495 OA
ATOM     27  C   UNL     1       0.822   3.068   2.479  0.00  0.00    +0.277 C 
ENDBRANCH  24  26
ENDBRANCH  11  20
BRANCH   1  29
ATOM     28  N   UNL     1       0.317  -2.268  -2.852  0.00  0.00    -0.298 N 
ATOM     29  C   UNL     1      -0.309  -1.083  -2.711  0.00  0.00    +0.246 C 
ATOM     30  O   UNL     1       0.331  -0.047  -2.756  0.00  0.00    -0.270 OA
BRANCH  28  32
ATOM     31  C   UNL     1      -0.672  -4.039  -1.484  0.00  0.00    +0.024 C 
ATOM     32  C   UNL     1      -0.464  -3.507  -2.904  0.00  0.00    +0.104 C 
ENDBRANCH  28  32
BRANCH  28  33
ATOM     33  C   UNL     1       1.777  -2.318  -2.953  0.00  0.00    +0.104 C 
ATOM     34  C   UNL     1       2.191  -2.215  -4.422  0.00  0.00    +0.024 C 
ENDBRANCH  28  33
ENDBRANCH   1  29
BRANCH   9  35
ATOM     35  N   UNL     1      -5.878  -0.948  -2.088  0.00  0.00    -0.343 N 
ATOM     36  H   UNL     1      -6.412  -1.501  -2.679  0.00  0.00    +0.144 HD
ATOM     37  H   UNL     1      -6.312  -0.378  -1.433  0.00  0.00    +0.144 HD
ENDBRANCH   9  35
BRANCH  10  38
ATOM     38  C   UNL     1      -4.450  -0.566   0.205  0.00  0.00    +0.099 C 
ATOM     39  N   UNL     1      -4.973  -0.394   1.199  0.00  0.00    -0.191 NA
ENDBRANCH  10  38
TORSDOF 9
