REMARK  Name = ZINC39533944
REMARK  8 active torsions:
REMARK  status: ('A' for Active; 'I' for Inactive)
REMARK    1  A    between atoms: C_4  and  C_7
REMARK    2  A    between atoms: C_7  and  C_8
REMARK    3  A    between atoms: N_11  and  C_15
REMARK    4  A    between atoms: C_15  and  C_17
REMARK    5  A    between atoms: C_15  and  C_20
REMARK    6  A    between atoms: C_17  and  N_18
REMARK    7  A    between atoms: C_23  and  C_26
REMARK    8  A    between atoms: C_31  and  O_32
REMARK                            x       y       z     vdW  Elec       q    Type
REMARK                         _______ _______ _______ _____ _____    ______ ____
ROOT
ATOM      1  C   UNL     1       7.078  -2.911   2.793  0.00  0.00    +0.103 C 
ENDROOT
BRANCH   1   4
ATOM      2  C   UNL     1       5.125   0.212   2.007  0.00  0.00    -0.053 C 
ATOM      3  C   UNL     1       5.707  -1.186   1.789  0.00  0.00    +0.069 C 
ATOM      4  N   UNL     1       6.546  -1.550   2.939  0.00  0.00    -0.297 NA
ATOM      5  C   UNL     1       7.632  -0.577   3.123  0.00  0.00    +0.066 C 
ATOM      6  C   UNL     1       7.034   0.817   3.330  0.00  0.00    -0.067 C 
ATOM      7  N   UNL     1       6.220   1.179   2.163  0.00  0.00    +0.383 N 
ATOM      8  H   UNL     1       6.797   1.170   1.335  0.00  0.00    -0.085 HD
ATOM      9  H   UNL     1       5.836   2.103   2.294  0.00  0.00    -0.085 HD
BRANCH   2  10
ATOM     10  C   UNL     1       4.268   0.602   0.802  0.00  0.00    +0.020 C 
BRANCH  10  14
ATOM     11  C   UNL     1       2.364   4.351   1.558  0.00  0.00    +0.000 A 
ATOM     12  C   UNL     1       3.608   4.316   0.956  0.00  0.00    +0.000 A 
ATOM     13  C   UNL     1       4.224   3.103   0.711  0.00  0.00    +0.003 A 
ATOM     14  C   UNL     1       3.597   1.925   1.069  0.00  0.00    -0.049 A 
ATOM     15  C   UNL     1       2.353   1.959   1.672  0.00  0.00    +0.003 A 
ATOM     16  C   UNL     1       1.736   3.172   1.915  0.00  0.00    +0.000 A 
ENDBRANCH  10  14
ENDBRANCH   2  10
ENDBRANCH   1   4
BRANCH   1  17
ATOM     17  C   UNL     1       7.533  -3.420   4.137  0.00  0.00    -0.029 A 
ATOM     18  C   UNL     1       7.487  -2.587   5.241  0.00  0.00    +0.006 A 
ATOM     19  C   UNL     1       7.903  -3.047   6.473  0.00  0.00    +0.009 A 
ATOM     20  C   UNL     1       8.370  -4.353   6.606  0.00  0.00    -0.014 A 
ATOM     21  C   UNL     1       8.414  -5.188   5.490  0.00  0.00    +0.009 A 
ATOM     22  C   UNL     1       7.991  -4.719   4.263  0.00  0.00    +0.006 A 
BRANCH  20  23
ATOM     23  C   UNL     1       8.819  -4.853   7.928  0.00  0.00    +0.024 A 
ATOM     24  C   UNL     1       9.719  -4.110   8.688  0.00  0.00    +0.012 A 
ATOM     25  C   UNL     1      10.134  -4.580   9.918  0.00  0.00    +0.001 A 
ATOM     26  C   UNL     1       9.658  -5.787  10.399  0.00  0.00    +0.004 A 
ATOM     27  C   UNL     1       8.765  -6.532   9.653  0.00  0.00    +0.046 A 
ATOM     28  C   UNL     1       8.335  -6.069   8.420  0.00  0.00    +0.125 A 
BRANCH  28  29
ATOM     29  O   UNL     1       7.453  -6.798   7.688  0.00  0.00    -0.506 OA
ATOM     30  H   UNL     1       7.868  -7.433   7.088  0.00  0.00    +0.292 HD
ENDBRANCH  28  29
ENDBRANCH  20  23
ENDBRANCH   1  17
BRANCH   1  31
ATOM     31  C   UNL     1       8.264  -2.894   1.826  0.00  0.00    +0.140 C 
BRANCH  31  32
ATOM     32  N   UNL     1       7.824  -2.382   0.521  0.00  0.00    -0.157 NA
ATOM     33  F   UNL     1       8.810  -2.355  -0.325  0.00  0.00    -0.136 F 
ATOM     34  H   UNL     1       7.053  -2.925   0.161  0.00  0.00    +0.159 HD
ENDBRANCH  31  32
ENDBRANCH   1  31
TORSDOF 8
