REMARK  Name = ZINC40137431
REMARK  10 active torsions:
REMARK  status: ('A' for Active; 'I' for Inactive)
REMARK    1  A    between atoms: C_4  and  O_7
REMARK    2  A    between atoms: O_7  and  C_8
REMARK    3  A    between atoms: C_8  and  C_9
REMARK    4  A    between atoms: C_9  and  N_10
REMARK    5  A    between atoms: N_18  and  N_19
REMARK    6  A    between atoms: C_20  and  C_22
REMARK    7  A    between atoms: C_22  and  C_23
REMARK    8  A    between atoms: C_23  and  C_24
REMARK    9  A    between atoms: C_24  and  N_25
REMARK   10  A    between atoms: C_26  and  C_28
REMARK                            x       y       z     vdW  Elec       q    Type
REMARK                         _______ _______ _______ _____ _____    ______ ____
ROOT
ATOM      1  N   UNL     1       5.636  -2.268   1.185  0.00  0.00    -0.262 N 
ATOM      2  C   UNL     1       6.375  -1.105   1.369  0.00  0.00    +0.046 A 
ATOM      3  C   UNL     1       6.657  -0.045   0.514  0.00  0.00    +0.024 A 
ATOM      4  C   UNL     1       7.432   1.011   0.951  0.00  0.00    +0.002 A 
ATOM      5  C   UNL     1       7.936   1.029   2.240  0.00  0.00    +0.001 A 
ATOM      6  C   UNL     1       7.666  -0.014   3.103  0.00  0.00    +0.012 A 
ATOM      7  C   UNL     1       6.887  -1.082   2.672  0.00  0.00    +0.028 A 
ATOM      8  C   UNL     1       6.422  -2.327   3.326  0.00  0.00    +0.153 C 
ATOM      9  N   UNL     1       6.663  -2.723   4.553  0.00  0.00    -0.175 NA
ATOM     10  C   UNL     1       5.621  -3.022   2.298  0.00  0.00    +0.271 C 
ATOM     11  O   UNL     1       5.052  -4.089   2.432  0.00  0.00    -0.268 OA
ENDROOT
BRANCH   9  12
ATOM     12  N   UNL     1       6.140  -3.939   5.011  0.00  0.00    -0.206 N 
ATOM     13  C   UNL     1       6.388  -4.346   6.272  0.00  0.00    +0.232 C 
ATOM     14  O   UNL     1       7.063  -3.660   7.009  0.00  0.00    -0.274 OA
ATOM     15  H   UNL     1       5.599  -4.488   4.422  0.00  0.00    +0.177 HD
BRANCH  13  16
ATOM     16  C   UNL     1       5.825  -5.654   6.766  0.00  0.00    +0.099 C 
BRANCH  16  17
ATOM     17  C   UNL     1       6.252  -5.878   8.218  0.00  0.00    +0.028 C 
BRANCH  17  18
ATOM     18  C   UNL     1       5.681  -7.205   8.719  0.00  0.00    +0.105 C 
BRANCH  18  19
ATOM     19  N   UNL     1       6.090  -7.419  10.110  0.00  0.00    -0.311 N 
ATOM     20  C   UNL     1       5.701  -8.532  10.763  0.00  0.00    +0.245 C 
ATOM     21  O   UNL     1       5.011  -9.358  10.199  0.00  0.00    -0.270 OA
ATOM     22  H   UNL     1       6.641  -6.760  10.560  0.00  0.00    +0.149 HD
BRANCH  20  23
ATOM     23  C   UNL     1       6.113  -8.747  12.166  0.00  0.00    +0.055 A 
ATOM     24  C   UNL     1       6.901  -7.797  12.819  0.00  0.00    +0.014 A 
ATOM     25  C   UNL     1       7.282  -8.004  14.128  0.00  0.00    +0.001 A 
ATOM     26  C   UNL     1       6.886  -9.150  14.795  0.00  0.00    +0.001 A 
ATOM     27  C   UNL     1       6.106 -10.096  14.156  0.00  0.00    +0.021 A 
ATOM     28  C   UNL     1       5.712  -9.899  12.846  0.00  0.00    +0.053 A 
ATOM     29 CL   UNL     1       4.726 -11.083  12.046  0.00  0.00    -0.083 Cl
ENDBRANCH  20  23
ENDBRANCH  18  19
ENDBRANCH  17  18
ENDBRANCH  16  17
ENDBRANCH  13  16
ENDBRANCH   9  12
BRANCH   1  30
ATOM     30  C   UNL     1       4.954  -2.624  -0.061  0.00  0.00    +0.155 C 
BRANCH  30  31
ATOM     31  C   UNL     1       3.531  -2.060  -0.044  0.00  0.00    +0.248 C 
BRANCH  31  32
ATOM     32  O   UNL     1       3.586  -0.632  -0.037  0.00  0.00    -0.490 OA
BRANCH  32  36
ATOM     33  C   UNL     1      -0.017   1.378   0.010  0.00  0.00    +0.000 A 
ATOM     34  C   UNL     1       1.170   2.088   0.002  0.00  0.00    +0.004 A 
ATOM     35  C   UNL     1       2.377   1.417  -0.013  0.00  0.00    +0.045 A 
ATOM     36  C   UNL     1       2.399   0.030  -0.021  0.00  0.00    +0.121 A 
ATOM     37  C   UNL     1       1.207  -0.680  -0.013  0.00  0.00    +0.045 A 
ATOM     38  C   UNL     1       0.002  -0.004   0.002  0.00  0.00    +0.004 A 
ENDBRANCH  32  36
ENDBRANCH  31  32
ENDBRANCH  30  31
ENDBRANCH   1  30
TORSDOF 10
