REMARK  Name = ZINC12331233
REMARK  11 active torsions:
REMARK  status: ('A' for Active; 'I' for Inactive)
REMARK    1  A    between atoms: C_1  and  C_2
REMARK    2  A    between atoms: C_4  and  C_10
REMARK    3  A    between atoms: C_7  and  O_8
REMARK    4  A    between atoms: O_8  and  C_9
REMARK    5  A    between atoms: C_10  and  N_64
REMARK    6  A    between atoms: C_13  and  C_16
REMARK    7  A    between atoms: C_19  and  S_24
REMARK    8  A    between atoms: N_20  and  C_21
REMARK    9  A    between atoms: C_21  and  C_22
REMARK   10  A    between atoms: S_24  and  C_25
REMARK   11  A    between atoms: C_25  and  C_26
REMARK                            x       y       z     vdW  Elec       q    Type
REMARK                         _______ _______ _______ _____ _____    ______ ____
ROOT
ATOM      1  C   UNL     1      -0.731   1.580   1.266  0.00  0.00    -0.078 C 
ATOM      2  C   UNL     1      -0.013   1.086   0.008  0.00  0.00    -0.008 C 
ATOM      3  C   UNL     1      -0.755   1.594  -1.231  0.00  0.00    +0.054 C 
ATOM      4  C   UNL     1      -0.823   3.123  -1.184  0.00  0.00    -0.008 C 
ATOM      5  C   UNL     1      -1.519   3.558   0.108  0.00  0.00    -0.078 C 
ATOM      6  N   UNL     1      -0.742   3.059   1.262  0.00  0.00    +0.382 N 
ATOM      7  H   UNL     1       0.224   3.399   1.186  0.00  0.00    -0.081 HD
ENDROOT
BRANCH   3   8
ATOM      8  C   UNL     1      -0.018   1.161  -2.472  0.00  0.00    +0.137 A 
ATOM      9  N   UNL     1       1.208   1.466  -2.789  0.00  0.00    -0.133 NA
ATOM     10  N   UNL     1       1.521   0.930  -3.914  0.00  0.00    -0.122 NA
ATOM     11  C   UNL     1       0.501   0.247  -4.381  0.00  0.00    +0.192 A 
ATOM     12  N   UNL     1      -0.511   0.368  -3.472  0.00  0.00    -0.302 N 
BRANCH  12  13
ATOM     13  C   UNL     1      -1.848  -0.224  -3.554  0.00  0.00    +0.152 C 
BRANCH  13  14
ATOM     14  C   UNL     1      -2.777   0.727  -4.264  0.00  0.00    -0.013 C 
ATOM     15  C   UNL     1      -3.446   0.326  -5.316  0.00  0.00    +0.005 C 
ENDBRANCH  13  14
ENDBRANCH  12  13
BRANCH  11  16
ATOM     16  S   UNL     1       0.451  -0.661  -5.890  0.00  0.00    -0.081 S 
BRANCH  16  17
ATOM     17  C   UNL     1       2.126  -0.347  -6.501  0.00  0.00    +0.112 C 
BRANCH  17  18
ATOM     18  C   UNL     1       2.318  -1.047  -7.822  0.00  0.00    -0.036 A 
ATOM     19  C   UNL     1       2.014  -0.392  -9.001  0.00  0.00    +0.004 A 
ATOM     20  C   UNL     1       2.191  -1.033 -10.213  0.00  0.00    +0.002 A 
ATOM     21  C   UNL     1       2.671  -2.329 -10.247  0.00  0.00    +0.020 A 
ATOM     22  C   UNL     1       2.974  -2.985  -9.067  0.00  0.00    +0.041 A 
ATOM     23  C   UNL     1       2.803  -2.341  -7.854  0.00  0.00    +0.024 A 
ATOM     24 CL   UNL     1       3.578  -4.612  -9.109  0.00  0.00    -0.084 Cl
ENDBRANCH  17  18
ENDBRANCH  16  17
ENDBRANCH  11  16
ENDBRANCH   3   8
BRANCH   6  25
ATOM     25  C   UNL     1      -1.329   3.562   2.521  0.00  0.00    -0.043 C 
BRANCH  25  29
ATOM     26  C   UNL     1       2.551   4.756   5.445  0.00  0.00    +0.047 C 
ATOM     27  C   UNL     1       1.456   3.796   5.058  0.00  0.00    -0.009 A 
ATOM     28  C   UNL     1       0.604   4.104   4.015  0.00  0.00    +0.008 A 
ATOM     29  C   UNL     1      -0.401   3.224   3.659  0.00  0.00    -0.063 A 
ATOM     30  C   UNL     1      -0.559   2.035   4.349  0.00  0.00    +0.005 A 
ATOM     31  C   UNL     1       0.294   1.721   5.388  0.00  0.00    +0.046 A 
ATOM     32  C   UNL     1       1.303   2.603   5.748  0.00  0.00    +0.123 A 
BRANCH  32  33
ATOM     33  O   UNL     1       2.141   2.298   6.774  0.00  0.00    -0.495 OA
ATOM     34  C   UNL     1       1.925   1.052   7.439  0.00  0.00    +0.277 C 
ENDBRANCH  32  33
ENDBRANCH  25  29
ENDBRANCH   6  25
TORSDOF 9
