REMARK  Name = ZINC12214099
REMARK  10 active torsions:
REMARK  status: ('A' for Active; 'I' for Inactive)
REMARK    1  A    between atoms: C_1  and  C_2
REMARK    2  A    between atoms: C_2  and  C_3
REMARK    3  A    between atoms: C_10  and  C_12
REMARK    4  A    between atoms: C_15  and  S_18
REMARK    5  A    between atoms: N_16  and  C_17
REMARK    6  A    between atoms: S_18  and  C_19
REMARK    7  A    between atoms: C_19  and  C_20
REMARK    8  A    between atoms: N_22  and  C_23
REMARK    9  A    between atoms: C_23  and  C_25
REMARK   10  A    between atoms: C_23  and  C_26
REMARK                            x       y       z     vdW  Elec       q    Type
REMARK                         _______ _______ _______ _____ _____    ______ ____
ROOT
ATOM      1  S   UNL     1      -7.833  -1.406   2.984  0.00  0.00    -0.077 S 
ENDROOT
BRANCH   1   5
ATOM      2  C   UNL     1     -10.367   0.365   5.377  0.00  0.00    +0.171 A 
ATOM      3  N   UNL     1      -9.560   1.344   5.031  0.00  0.00    -0.128 NA
ATOM      4  N   UNL     1      -8.654   0.904   4.234  0.00  0.00    -0.122 NA
ATOM      5  C   UNL     1      -8.828  -0.379   4.013  0.00  0.00    +0.192 A 
ATOM      6  N   UNL     1      -9.922  -0.769   4.734  0.00  0.00    -0.305 N 
ATOM      7  C   UNL     1     -10.500  -2.114   4.808  0.00  0.00    +0.153 C 
BRANCH   2  14
ATOM      8  C   UNL     1     -14.451   1.800   9.895  0.00  0.00    -0.007 C 
ATOM      9  C   UNL     1     -15.585   1.119   9.123  0.00  0.00    +0.009 C 
ATOM     10  C   UNL     1     -15.030  -0.140   8.440  0.00  0.00    +0.043 C 
ATOM     11  C   UNL     1     -13.757   0.224   7.747  0.00  0.00    -0.006 A 
ATOM     12  C   UNL     1     -13.011   1.352   7.920  0.00  0.00    -0.036 A 
ATOM     13  C   UNL     1     -11.855   1.460   7.157  0.00  0.00    +0.023 A 
ATOM     14  C   UNL     1     -11.526   0.462   6.279  0.00  0.00    +0.057 A 
ATOM     15  S   UNL     1     -12.866  -0.695   6.520  0.00  0.00    -0.090 S 
ATOM     16  C   UNL     1     -13.451   2.420   8.918  0.00  0.00    +0.039 C 
BRANCH   8  18
ATOM     17  C   UNL     1     -13.922   3.482  11.664  0.00  0.00    +0.004 C 
ATOM     18  C   UNL     1     -15.032   2.895  10.790  0.00  0.00    +0.000 C 
ENDBRANCH   8  18
ENDBRANCH   2  14
ENDBRANCH   1   5
BRANCH   1  19
ATOM     19  C   UNL     1      -6.626  -0.191   2.399  0.00  0.00    +0.173 C 
BRANCH  19  20
ATOM     20  C   UNL     1      -5.643  -0.864   1.476  0.00  0.00    +0.224 C 
ATOM     21  O   UNL     1      -5.749  -2.048   1.237  0.00  0.00    -0.275 OA
ATOM     22  N   UNL     1      -4.647  -0.149   0.915  0.00  0.00    -0.308 N 
ATOM     23  H   UNL     1      -4.563   0.798   1.107  0.00  0.00    +0.149 HD
BRANCH  22  24
ATOM     24  C   UNL     1      -3.692  -0.803   0.018  0.00  0.00    +0.100 C 
ATOM     25  C   UNL     1      -4.266  -0.838  -1.400  0.00  0.00    +0.033 C 
BRANCH  24  26
ATOM     26  C   UNL     1      -2.397  -0.033   0.016  0.00  0.00    -0.024 A 
ATOM     27  C   UNL     1      -2.415   1.349   0.026  0.00  0.00    +0.009 A 
ATOM     28  C   UNL     1      -1.229   2.059   0.019  0.00  0.00    +0.050 A 
ATOM     29  C   UNL     1      -0.017   1.385   0.010  0.00  0.00    +0.162 A 
ATOM     30  C   UNL     1       0.002  -0.004   0.002  0.00  0.00    +0.162 A 
ATOM     31  C   UNL     1      -1.192  -0.710   0.004  0.00  0.00    +0.055 A 
ATOM     32  O   UNL     1       1.181  -0.685  -0.007  0.00  0.00    -0.485 OA
ATOM     33  C   UNL     1       2.347   0.053  -0.387  0.00  0.00    +0.270 C 
ATOM     34  C   UNL     1       2.334   1.392   0.364  0.00  0.00    +0.270 C 
ATOM     35  O   UNL     1       1.143   2.098   0.002  0.00  0.00    -0.485 OA
ENDBRANCH  24  26
ENDBRANCH  22  24
ENDBRANCH  19  20
ENDBRANCH   1  19
TORSDOF 7
