REMARK  Name = ZINC65429703
REMARK  6 active torsions:
REMARK  status: ('A' for Active; 'I' for Inactive)
REMARK    1  A    between atoms: C_1  and  C_2
REMARK    2  A    between atoms: C_7  and  C_13
REMARK    3  A    between atoms: C_11  and  C_12
REMARK    4  A    between atoms: C_13  and  N_14
REMARK    5  A    between atoms: C_20  and  C_25
REMARK    6  A    between atoms: N_27  and  C_28
REMARK                            x       y       z     vdW  Elec       q    Type
REMARK                         _______ _______ _______ _____ _____    ______ ____
ROOT
ATOM      1  N   UNL     1      -2.309  -4.313   1.504  0.00  0.00    -0.298 NA
ATOM      2  C   UNL     1      -2.291  -2.985   2.122  0.00  0.00    +0.090 C 
ATOM      3  C   UNL     1      -3.324  -2.065   1.447  0.00  0.00    +0.068 C 
ATOM      4  C   UNL     1      -4.628  -2.837   1.436  0.00  0.00    +0.044 C 
ATOM      5  N   UNL     1      -5.776  -2.486   1.814  0.00  0.00    -0.195 NA
ATOM      6  N   UNL     1      -6.732  -3.503   1.776  0.00  0.00    -0.256 N 
ATOM      7  C   UNL     1      -6.080  -4.744   1.315  0.00  0.00    +0.184 C 
ATOM      8  C   UNL     1      -4.672  -4.275   0.933  0.00  0.00    +0.080 C 
ATOM      9  C   UNL     1      -3.581  -5.028   1.697  0.00  0.00    +0.096 C 
ATOM     10  H   UNL     1      -7.668  -3.409   2.012  0.00  0.00    +0.169 HD
ENDROOT
BRANCH   7  11
ATOM     11  C   UNL     1      -6.024  -5.761   2.426  0.00  0.00    +0.235 C 
ATOM     12  O   UNL     1      -6.160  -5.407   3.578  0.00  0.00    -0.274 OA
ATOM     13  N   UNL     1      -5.822  -7.062   2.139  0.00  0.00    -0.317 N 
ATOM     14  C   UNL     1      -5.767  -8.050   3.220  0.00  0.00    +0.128 C 
ATOM     15  H   UNL     1      -5.712  -7.344   1.218  0.00  0.00    +0.148 HD
ENDBRANCH   7  11
BRANCH   1  16
ATOM     16  C   UNL     1      -1.174  -5.123   1.965  0.00  0.00    +0.131 C 
BRANCH  16  23
ATOM     17  C   UNL     1      -3.274  -6.303  -4.613  0.00  0.00    +0.044 C 
ATOM     18  C   UNL     1      -2.939  -6.548  -3.164  0.00  0.00    -0.045 A 
ATOM     19  C   UNL     1      -3.689  -7.499  -2.449  0.00  0.00    +0.006 A 
ATOM     20  C   UNL     1      -3.458  -7.779  -1.151  0.00  0.00    +0.027 A 
ATOM     21  C   UNL     1      -2.385  -7.074  -0.436  0.00  0.00    +0.060 A 
ATOM     22  N   UNL     1      -1.946  -7.138   0.787  0.00  0.00    -0.362 N 
ATOM     23  C   UNL     1      -0.840  -6.180   0.909  0.00  0.00    +0.188 C 
ATOM     24  N   UNL     1      -0.692  -5.548  -0.408  0.00  0.00    -0.362 N 
ATOM     25  C   UNL     1      -1.591  -6.068  -1.193  0.00  0.00    +0.063 A 
ATOM     26  C   UNL     1      -1.930  -5.849  -2.606  0.00  0.00    -0.023 A 
ATOM     27  C   UNL     1      -1.158  -4.847  -3.425  0.00  0.00    +0.046 C 
ATOM     28  H   UNL     1      -0.044  -4.868  -0.649  0.00  0.00    +0.162 HD
ATOM     29  H   UNL     1      -2.287  -7.713   1.490  0.00  0.00    +0.162 HD
ENDBRANCH  16  23
ENDBRANCH   1  16
TORSDOF 3
