REMARK  Name = ZINC36624359
REMARK  10 active torsions:
REMARK  status: ('A' for Active; 'I' for Inactive)
REMARK    1  A    between atoms: C_1  and  C_2
REMARK    2  A    between atoms: C_2  and  O_3
REMARK    3  A    between atoms: O_3  and  C_4
REMARK    4  A    between atoms: C_7  and  S_10
REMARK    5  A    between atoms: S_10  and  N_13
REMARK    6  A    between atoms: C_16  and  C_19
REMARK    7  A    between atoms: N_21  and  C_22
REMARK    8  A    between atoms: C_22  and  C_23
REMARK    9  A    between atoms: C_23  and  C_25
REMARK   10  A    between atoms: C_23  and  N_30
REMARK                            x       y       z     vdW  Elec       q    Type
REMARK                         _______ _______ _______ _____ _____    ______ ____
ROOT
ATOM      1  N   UNL     1      -1.942  -7.002   1.495  0.00  0.00    -0.177 NA
ATOM      2  C   UNL     1      -0.782  -7.158   2.384  0.00  0.00    +0.110 C 
ATOM      3  C   UNL     1      -0.881  -8.514   3.089  0.00  0.00    +0.030 C 
ATOM      4  C   UNL     1      -2.233  -8.619   3.798  0.00  0.00    +0.077 C 
ATOM      5  C   UNL     1      -3.360  -8.528   2.766  0.00  0.00    +0.030 C 
ATOM      6  C   UNL     1      -3.289  -7.167   2.057  0.00  0.00    +0.110 C 
ENDROOT
BRANCH   4   7
ATOM      7  C   UNL     1      -2.320  -9.938   4.521  0.00  0.00    +0.216 C 
ATOM      8  O   UNL     1      -1.392 -10.717   4.475  0.00  0.00    -0.276 OA
ATOM      9  N   UNL     1      -3.429 -10.251   5.220  0.00  0.00    -0.316 N 
ATOM     10  H   UNL     1      -4.172  -9.628   5.257  0.00  0.00    +0.149 HD
BRANCH   9  11
ATOM     11  C   UNL     1      -3.514 -11.533   5.923  0.00  0.00    +0.094 C 
BRANCH  11  12
ATOM     12  C   UNL     1      -4.808 -11.583   6.739  0.00  0.00    -0.013 C 
BRANCH  12  13
ATOM     13  N   UNL     1      -4.957 -12.916   7.339  0.00  0.00    +0.386 N 
ATOM     14  C   UNL     1      -6.220 -12.988   8.118  0.00  0.00    -0.078 C 
ATOM     15  C   UNL     1      -6.506 -14.509   8.189  0.00  0.00    -0.020 C 
ATOM     16  C   UNL     1      -6.059 -15.010   6.796  0.00  0.00    -0.020 C 
ATOM     17  C   UNL     1      -5.077 -13.941   6.281  0.00  0.00    -0.078 C 
ATOM     18  H   UNL     1      -4.168 -13.120   7.934  0.00  0.00    -0.081 HD
ENDBRANCH  12  13
BRANCH  12  19
ATOM     19  C   UNL     1      -4.755 -10.544   7.829  0.00  0.00    -0.022 A 
ATOM     20  C   UNL     1      -5.326  -9.315   7.865  0.00  0.00    +0.009 A 
ATOM     21  C   UNL     1      -5.142  -8.523   8.983  0.00  0.00    +0.008 A 
ATOM     22  C   UNL     1      -4.396  -8.998  10.009  0.00  0.00    +0.045 A 
ATOM     23  S   UNL     1      -3.931 -10.615   9.411  0.00  0.00    -0.103 S 
ENDBRANCH  12  19
ENDBRANCH  11  12
ENDBRANCH   9  11
ENDBRANCH   4   7
BRANCH   1  24
ATOM     24  S   UNL     1      -1.734  -6.639  -0.107  0.00  0.00    +0.061 S 
ATOM     25  O   UNL     1      -2.903  -7.089  -0.780  0.00  0.00    -0.153 OA
ATOM     26  O   UNL     1      -0.433  -7.087  -0.460  0.00  0.00    -0.153 OA
BRANCH  24  30
ATOM     27  C   UNL     1      -1.693  -2.125  -0.465  0.00  0.00    +0.121 A 
ATOM     28  C   UNL     1      -0.508  -2.817  -0.256  0.00  0.00    +0.047 A 
ATOM     29  C   UNL     1      -0.524  -4.194  -0.147  0.00  0.00    +0.032 A 
ATOM     30  C   UNL     1      -1.718  -4.883  -0.246  0.00  0.00    +0.106 A 
ATOM     31  C   UNL     1      -2.900  -4.196  -0.455  0.00  0.00    +0.032 A 
ATOM     32  C   UNL     1      -2.891  -2.819  -0.559  0.00  0.00    +0.047 A 
BRANCH  27  33
ATOM     33  O   UNL     1      -1.680  -0.771  -0.573  0.00  0.00    -0.492 OA
BRANCH  33  35
ATOM     34  C   UNL     1      -0.596   1.389  -0.611  0.00  0.00    +0.048 C 
ATOM     35  C   UNL     1      -0.411  -0.123  -0.466  0.00  0.00    +0.225 C 
ENDBRANCH  33  35
ENDBRANCH  27  33
ENDBRANCH  24  30
ENDBRANCH   1  24
TORSDOF 9
