REMARK  Name = ZINC63294458
REMARK  4 active torsions:
REMARK  status: ('A' for Active; 'I' for Inactive)
REMARK    1  A    between atoms: N_17  and  C_18
REMARK    2  A    between atoms: C_18  and  C_19
REMARK    3  A    between atoms: C_24  and  C_27
REMARK    4  A    between atoms: C_24  and  O_34
REMARK                            x       y       z     vdW  Elec       q    Type
REMARK                         _______ _______ _______ _____ _____    ______ ____
ROOT
ATOM      1  C   UNL     1      -0.019   1.345   0.015  0.00  0.00    +0.001 A 
ATOM      2  C   UNL     1       1.162   2.099   0.011  0.00  0.00    +0.002 A 
ATOM      3  C   UNL     1       2.387   1.532   0.000  0.00  0.00    +0.026 A 
ATOM      4  C   UNL     1       2.526   0.118  -0.008  0.00  0.00    +0.043 A 
ATOM      5  N   UNL     1       3.589  -0.655  -0.039  0.00  0.00    -0.376 N 
ATOM      6  C   UNL     1       3.153  -2.047   0.045  0.00  0.00    +0.124 C 
ATOM      7  C   UNL     1       3.651  -2.874  -1.145  0.00  0.00    +0.138 C 
ATOM      8  N   UNL     1       2.856  -4.111  -1.199  0.00  0.00    -0.283 N 
ATOM      9  C   UNL     1       1.399  -4.056  -1.362  0.00  0.00    +0.114 C 
ATOM     10  C   UNL     1       0.789  -3.239  -0.209  0.00  0.00    +0.052 C 
ATOM     11  C   UNL     1       1.636  -2.000  -0.029  0.00  0.00    -0.036 C 
ATOM     12  C   UNL     1       1.291  -0.704  -0.011  0.00  0.00    -0.001 A 
ATOM     13  C   UNL     1      -0.001  -0.006   0.005  0.00  0.00    +0.010 A 
ATOM     14  C   UNL     1       3.472  -5.306  -1.099  0.00  0.00    +0.303 C 
ATOM     15  O   UNL     1       4.686  -5.362  -1.058  0.00  0.00    -0.253 OA
ATOM     16  N   UNL     1       2.743  -6.438  -1.042  0.00  0.00    -0.291 N 
ATOM     17  H   UNL     1       1.779  -6.399  -1.148  0.00  0.00    +0.151 HD
ATOM     18  H   UNL     1       4.508  -0.352  -0.106  0.00  0.00    +0.160 HD
ENDROOT
BRANCH  16  19
ATOM     19  C   UNL     1       3.405  -7.726  -0.822  0.00  0.00    +0.201 C 
BRANCH  19  20
ATOM     20  C   UNL     1       2.373  -8.824  -0.801  0.00  0.00    +0.233 C 
ATOM     21  O   UNL     1       1.200  -8.557  -0.956  0.00  0.00    -0.274 OA
ATOM     22  N   UNL     1       2.753 -10.103  -0.612  0.00  0.00    -0.300 N 
ATOM     23  C   UNL     1       4.170 -10.441  -0.417  0.00  0.00    +0.111 C 
ATOM     24  C   UNL     1       4.563 -11.520  -1.431  0.00  0.00    +0.058 C 
ATOM     25  C   UNL     1       3.609 -12.710  -1.300  0.00  0.00    +0.094 C 
ATOM     26  C   UNL     1       2.180 -12.256  -1.607  0.00  0.00    +0.058 C 
ATOM     27  C   UNL     1       1.759 -11.184  -0.589  0.00  0.00    +0.111 C 
BRANCH  25  28
ATOM     28  C   UNL     1       4.013 -13.787  -2.272  0.00  0.00    -0.016 A 
ATOM     29  C   UNL     1       4.630 -13.448  -3.462  0.00  0.00    +0.008 A 
ATOM     30  C   UNL     1       5.001 -14.436  -4.354  0.00  0.00    +0.020 A 
ATOM     31  C   UNL     1       4.755 -15.765  -4.057  0.00  0.00    +0.041 A 
ATOM     32  C   UNL     1       4.138 -16.104  -2.866  0.00  0.00    +0.020 A 
ATOM     33  C   UNL     1       3.772 -15.115  -1.972  0.00  0.00    +0.008 A 
ATOM     34 CL   UNL     1       5.220 -17.006  -5.177  0.00  0.00    -0.084 Cl
ENDBRANCH  25  28
BRANCH  25  35
ATOM     35  O   UNL     1       3.669 -13.224   0.032  0.00  0.00    -0.384 OA
ATOM     36  H   UNL     1       3.088 -13.981   0.188  0.00  0.00    +0.211 HD
ENDBRANCH  25  35
ENDBRANCH  19  20
ENDBRANCH  16  19
TORSDOF 4
