REMARK  Name = ZINC12314430
REMARK  11 active torsions:
REMARK  status: ('A' for Active; 'I' for Inactive)
REMARK    1  A    between atoms: C_1  and  C_2
REMARK    2  A    between atoms: C_5  and  C_7
REMARK    3  A    between atoms: C_7  and  N_57
REMARK    4  A    between atoms: C_13  and  C_15
REMARK    5  A    between atoms: C_15  and  C_16
REMARK    6  A    between atoms: N_18  and  C_19
REMARK    7  A    between atoms: N_18  and  C_26
REMARK    8  A    between atoms: C_19  and  C_20
REMARK    9  A    between atoms: N_24  and  C_25
REMARK   10  A    between atoms: C_26  and  C_27
REMARK   11  A    between atoms: C_26  and  C_28
REMARK                            x       y       z     vdW  Elec       q    Type
REMARK                         _______ _______ _______ _____ _____    ______ ____
ROOT
ATOM      1  C   UNL     1       2.336   3.289  -2.960  0.00  0.00    -0.058 C 
ATOM      2  C   UNL     1       2.468   1.778  -3.158  0.00  0.00    +0.085 C 
ATOM      3  N   UNL     1       2.212   1.084  -1.899  0.00  0.00    -0.318 N 
ATOM      4  C   UNL     1       2.258   1.694  -0.711  0.00  0.00    +0.200 C 
ATOM      5  O   UNL     1       2.062   1.036   0.289  0.00  0.00    -0.278 OA
ATOM      6  C   UNL     1       2.542   3.162  -0.561  0.00  0.00    +0.029 C 
ATOM      7  H   UNL     1       1.994   0.139  -1.927  0.00  0.00    +0.149 HD
ATOM      8  N   UNL     1       3.163   3.672  -1.798  0.00  0.00    +0.393 N 
ATOM      9  H   UNL     1       4.097   3.258  -1.900  0.00  0.00    -0.080 HD
ENDROOT
BRANCH   8  10
ATOM     10  C   UNL     1       3.293   5.145  -1.730  0.00  0.00    -0.002 C 
BRANCH  10  15
ATOM     11  C   UNL     1      -1.253   7.128  -2.647  0.00  0.00    +0.086 C 
ATOM     12  C   UNL     1      -0.033   6.641  -1.908  0.00  0.00    +0.102 A 
ATOM     13  C   UNL     1       0.148   6.682  -0.576  0.00  0.00    +0.044 A 
ATOM     14  C   UNL     1       1.423   6.126  -0.319  0.00  0.00    +0.043 A 
ATOM     15  C   UNL     1       1.944   5.779  -1.510  0.00  0.00    +0.089 A 
ATOM     16  O   UNL     1       1.060   6.098  -2.469  0.00  0.00    -0.467 OA
ENDBRANCH  10  15
ENDBRANCH   8  10
BRANCH   6  17
ATOM     17  C   UNL     1       3.510   3.376   0.605  0.00  0.00    +0.090 C 
BRANCH  17  18
ATOM     18  C   UNL     1       4.768   2.581   0.366  0.00  0.00    +0.215 C 
ATOM     19  O   UNL     1       4.927   2.000  -0.686  0.00  0.00    -0.276 OA
ATOM     20  N   UNL     1       5.716   2.517   1.322  0.00  0.00    -0.292 N 
BRANCH  20  21
ATOM     21  C   UNL     1       5.568   3.295   2.554  0.00  0.00    +0.070 C 
ATOM     22  C   UNL     1       5.544   2.348   3.755  0.00  0.00    +0.028 C 
ATOM     23  C   UNL     1       6.746   4.262   2.691  0.00  0.00    +0.028 C 
ENDBRANCH  20  21
BRANCH  20  24
ATOM     24  C   UNL     1       6.895   1.669   1.128  0.00  0.00    +0.182 C 
BRANCH  24  25
ATOM     25  C   UNL     1       7.932   2.424   0.336  0.00  0.00    +0.127 A 
ATOM     26  N   UNL     1       8.792   3.274   0.825  0.00  0.00    -0.239 NA
ATOM     27  C   UNL     1       9.557   3.750  -0.168  0.00  0.00    +0.130 A 
ATOM     28  C   UNL     1       9.155   3.174  -1.317  0.00  0.00    +0.106 A 
ATOM     29  N   UNL     1       8.128   2.328  -0.997  0.00  0.00    -0.336 N 
ATOM     30  C   UNL     1       7.379   1.479  -1.927  0.00  0.00    +0.150 C 
ENDBRANCH  24  25
ENDBRANCH  20  24
ENDBRANCH  17  18
ENDBRANCH   6  17
TORSDOF 7
