REMARK  Name = ZINC38657725
REMARK  7 active torsions:
REMARK  status: ('A' for Active; 'I' for Inactive)
REMARK    1  A    between atoms: C_10  and  C_11
REMARK    2  A    between atoms: C_16  and  O_25
REMARK    3  A    between atoms: C_20  and  N_24
REMARK    4  A    between atoms: C_21  and  C_22
REMARK    5  A    between atoms: O_25  and  C_26
REMARK    6  A    between atoms: C_26  and  C_28
REMARK    7  A    between atoms: C_29  and  C_30
REMARK                            x       y       z     vdW  Elec       q    Type
REMARK                         _______ _______ _______ _____ _____    ______ ____
ROOT
ATOM      1  C   UNL     1       4.941   0.169  -0.062  0.00  0.00    +0.098 C 
ATOM      2  C   UNL     1       5.778  -0.265  -1.237  0.00  0.00    +0.008 A 
ATOM      3  C   UNL     1       5.448   0.174  -2.507  0.00  0.00    +0.012 A 
ATOM      4  C   UNL     1       6.204  -0.213  -3.595  0.00  0.00    +0.047 A 
ATOM      5  C   UNL     1       7.301  -1.045  -3.417  0.00  0.00    +0.135 A 
ATOM      6  C   UNL     1       7.634  -1.486  -2.147  0.00  0.00    +0.093 A 
ATOM      7  C   UNL     1       6.872  -1.096  -1.053  0.00  0.00    +0.138 A 
ATOM      8  O   UNL     1       7.212  -1.536   0.184  0.00  0.00    -0.441 OA
ATOM      9  C   UNL     1       6.758  -0.891   1.272  0.00  0.00    +0.199 C 
ATOM     10  C   UNL     1       5.687  -0.070   1.220  0.00  0.00    +0.098 C 
ENDROOT
BRANCH   1  20
ATOM     11  C   UNL     1      -0.048   1.315  -0.033  0.00  0.00    +0.001 A 
ATOM     12  C   UNL     1       1.130   2.061  -0.046  0.00  0.00    +0.001 A 
ATOM     13  C   UNL     1       2.346   1.450  -0.051  0.00  0.00    +0.009 A 
ATOM     14  C   UNL     1       2.419   0.047  -0.043  0.00  0.00    -0.014 A 
ATOM     15  C   UNL     1       1.222  -0.712  -0.029  0.00  0.00    -0.018 A 
ATOM     16  C   UNL     1      -0.016  -0.045  -0.024  0.00  0.00    +0.008 A 
ATOM     17  C   UNL     1       1.295  -2.115  -0.020  0.00  0.00    +0.008 A 
ATOM     18  C   UNL     1       2.512  -2.726  -0.025  0.00  0.00    +0.001 A 
ATOM     19  C   UNL     1       3.689  -1.980  -0.038  0.00  0.00    +0.005 A 
ATOM     20  C   UNL     1       3.656  -0.619  -0.048  0.00  0.00    -0.027 A 
ENDBRANCH   1  20
BRANCH   9  21
ATOM     21  N   UNL     1       7.403  -1.073   2.470  0.00  0.00    -0.328 N 
ATOM     22  H   UNL     1       8.173  -1.660   2.522  0.00  0.00    +0.145 HD
ATOM     23  H   UNL     1       7.088  -0.614   3.265  0.00  0.00    +0.145 HD
ENDBRANCH   9  21
BRANCH  10  24
ATOM     24  C   UNL     1       5.253   0.587   2.417  0.00  0.00    +0.101 C 
ATOM     25  N   UNL     1       4.910   1.108   3.366  0.00  0.00    -0.191 NA
ENDBRANCH  10  24
BRANCH   5  26
ATOM     26  O   UNL     1       8.046  -1.427  -4.487  0.00  0.00    -0.423 OA
BRANCH  26  27
ATOM     27  C   UNL     1       8.894  -0.525  -5.023  0.00  0.00    +0.337 C 
ATOM     28  O   UNL     1       9.046   0.558  -4.490  0.00  0.00    -0.245 OA
BRANCH  27  29
ATOM     29  C   UNL     1       9.631  -0.849  -6.243  0.00  0.00    +0.092 C 
ATOM     30  C   UNL     1      10.479   0.054  -6.779  0.00  0.00    +0.016 C 
BRANCH  30  31
ATOM     31  C   UNL     1      11.220  -0.272  -8.008  0.00  0.00    -0.006 A 
ATOM     32  C   UNL     1      11.045  -1.514  -8.626  0.00  0.00    +0.009 A 
ATOM     33  C   UNL     1      11.743  -1.812  -9.777  0.00  0.00    +0.001 A 
ATOM     34  C   UNL     1      12.617  -0.886 -10.321  0.00  0.00    +0.001 A 
ATOM     35  C   UNL     1      12.797   0.345  -9.716  0.00  0.00    +0.020 A 
ATOM     36  C   UNL     1      12.101   0.662  -8.567  0.00  0.00    +0.048 A 
ATOM     37 CL   UNL     1      12.322   2.210  -7.813  0.00  0.00    -0.083 Cl
ENDBRANCH  30  31
ENDBRANCH  27  29
ENDBRANCH  26  27
ENDBRANCH   5  26
TORSDOF 7
