REMARK  Name = ZINC34748111
REMARK  6 active torsions:
REMARK  status: ('A' for Active; 'I' for Inactive)
REMARK    1  A    between atoms: C_1  and  N_2
REMARK    2  A    between atoms: N_2  and  C_3
REMARK    3  A    between atoms: C_4  and  C_6
REMARK    4  A    between atoms: C_6  and  N_7
REMARK    5  A    between atoms: N_20  and  C_23
REMARK    6  A    between atoms: C_23  and  C_24
REMARK                            x       y       z     vdW  Elec       q    Type
REMARK                         _______ _______ _______ _____ _____    ______ ____
ROOT
ATOM      1  N   UNL     1       0.555  -1.841  -3.820  0.00  0.00    -0.271 N 
ATOM      2  C   UNL     1      -0.649  -2.020  -4.395  0.00  0.00    +0.264 A 
ATOM      3  O   UNL     1      -1.256  -1.075  -4.868  0.00  0.00    -0.267 OA
ATOM      4  C   UNL     1      -1.205  -3.337  -4.442  0.00  0.00    +0.076 A 
ATOM      5  C   UNL     1      -2.494  -3.757  -5.017  0.00  0.00    -0.023 A 
ATOM      6  C   UNL     1      -2.797  -5.062  -4.939  0.00  0.00    -0.004 A 
ATOM      7  S   UNL     1      -1.411  -5.809  -4.112  0.00  0.00    -0.073 S 
ATOM      8  C   UNL     1      -0.427  -4.354  -3.871  0.00  0.00    +0.117 A 
ATOM      9  N   UNL     1       0.756  -4.110  -3.317  0.00  0.00    -0.208 NA
ATOM     10  C   UNL     1       1.249  -2.889  -3.291  0.00  0.00    +0.202 A 
ATOM     11  N   UNL     1       2.476  -2.667  -2.718  0.00  0.00    -0.304 N 
ATOM     12  C   UNL     1       2.596  -2.349  -1.287  0.00  0.00    +0.089 C 
ATOM     13  C   UNL     1       3.644  -3.281  -0.669  0.00  0.00    -0.059 C 
ATOM     14  N   UNL     1       4.900  -3.172  -1.421  0.00  0.00    +0.387 N 
ATOM     15  C   UNL     1       4.704  -3.654  -2.794  0.00  0.00    -0.059 C 
ATOM     16  C   UNL     1       3.709  -2.745  -3.517  0.00  0.00    +0.089 C 
ATOM     17  C   UNL     1      -4.136  -5.373  -5.553  0.00  0.00    +0.043 C 
ATOM     18  C   UNL     1      -4.843  -4.003  -5.654  0.00  0.00    +0.010 C 
ATOM     19  C   UNL     1      -3.644  -3.037  -5.728  0.00  0.00    +0.037 C 
ATOM     20  H   UNL     1       5.194  -2.207  -1.443  0.00  0.00    -0.081 HD
ENDROOT
BRANCH   1  21
ATOM     21  C   UNL     1       1.133  -0.496  -3.767  0.00  0.00    +0.224 C 
BRANCH  21  25
ATOM     22  C   UNL     1       3.190   1.248  -6.484  0.00  0.00    +0.131 C 
ATOM     23  N   UNL     1       2.480   0.973  -5.233  0.00  0.00    -0.306 N 
ATOM     24  C   UNL     1       2.438   1.986  -4.176  0.00  0.00    +0.131 C 
ATOM     25  C   UNL     1       1.864  -0.213  -5.054  0.00  0.00    +0.235 C 
ATOM     26  O   UNL     1       1.898  -1.052  -5.930  0.00  0.00    -0.274 OA
ENDBRANCH  21  25
ENDBRANCH   1  21
BRANCH  14  27
ATOM     27  C   UNL     1       5.935  -3.981  -0.763  0.00  0.00    +0.019 C 
BRANCH  27  28
ATOM     28  C   UNL     1       7.254  -3.774  -1.462  0.00  0.00    +0.199 C 
ATOM     29  O   UNL     1       7.325  -3.026  -2.414  0.00  0.00    -0.278 OA
ATOM     30  N   UNL     1       8.355  -4.420  -1.029  0.00  0.00    -0.299 N 
ATOM     31  C   UNL     1       8.292  -5.337   0.120  0.00  0.00    +0.136 C 
ATOM     32  C   UNL     1       8.947  -6.663  -0.283  0.00  0.00    +0.179 C 
ATOM     33  O   UNL     1      10.248  -6.402  -0.817  0.00  0.00    -0.377 OA
ATOM     34  C   UNL     1      10.244  -5.609  -2.006  0.00  0.00    +0.179 C 
ATOM     35  C   UNL     1       9.653  -4.233  -1.695  0.00  0.00    +0.136 C 
ENDBRANCH  27  28
ENDBRANCH  14  27
TORSDOF 4
