REMARK  Name = ZINC10690757
REMARK  9 active torsions:
REMARK  status: ('A' for Active; 'I' for Inactive)
REMARK    1  A    between atoms: C_1  and  C_2
REMARK    2  A    between atoms: C_5  and  C_8
REMARK    3  A    between atoms: C_8  and  C_38
REMARK    4  A    between atoms: N_11  and  C_15
REMARK    5  A    between atoms: C_15  and  C_16
REMARK    6  A    between atoms: N_18  and  C_19
REMARK    7  A    between atoms: C_19  and  C_20
REMARK    8  A    between atoms: C_20  and  C_22
REMARK    9  A    between atoms: C_20  and  C_28
REMARK                            x       y       z     vdW  Elec       q    Type
REMARK                         _______ _______ _______ _____ _____    ______ ____
ROOT
ATOM      1  C   UNL     1      -1.652   2.419   1.444  0.00  0.00    +0.231 C 
ATOM      2  O   UNL     1      -0.989   1.980   2.360  0.00  0.00    -0.274 OA
ATOM      3  N   UNL     1      -2.757   3.147   1.700  0.00  0.00    -0.313 N 
ATOM      4  H   UNL     1      -3.287   3.498   0.967  0.00  0.00    +0.149 HD
ENDROOT
BRANCH   1   5
ATOM      5  C   UNL     1      -1.239   2.150   0.020  0.00  0.00    +0.213 C 
BRANCH   5   9
ATOM      6  C   UNL     1       1.467  -0.394  -0.014  0.00  0.00    +0.135 C 
ATOM      7  C   UNL     1       0.002  -0.004   0.002  0.00  0.00    +0.251 C 
ATOM      8  O   UNL     1      -0.954  -0.749   0.008  0.00  0.00    -0.272 OA
ATOM      9  N   UNL     1      -0.016   1.343   0.009  0.00  0.00    -0.215 N 
ATOM     10  C   UNL     1       1.220   1.854   0.000  0.00  0.00    +0.310 C 
ATOM     11  O   UNL     1       1.460   3.045   0.004  0.00  0.00    -0.252 OA
ATOM     12  N   UNL     1       2.170   0.901  -0.014  0.00  0.00    -0.281 N 
ATOM     13  C   UNL     1       1.822  -1.203   1.235  0.00  0.00    +0.047 C 
ATOM     14  H   UNL     1       3.130   1.039  -0.022  0.00  0.00    +0.152 HD
BRANCH   6  19
ATOM     15  C   UNL     1       2.722  -3.388  -4.795  0.00  0.00    +0.044 C 
ATOM     16  C   UNL     1       2.394  -2.608  -3.548  0.00  0.00    -0.050 A 
ATOM     17  C   UNL     1       3.362  -1.822  -2.950  0.00  0.00    +0.004 A 
ATOM     18  C   UNL     1       3.062  -1.106  -1.806  0.00  0.00    +0.006 A 
ATOM     19  C   UNL     1       1.794  -1.175  -1.261  0.00  0.00    -0.015 A 
ATOM     20  C   UNL     1       0.828  -1.964  -1.856  0.00  0.00    +0.006 A 
ATOM     21  C   UNL     1       1.126  -2.677  -3.002  0.00  0.00    +0.004 A 
ENDBRANCH   6  19
ENDBRANCH   5   9
ENDBRANCH   1   5
BRANCH   3  22
ATOM     22  C   UNL     1      -3.158   3.408   3.084  0.00  0.00    +0.117 C 
BRANCH  22  23
ATOM     23  C   UNL     1      -4.435   4.250   3.095  0.00  0.00    +0.068 C 
BRANCH  23  24
ATOM     24  C   UNL     1      -4.779   4.622   4.514  0.00  0.00    -0.013 A 
ATOM     25  C   UNL     1      -5.045   3.774   5.520  0.00  0.00    +0.088 A 
ATOM     26  N   UNL     1      -5.311   4.476   6.664  0.00  0.00    -0.360 N 
ATOM     27  H   UNL     1      -5.528   4.080   7.523  0.00  0.00    +0.165 HD
ATOM     28  C   UNL     1      -5.230   5.827   6.414  0.00  0.00    +0.047 A 
ATOM     29  C   UNL     1      -4.893   5.979   5.056  0.00  0.00    +0.003 A 
ATOM     30  C   UNL     1      -4.742   7.256   4.514  0.00  0.00    +0.010 A 
ATOM     31  C   UNL     1      -4.922   8.355   5.306  0.00  0.00    +0.001 A 
ATOM     32  C   UNL     1      -5.254   8.211   6.646  0.00  0.00    +0.002 A 
ATOM     33  C   UNL     1      -5.409   6.960   7.202  0.00  0.00    +0.026 A 
ENDBRANCH  23  24
BRANCH  23  34
ATOM     34  C   UNL     1      -5.566   3.455   2.496  0.00  0.00    -0.038 A 
ATOM     35  C   UNL     1      -5.947   2.255   3.068  0.00  0.00    +0.004 A 
ATOM     36  C   UNL     1      -6.987   1.528   2.521  0.00  0.00    +0.000 A 
ATOM     37  C   UNL     1      -7.641   1.996   1.396  0.00  0.00    +0.000 A 
ATOM     38  C   UNL     1      -7.257   3.193   0.821  0.00  0.00    +0.000 A 
ATOM     39  C   UNL     1      -6.219   3.922   1.371  0.00  0.00    +0.004 A 
ENDBRANCH  23  34
ENDBRANCH  22  23
ENDBRANCH   3  22
TORSDOF 7
