REMARK  Name = ZINC49511341
REMARK  10 active torsions:
REMARK  status: ('A' for Active; 'I' for Inactive)
REMARK    1  A    between atoms: C_1  and  C_2
REMARK    2  A    between atoms: C_2  and  O_3
REMARK    3  A    between atoms: O_3  and  C_4
REMARK    4  A    between atoms: C_7  and  C_34
REMARK    5  A    between atoms: C_9  and  S_10
REMARK    6  A    between atoms: S_10  and  N_13
REMARK    7  A    between atoms: N_13  and  C_14
REMARK    8  A    between atoms: N_21  and  S_24
REMARK    9  A    between atoms: S_24  and  C_27
REMARK   10  A    between atoms: C_30  and  C_33
REMARK                            x       y       z     vdW  Elec       q    Type
REMARK                         _______ _______ _______ _____ _____    ______ ____
ROOT
ATOM      1  C   UNL     1      -3.084   0.224   1.690  0.00  0.00    +0.048 A 
ATOM      2  C   UNL     1      -1.798  -0.038   1.233  0.00  0.00    +0.025 A 
ATOM      3  C   UNL     1      -0.782   0.853   1.501  0.00  0.00    +0.006 A 
ATOM      4  C   UNL     1      -1.031   2.017   2.222  0.00  0.00    -0.042 A 
ATOM      5  C   UNL     1      -2.307   2.283   2.667  0.00  0.00    -0.027 A 
ATOM      6  C   UNL     1      -3.333   1.388   2.401  0.00  0.00    +0.029 A 
ATOM      7  C   UNL     1      -2.650   3.539   3.428  0.00  0.00    +0.144 C 
ATOM      8  N   UNL     1      -1.418   4.223   3.833  0.00  0.00    -0.172 NA
ATOM      9  C   UNL     1      -0.349   4.342   2.828  0.00  0.00    +0.114 C 
ATOM     10  C   UNL     1       0.134   2.934   2.487  0.00  0.00    +0.052 C 
ENDROOT
BRANCH   8  11
ATOM     11  S   UNL     1      -1.237   4.838   5.361  0.00  0.00    +0.061 S 
ATOM     12  O   UNL     1      -0.262   5.867   5.271  0.00  0.00    -0.153 OA
ATOM     13  O   UNL     1      -2.546   5.070   5.863  0.00  0.00    -0.153 OA
BRANCH  11  14
ATOM     14  C   UNL     1      -0.534   3.564   6.355  0.00  0.00    +0.106 A 
ATOM     15  C   UNL     1      -1.357   2.677   7.025  0.00  0.00    +0.029 A 
ATOM     16  C   UNL     1      -0.805   1.678   7.805  0.00  0.00    +0.005 A 
ATOM     17  C   UNL     1       0.568   1.565   7.915  0.00  0.00    -0.050 A 
ATOM     18  C   UNL     1       1.390   2.451   7.244  0.00  0.00    +0.005 A 
ATOM     19  C   UNL     1       0.839   3.448   6.460  0.00  0.00    +0.029 A 
ATOM     20  C   UNL     1       1.169   0.476   8.766  0.00  0.00    +0.044 C 
ENDBRANCH  11  14
ENDBRANCH   8  11
BRANCH   1  21
ATOM     21  N   UNL     1      -4.120  -0.676   1.429  0.00  0.00    -0.216 N 
ATOM     22  H   UNL     1      -4.731  -0.931   2.138  0.00  0.00    +0.174 HD
BRANCH  21  23
ATOM     23  S   UNL     1      -4.305  -1.308  -0.090  0.00  0.00    +0.076 S 
ATOM     24  O   UNL     1      -4.210  -0.218  -0.998  0.00  0.00    -0.150 OA
ATOM     25  O   UNL     1      -5.440  -2.161  -0.040  0.00  0.00    -0.150 OA
BRANCH  23  31
ATOM     26  C   UNL     1      -2.702  -3.473   0.376  0.00  0.00    +0.147 A 
ATOM     27  C   UNL     1      -1.606  -4.287   0.128  0.00  0.00    +0.048 A 
ATOM     28  C   UNL     1      -0.724  -3.967  -0.886  0.00  0.00    +0.007 A 
ATOM     29  C   UNL     1      -0.932  -2.835  -1.653  0.00  0.00    -0.048 A 
ATOM     30  C   UNL     1      -2.023  -2.021  -1.407  0.00  0.00    +0.036 A 
ATOM     31  C   UNL     1      -2.911  -2.341  -0.398  0.00  0.00    +0.150 A 
ATOM     32  C   UNL     1       0.031  -2.487  -2.758  0.00  0.00    +0.044 C 
BRANCH  26  33
ATOM     33  O   UNL     1      -3.571  -3.786   1.372  0.00  0.00    -0.490 OA
BRANCH  33  35
ATOM     34  C   UNL     1      -4.380  -5.174   3.178  0.00  0.00    +0.048 C 
ATOM     35  C   UNL     1      -3.237  -4.904   2.197  0.00  0.00    +0.226 C 
ENDBRANCH  33  35
ENDBRANCH  26  33
ENDBRANCH  23  31
ENDBRANCH  21  23
ENDBRANCH   1  21
TORSDOF 7
