REMARK  Name = ZINC21251451
REMARK  3 active torsions:
REMARK  status: ('A' for Active; 'I' for Inactive)
REMARK    1  A    between atoms: C_4  and  O_32
REMARK    2  A    between atoms: C_5  and  C_7
REMARK    3  A    between atoms: C_12  and  C_17
REMARK                            x       y       z     vdW  Elec       q    Type
REMARK                         _______ _______ _______ _____ _____    ______ ____
ROOT
ATOM      1  C   UNL     1       2.449   3.949  -0.001  0.00  0.00    +0.139 C 
ATOM      2  C   UNL     1       2.908   4.099  -1.432  0.00  0.00    +0.037 C 
ATOM      3  C   UNL     1       2.914   5.238  -2.143  0.00  0.00    +0.017 C 
ATOM      4  C   UNL     1       3.369   5.237  -3.594  0.00  0.00    +0.059 C 
ATOM      5  C   UNL     1       4.464   4.191  -3.795  0.00  0.00    +0.033 C 
ATOM      6  C   UNL     1       3.879   2.824  -3.422  0.00  0.00    +0.088 C 
ATOM      7  C   UNL     1       3.363   2.892  -2.016  0.00  0.00    +0.163 C 
ATOM      8  O   UNL     1       3.333   1.874  -1.353  0.00  0.00    -0.292 OA
ATOM      9  N   UNL     1       2.523   6.449  -1.673  0.00  0.00    -0.316 N 
ATOM     10  C   UNL     1       1.352   6.681  -0.959  0.00  0.00    +0.052 A 
ATOM     11  C   UNL     1       0.355   7.518  -1.428  0.00  0.00    +0.025 A 
ATOM     12  C   UNL     1      -0.736   7.792  -0.621  0.00  0.00    +0.002 A 
ATOM     13  C   UNL     1      -0.828   7.234   0.641  0.00  0.00    +0.002 A 
ATOM     14  C   UNL     1       0.158   6.379   1.103  0.00  0.00    +0.025 A 
ATOM     15  C   UNL     1       1.243   6.090   0.291  0.00  0.00    +0.049 A 
ATOM     16  N   UNL     1       2.238   5.201   0.694  0.00  0.00    -0.331 N 
ATOM     17  H   UNL     1       3.149   7.337  -1.850  0.00  0.00    +0.152 HD
ATOM     18  H   UNL     1       2.868   5.465   1.556  0.00  0.00    +0.147 HD
ENDROOT
BRANCH   5  19
ATOM     19  C   UNL     1       4.905   4.184  -5.236  0.00  0.00    -0.025 A 
ATOM     20  C   UNL     1       3.994   3.901  -6.236  0.00  0.00    +0.005 A 
ATOM     21  C   UNL     1       4.397   3.894  -7.558  0.00  0.00    +0.000 A 
ATOM     22  C   UNL     1       5.713   4.170  -7.881  0.00  0.00    +0.001 A 
ATOM     23  C   UNL     1       6.625   4.453  -6.882  0.00  0.00    +0.020 A 
ATOM     24  C   UNL     1       6.220   4.465  -5.559  0.00  0.00    +0.044 A 
ATOM     25 CL   UNL     1       7.364   4.828  -4.304  0.00  0.00    -0.083 Cl
ENDBRANCH   5  19
BRANCH   1  30
ATOM     26  C   UNL     1      -0.809   2.406  -1.124  0.00  0.00    +0.001 A 
ATOM     27  C   UNL     1      -1.214   1.745   0.021  0.00  0.00    +0.004 A 
ATOM     28  C   UNL     1      -0.440   1.802   1.163  0.00  0.00    +0.046 A 
ATOM     29  C   UNL     1       0.750   2.515   1.159  0.00  0.00    +0.122 A 
ATOM     30  C   UNL     1       1.157   3.174   0.008  0.00  0.00    +0.019 A 
ATOM     31  C   UNL     1       0.376   3.118  -1.131  0.00  0.00    +0.009 A 
BRANCH  29  32
ATOM     32  O   UNL     1       1.516   2.568   2.280  0.00  0.00    -0.506 OA
ATOM     33  H   UNL     1       2.460   3.134   2.275  0.00  0.00    +0.292 HD
ENDBRANCH  29  32
ENDBRANCH   1  30
TORSDOF 3
