REMARK  Name = ZINC02771844
REMARK  10 active torsions:
REMARK  status: ('A' for Active; 'I' for Inactive)
REMARK    1  A    between atoms: C_1  and  C_2
REMARK    2  A    between atoms: C_7  and  N_8
REMARK    3  A    between atoms: N_8  and  C_9
REMARK    4  A    between atoms: C_9  and  N_11
REMARK    5  A    between atoms: N_11  and  N_12
REMARK    6  A    between atoms: C_13  and  C_15
REMARK    7  A    between atoms: C_22  and  C_25
REMARK    8  A    between atoms: C_25  and  C_26
REMARK    9  A    between atoms: C_25  and  C_27
REMARK   10  A    between atoms: C_25  and  C_28
REMARK                            x       y       z     vdW  Elec       q    Type
REMARK                         _______ _______ _______ _____ _____    ______ ____
ROOT
ATOM      1  N   UNL     1      -6.451   0.237  -0.967  0.00  0.00    -0.231 N 
ATOM      2  C   UNL     1      -5.131   0.428  -1.163  0.00  0.00    +0.261 C 
ATOM      3  O   UNL     1      -4.593  -0.025  -2.155  0.00  0.00    -0.269 OA
ATOM      4  H   UNL     1      -6.881   0.598  -0.175  0.00  0.00    +0.173 HD
ENDROOT
BRANCH   2   5
ATOM      5  C   UNL     1      -4.342   1.185  -0.178  0.00  0.00    +0.049 A 
ATOM      6  C   UNL     1      -4.930   1.708   0.953  0.00  0.00    +0.058 A 
ATOM      7  S   UNL     1      -3.609   2.485   1.762  0.00  0.00    -0.101 S 
ATOM      8  C   UNL     1      -2.315   2.114   0.613  0.00  0.00    -0.006 A 
ATOM      9  C   UNL     1      -2.921   1.404  -0.366  0.00  0.00    -0.025 A 
ATOM     10  C   UNL     1      -2.132   0.890  -1.564  0.00  0.00    +0.037 C 
ATOM     11  C   UNL     1      -0.820   1.674  -1.666  0.00  0.00    +0.009 C 
ATOM     12  C   UNL     1      -0.090   1.639  -0.320  0.00  0.00    -0.000 C 
ATOM     13  C   UNL     1      -0.869   2.493   0.691  0.00  0.00    +0.046 C 
BRANCH  12  14
ATOM     14  C   UNL     1       1.322   2.203  -0.487  0.00  0.00    -0.035 C 
ATOM     15  C   UNL     1       2.047   2.173   0.860  0.00  0.00    +0.011 C 
ATOM     16  C   UNL     1       2.094   1.354  -1.500  0.00  0.00    +0.011 C 
ATOM     17  C   UNL     1       1.239   3.646  -0.990  0.00  0.00    +0.011 C 
ENDBRANCH  12  14
ENDBRANCH   2   5
BRANCH   1  18
ATOM     18  N   UNL     1      -7.202  -0.483  -1.905  0.00  0.00    -0.245 N 
ATOM     19  H   UNL     1      -6.773  -0.845  -2.696  0.00  0.00    +0.172 HD
BRANCH  18  20
ATOM     20  C   UNL     1      -8.522  -0.674  -1.708  0.00  0.00    +0.151 C 
ATOM     21  S   UNL     1      -9.440  -1.554  -2.854  0.00  0.00    -0.017 S 
BRANCH  20  22
ATOM     22  N   UNL     1      -9.119  -0.172  -0.609  0.00  0.00    -0.296 N 
ATOM     23  H   UNL     1      -8.586   0.257   0.079  0.00  0.00    +0.154 HD
BRANCH  22  30
ATOM     24  C   UNL     1     -10.146  -0.956   1.927  0.00  0.00    +0.045 C 
ATOM     25  C   UNL     1     -11.050  -0.649   0.760  0.00  0.00    -0.029 A 
ATOM     26  C   UNL     1     -12.421  -0.745   0.904  0.00  0.00    +0.005 A 
ATOM     27  C   UNL     1     -13.251  -0.463  -0.165  0.00  0.00    +0.000 A 
ATOM     28  C   UNL     1     -12.712  -0.085  -1.382  0.00  0.00    +0.002 A 
ATOM     29  C   UNL     1     -11.343   0.017  -1.530  0.00  0.00    +0.023 A 
ATOM     30  C   UNL     1     -10.506  -0.270  -0.460  0.00  0.00    +0.036 A 
ENDBRANCH  22  30
ENDBRANCH  20  22
ENDBRANCH  18  20
ENDBRANCH   1  18
TORSDOF 6
