REMARK  Name = ZINC39534297
REMARK  9 active torsions:
REMARK  status: ('A' for Active; 'I' for Inactive)
REMARK    1  A    between atoms: C_4  and  O_7
REMARK    2  A    between atoms: O_7  and  S_8
REMARK    3  A    between atoms: S_8  and  C_11
REMARK    4  A    between atoms: C_14  and  C_17
REMARK    5  A    between atoms: C_17  and  C_19
REMARK    6  A    between atoms: C_17  and  N_22
REMARK    7  A    between atoms: C_19  and  N_20
REMARK    8  A    between atoms: N_20  and  O_21
REMARK    9  A    between atoms: C_26  and  O_29
REMARK                            x       y       z     vdW  Elec       q    Type
REMARK                         _______ _______ _______ _____ _____    ______ ____
ROOT
ATOM      1  C   UNL     1       3.244  -2.433   1.777  0.00  0.00    +0.128 A 
ATOM      2  C   UNL     1       1.924  -2.189   2.108  0.00  0.00    +0.031 A 
ATOM      3  C   UNL     1       1.164  -3.183   2.695  0.00  0.00    +0.007 A 
ATOM      4  C   UNL     1       1.723  -4.421   2.951  0.00  0.00    -0.029 A 
ATOM      5  C   UNL     1       3.042  -4.665   2.619  0.00  0.00    +0.007 A 
ATOM      6  C   UNL     1       3.801  -3.673   2.028  0.00  0.00    +0.031 A 
ENDROOT
BRANCH   1   7
ATOM      7  S   UNL     1       4.213  -1.167   1.028  0.00  0.00    +0.151 S 
ATOM      8  O   UNL     1       5.571  -1.475   1.309  0.00  0.00    -0.131 OA
ATOM      9  O   UNL     1       3.620   0.071   1.398  0.00  0.00    -0.131 OA
BRANCH   7  10
ATOM     10  O   UNL     1       4.040  -1.299  -0.479  0.00  0.00    -0.342 OA
BRANCH  10  14
ATOM     11  C   UNL     1       0.402   0.054  -1.876  0.00  0.00    +0.000 A 
ATOM     12  C   UNL     1       1.474   0.922  -1.791  0.00  0.00    +0.004 A 
ATOM     13  C   UNL     1       2.694   0.471  -1.323  0.00  0.00    +0.048 A 
ATOM     14  C   UNL     1       2.841  -0.853  -0.939  0.00  0.00    +0.157 A 
ATOM     15  C   UNL     1       1.763  -1.722  -1.024  0.00  0.00    +0.048 A 
ATOM     16  C   UNL     1       0.546  -1.267  -1.493  0.00  0.00    +0.004 A 
ENDBRANCH  10  14
ENDBRANCH   7  10
ENDBRANCH   1   7
BRANCH   4  17
ATOM     17  C   UNL     1       0.894  -5.504   3.593  0.00  0.00    +0.103 C 
BRANCH  17  18
ATOM     18  N   UNL     1       1.766  -6.617   3.990  0.00  0.00    -0.295 NA
ATOM     19  C   UNL     1       2.130  -7.441   2.829  0.00  0.00    +0.066 C 
ATOM     20  C   UNL     1       3.084  -8.552   3.274  0.00  0.00    -0.063 C 
ATOM     21  N   UNL     1       2.430  -9.379   4.297  0.00  0.00    +0.398 N 
ATOM     22  C   UNL     1       2.095  -8.547   5.460  0.00  0.00    +0.073 C 
ATOM     23  C   UNL     1       1.133  -7.436   5.033  0.00  0.00    +0.096 C 
ATOM     24  H   UNL     1       1.587  -9.780   3.916  0.00  0.00    -0.082 HD
ATOM     25  H   UNL     1       3.055 -10.118   4.581  0.00  0.00    -0.082 HD
BRANCH  22  26
ATOM     26  O   UNL     1       1.474  -9.356   6.461  0.00  0.00    -0.409 OA
ATOM     27  H   UNL     1       2.028 -10.082   6.780  0.00  0.00    +0.207 HD
ENDBRANCH  22  26
ENDBRANCH  17  18
BRANCH  17  28
ATOM     28  C   UNL     1      -0.151  -6.006   2.594  0.00  0.00    +0.134 C 
BRANCH  28  29
ATOM     29  N   UNL     1      -0.942  -7.079   3.211  0.00  0.00    -0.202 NA
ATOM     30  H   UNL     1      -1.365  -6.767   4.072  0.00  0.00    +0.154 HD
BRANCH  29  31
ATOM     31  O   UNL     1      -1.954  -7.584   2.282  0.00  0.00    -0.315 OA
ATOM     32  H   UNL     1      -2.501  -8.294   2.645  0.00  0.00    +0.236 HD
ENDBRANCH  29  31
ENDBRANCH  28  29
ENDBRANCH  17  28
ENDBRANCH   4  17
TORSDOF 9
