REMARK  Name = ZINC02774682
REMARK  8 active torsions:
REMARK  status: ('A' for Active; 'I' for Inactive)
REMARK    1  A    between atoms: C_1  and  C_2
REMARK    2  A    between atoms: C_9  and  N_13
REMARK    3  A    between atoms: C_10  and  C_11
REMARK    4  A    between atoms: N_13  and  C_14
REMARK    5  A    between atoms: C_14  and  N_16
REMARK    6  A    between atoms: C_17  and  C_19
REMARK    7  A    between atoms: C_22  and  C_25
REMARK    8  A    between atoms: C_25  and  N_26
REMARK                            x       y       z     vdW  Elec       q    Type
REMARK                         _______ _______ _______ _____ _____    ______ ____
ROOT
ATOM      1  N   UNL     1       4.794   4.631   5.615  0.00  0.00    -0.264 N 
ATOM      2  C   UNL     1       5.134   4.111   4.419  0.00  0.00    +0.250 C 
ATOM      3  O   UNL     1       6.220   3.585   4.271  0.00  0.00    -0.270 OA
ATOM      4  H   UNL     1       3.811   5.107   5.748  0.00  0.00    +0.157 HD
ENDROOT
BRANCH   2   5
ATOM      5  C   UNL     1       4.186   4.179   3.287  0.00  0.00    +0.037 A 
ATOM      6  C   UNL     1       4.535   3.641   2.047  0.00  0.00    +0.013 A 
ATOM      7  C   UNL     1       3.646   3.709   0.994  0.00  0.00    +0.006 A 
ATOM      8  C   UNL     1       2.411   4.308   1.166  0.00  0.00    -0.026 A 
ATOM      9  C   UNL     1       2.061   4.849   2.390  0.00  0.00    +0.006 A 
ATOM     10  C   UNL     1       2.938   4.783   3.453  0.00  0.00    +0.013 A 
BRANCH   8  11
ATOM     11  C   UNL     1       1.444   4.379   0.011  0.00  0.00    +0.178 C 
BRANCH  11  12
ATOM     12  N   UNL     1       0.594   3.186   0.013  0.00  0.00    -0.266 N 
ATOM     13  C   UNL     1      -0.756   3.174   0.026  0.00  0.00    +0.124 A 
ATOM     14  C   UNL     1      -1.157   1.881   0.017  0.00  0.00    +0.055 A 
ATOM     15  C   UNL     1      -0.013   1.076   0.008  0.00  0.00    +0.149 A 
ATOM     16  N   UNL     1       1.037   1.857   0.002  0.00  0.00    -0.178 NA
ATOM     17 BR   UNL     1      -2.947   1.270   0.021  0.00  0.00    -0.047 Br
ENDBRANCH  11  12
ENDBRANCH   8  11
ENDBRANCH   2   5
BRANCH   1  18
ATOM     18  C   UNL     1       5.658   4.569   6.647  0.00  0.00    +0.141 C 
ATOM     19  S   UNL     1       7.188   3.828   6.439  0.00  0.00    -0.018 S 
BRANCH  18  20
ATOM     20  N   UNL     1       5.319   5.089   7.843  0.00  0.00    -0.290 N 
ATOM     21  H   UNL     1       4.336   5.565   7.976  0.00  0.00    +0.154 HD
BRANCH  20  29
ATOM     22  C   UNL     1      10.576   4.439  13.599  0.00  0.00    +0.008 C 
ATOM     23  C   UNL     1       9.240   4.477  12.854  0.00  0.00    -0.009 C 
ATOM     24  C   UNL     1       8.543   5.816  13.113  0.00  0.00    +0.008 C 
ATOM     25  C   UNL     1       7.109   5.766  12.583  0.00  0.00    +0.037 C 
ATOM     26  C   UNL     1       7.138   5.303  11.132  0.00  0.00    -0.018 A 
ATOM     27  C   UNL     1       8.218   4.669  10.625  0.00  0.00    -0.004 A 
ATOM     28  S   UNL     1       7.797   4.334   8.939  0.00  0.00    -0.077 S 
ATOM     29  C   UNL     1       6.208   5.025   8.905  0.00  0.00    +0.089 A 
ATOM     30  C   UNL     1       6.044   5.504  10.197  0.00  0.00    +0.084 A 
ATOM     31  C   UNL     1       9.487   4.331  11.346  0.00  0.00    +0.046 C 
BRANCH  30  32
ATOM     32  C   UNL     1       4.840   6.168  10.595  0.00  0.00    +0.102 C 
ATOM     33  N   UNL     1       3.884   6.694  10.911  0.00  0.00    -0.191 NA
ENDBRANCH  30  32
ENDBRANCH  20  29
ENDBRANCH  18  20
ENDBRANCH   1  18
TORSDOF 7
