REMARK  Name = ZINC18070730
REMARK  12 active torsions:
REMARK  status: ('A' for Active; 'I' for Inactive)
REMARK    1  A    between atoms: C_1  and  C_2
REMARK    2  A    between atoms: C_2  and  O_3
REMARK    3  A    between atoms: O_3  and  C_4
REMARK    4  A    between atoms: C_7  and  O_10
REMARK    5  A    between atoms: O_10  and  C_11
REMARK    6  A    between atoms: C_11  and  C_13
REMARK    7  A    between atoms: C_11  and  C_14
REMARK    8  A    between atoms: N_16  and  N_17
REMARK    9  A    between atoms: C_18  and  C_20
REMARK   10  A    between atoms: N_25  and  C_27
REMARK   11  A    between atoms: C_31  and  C_34
REMARK   12  A    between atoms: C_32  and  C_33
REMARK                            x       y       z     vdW  Elec       q    Type
REMARK                         _______ _______ _______ _____ _____    ______ ____
ROOT
ATOM      1  N   UNL     1       2.338  -8.171   1.105  0.00  0.00    -0.234 N 
ATOM      2  C   UNL     1       3.457  -8.918   1.191  0.00  0.00    +0.234 C 
ATOM      3  O   UNL     1       4.511  -8.480   0.781  0.00  0.00    -0.274 OA
ATOM      4  H   UNL     1       1.495  -8.521   1.432  0.00  0.00    +0.173 HD
ENDROOT
BRANCH   2   5
ATOM      5  C   UNL     1       3.398 -10.297   1.795  0.00  0.00    +0.103 C 
ATOM      6  C   UNL     1       2.584 -11.259   0.899  0.00  0.00    +0.110 C 
ATOM      7  C   UNL     1       3.625 -11.920   0.022  0.00  0.00    +0.221 C 
ATOM      8  O   UNL     1       3.388 -12.528  -1.000  0.00  0.00    -0.275 OA
ATOM      9  N   UNL     1       4.851 -11.734   0.541  0.00  0.00    -0.270 N 
ATOM     10  C   UNL     1       4.791 -10.963   1.789  0.00  0.00    +0.127 C 
BRANCH   9  11
ATOM     11  C   UNL     1       6.033 -12.213  -0.035  0.00  0.00    +0.039 A 
ATOM     12  C   UNL     1       6.514 -13.470   0.308  0.00  0.00    +0.024 A 
ATOM     13  C   UNL     1       7.678 -13.943  -0.267  0.00  0.00    +0.002 A 
ATOM     14  C   UNL     1       8.370 -13.161  -1.174  0.00  0.00    +0.004 A 
ATOM     15  C   UNL     1       7.896 -11.907  -1.513  0.00  0.00    -0.046 A 
ATOM     16  C   UNL     1       6.730 -11.431  -0.946  0.00  0.00    -0.026 A 
ATOM     17  C   UNL     1       6.215 -10.064  -1.316  0.00  0.00    +0.046 C 
ATOM     18  C   UNL     1       8.653 -11.059  -2.503  0.00  0.00    +0.044 C 
ENDBRANCH   9  11
ENDBRANCH   2   5
BRANCH   1  21
ATOM     19  C   UNL     1       1.275  -6.142   0.457  0.00  0.00    +0.270 C 
ATOM     20  O   UNL     1       0.220  -6.580   0.866  0.00  0.00    -0.270 OA
ATOM     21  N   UNL     1       2.393  -6.889   0.543  0.00  0.00    -0.231 N 
ATOM     22  H   UNL     1       3.237  -6.538   0.216  0.00  0.00    +0.173 HD
BRANCH  19  23
ATOM     23  C   UNL     1       1.334  -4.763  -0.147  0.00  0.00    +0.257 C 
ATOM     24  C   UNL     1       1.705  -4.870  -1.628  0.00  0.00    +0.062 C 
BRANCH  23  25
ATOM     25  O   UNL     1       0.058  -4.132  -0.020  0.00  0.00    -0.480 OA
BRANCH  25  29
ATOM     26  C   UNL     1       0.002  -0.004  -0.005  0.00  0.00    +0.121 A 
ATOM     27  C   UNL     1       1.189  -0.680  -0.243  0.00  0.00    +0.049 A 
ATOM     28  C   UNL     1       1.208  -2.062  -0.244  0.00  0.00    +0.049 A 
ATOM     29  C   UNL     1       0.039  -2.772  -0.016  0.00  0.00    +0.122 A 
ATOM     30  C   UNL     1      -1.149  -2.095   0.218  0.00  0.00    +0.049 A 
ATOM     31  C   UNL     1      -1.167  -0.714   0.223  0.00  0.00    +0.049 A 
BRANCH  26  32
ATOM     32  O   UNL     1      -0.017   1.356   0.001  0.00  0.00    -0.492 OA
BRANCH  32  34
ATOM     33  C   UNL     1       1.007   3.536  -0.197  0.00  0.00    +0.048 C 
ATOM     34  C   UNL     1       1.224   2.022  -0.241  0.00  0.00    +0.225 C 
ENDBRANCH  32  34
ENDBRANCH  26  32
ENDBRANCH  25  29
ENDBRANCH  23  25
ENDBRANCH  19  23
ENDBRANCH   1  21
TORSDOF 8
