REMARK  Name = ZINC27697399
REMARK  10 active torsions:
REMARK  status: ('A' for Active; 'I' for Inactive)
REMARK    1  A    between atoms: C_1  and  C_2
REMARK    2  A    between atoms: N_5  and  C_8
REMARK    3  A    between atoms: C_8  and  C_9
REMARK    4  A    between atoms: C_9  and  C_11
REMARK    5  A    between atoms: C_9  and  O_36
REMARK    6  A    between atoms: C_11  and  N_12
REMARK    7  A    between atoms: C_20  and  C_21
REMARK    8  A    between atoms: C_21  and  C_23
REMARK    9  A    between atoms: C_21  and  S_29
REMARK   10  A    between atoms: S_29  and  C_30
REMARK                            x       y       z     vdW  Elec       q    Type
REMARK                         _______ _______ _______ _____ _____    ______ ____
ROOT
ATOM      1  N   UNL     1      -7.010   1.882   1.258  0.00  0.00    -0.324 N 
ATOM      2  C   UNL     1      -8.220   1.217   1.216  0.00  0.00    +0.069 A 
ATOM      3  C   UNL     1      -9.436   1.383   1.864  0.00  0.00    +0.028 A 
ATOM      4  C   UNL     1     -10.476   0.518   1.596  0.00  0.00    +0.002 A 
ATOM      5  C   UNL     1     -10.313  -0.516   0.684  0.00  0.00    +0.002 A 
ATOM      6  C   UNL     1      -9.123  -0.694   0.038  0.00  0.00    +0.030 A 
ATOM      7  C   UNL     1      -8.056   0.170   0.293  0.00  0.00    +0.089 A 
ATOM      8  N   UNL     1      -6.784   0.252  -0.175  0.00  0.00    -0.231 NA
ATOM      9  C   UNL     1      -6.174   1.255   0.386  0.00  0.00    +0.129 A 
ENDROOT
BRANCH   1  10
ATOM     10  C   UNL     1      -6.688   3.048   2.083  0.00  0.00    +0.153 C 
BRANCH  10  11
ATOM     11  C   UNL     1      -7.024   4.327   1.313  0.00  0.00    +0.118 C 
BRANCH  11  12
ATOM     12  O   UNL     1      -8.435   4.395   1.096  0.00  0.00    -0.392 OA
ATOM     13  H   UNL     1      -8.943   3.602   0.529  0.00  0.00    +0.210 HD
ENDBRANCH  11  12
BRANCH  11  14
ATOM     14  C   UNL     1      -6.573   5.543   2.124  0.00  0.00    -0.045 C 
BRANCH  14  19
ATOM     15  C   UNL     1      -7.012  10.563  -0.574  0.00  0.00    +0.007 C 
ATOM     16  C   UNL     1      -6.467   9.358   0.195  0.00  0.00    -0.018 C 
ATOM     17  C   UNL     1      -6.644   8.091  -0.648  0.00  0.00    -0.016 C 
ATOM     18  C   UNL     1      -6.153   6.881   0.150  0.00  0.00    -0.078 C 
ATOM     19  N   UNL     1      -6.921   6.772   1.398  0.00  0.00    +0.381 N 
ATOM     20  C   UNL     1      -6.729   7.956   2.244  0.00  0.00    -0.078 C 
ATOM     21  C   UNL     1      -7.237   9.198   1.509  0.00  0.00    -0.016 C 
ATOM     22  H   UNL     1      -7.987   6.719   1.131  0.00  0.00    -0.082 HD
ENDBRANCH  14  19
ENDBRANCH  11  14
ENDBRANCH  10  11
ENDBRANCH   1  10
BRANCH   9  23
ATOM     23  C   UNL     1      -4.748   1.659   0.116  0.00  0.00    +0.147 C 
BRANCH  23  24
ATOM     24  C   UNL     1      -4.665   2.343  -1.225  0.00  0.00    -0.027 A 
ATOM     25  C   UNL     1      -5.038   1.665  -2.370  0.00  0.00    +0.005 A 
ATOM     26  C   UNL     1      -4.966   2.293  -3.599  0.00  0.00    +0.000 A 
ATOM     27  C   UNL     1      -4.513   3.596  -3.684  0.00  0.00    +0.000 A 
ATOM     28  C   UNL     1      -4.135   4.273  -2.539  0.00  0.00    +0.000 A 
ATOM     29  C   UNL     1      -4.211   3.646  -1.310  0.00  0.00    +0.005 A 
ENDBRANCH  23  24
BRANCH  23  30
ATOM     30  S   UNL     1      -3.692   0.184   0.109  0.00  0.00    -0.109 S 
BRANCH  30  31
ATOM     31  C   UNL     1      -2.062   0.828  -0.068  0.00  0.00    +0.009 A 
ATOM     32  C   UNL     1      -0.973  -0.034  -0.113  0.00  0.00    +0.015 A 
ATOM     33  C   UNL     1       0.303   0.473  -0.257  0.00  0.00    +0.001 A 
ATOM     34  C   UNL     1       0.499   1.839  -0.352  0.00  0.00    +0.000 A 
ATOM     35  C   UNL     1      -0.582   2.701  -0.303  0.00  0.00    +0.001 A 
ATOM     36  C   UNL     1      -1.861   2.200  -0.159  0.00  0.00    +0.015 A 
ENDBRANCH  30  31
ENDBRANCH  23  30
ENDBRANCH   9  23
TORSDOF 9
