REMARK  Name = ZINC13139223
REMARK  12 active torsions:
REMARK  status: ('A' for Active; 'I' for Inactive)
REMARK    1  A    between atoms: C_1  and  C_2
REMARK    2  A    between atoms: C_4  and  C_23
REMARK    3  A    between atoms: C_7  and  C_13
REMARK    4  A    between atoms: N_11  and  O_12
REMARK    5  A    between atoms: C_15  and  O_21
REMARK    6  A    between atoms: C_18  and  O_19
REMARK    7  A    between atoms: O_19  and  C_20
REMARK    8  A    between atoms: O_21  and  C_22
REMARK    9  A    between atoms: C_25  and  O_31
REMARK   10  A    between atoms: C_28  and  O_29
REMARK   11  A    between atoms: O_29  and  C_30
REMARK   12  A    between atoms: O_31  and  C_32
REMARK                            x       y       z     vdW  Elec       q    Type
REMARK                         _______ _______ _______ _____ _____    ______ ____
ROOT
ATOM      1  C   UNL     1       0.041   1.445   0.152  0.00  0.00    +0.016 C 
ATOM      2  C   UNL     1       0.046  -0.081   0.049  0.00  0.00    +0.055 C 
ATOM      3  C   UNL     1       0.620  -0.505  -1.308  0.00  0.00    +0.096 C 
ATOM      4  N   UNL     1       0.767  -1.966  -1.341  0.00  0.00    -0.301 NA
ATOM      5  C   UNL     1       1.766  -2.429  -0.370  0.00  0.00    +0.094 C 
ATOM      6  C   UNL     1       1.270  -2.136   1.051  0.00  0.00    +0.078 C 
ATOM      7  C   UNL     1       0.922  -0.664   1.138  0.00  0.00    +0.064 C 
ATOM      8  N   UNL     1       1.354   0.062   2.098  0.00  0.00    -0.096 NA
ATOM      9  H   UNL     1      -0.121  -2.422  -1.192  0.00  0.00    +0.123 HD
ENDROOT
BRANCH   5  10
ATOM     10  C   UNL     1       1.976  -3.913  -0.533  0.00  0.00    +0.015 A 
ATOM     11  C   UNL     1       1.020  -4.679  -1.173  0.00  0.00    +0.054 A 
ATOM     12  C   UNL     1       1.213  -6.044  -1.323  0.00  0.00    +0.121 A 
ATOM     13  C   UNL     1       2.365  -6.640  -0.831  0.00  0.00    +0.049 A 
ATOM     14  C   UNL     1       3.320  -5.874  -0.192  0.00  0.00    +0.049 A 
ATOM     15  C   UNL     1       3.130  -4.508  -0.046  0.00  0.00    +0.125 A 
BRANCH  15  16
ATOM     16  O   UNL     1       4.072  -3.753   0.579  0.00  0.00    -0.495 OA
ATOM     17  C   UNL     1       5.236  -4.432   1.055  0.00  0.00    +0.277 C 
ENDBRANCH  15  16
BRANCH  12  18
ATOM     18  O   UNL     1       0.273  -6.798  -1.952  0.00  0.00    -0.495 OA
ATOM     19  C   UNL     1       0.537  -8.197  -2.072  0.00  0.00    +0.277 C 
ENDBRANCH  12  18
ENDBRANCH   5  10
BRANCH   3  20
ATOM     20  C   UNL     1       1.967   0.140  -1.508  0.00  0.00    +0.015 A 
ATOM     21  C   UNL     1       2.637   0.688  -0.432  0.00  0.00    +0.054 A 
ATOM     22  C   UNL     1       3.876   1.282  -0.616  0.00  0.00    +0.121 A 
ATOM     23  C   UNL     1       4.444   1.326  -1.881  0.00  0.00    +0.049 A 
ATOM     24  C   UNL     1       3.774   0.778  -2.958  0.00  0.00    +0.049 A 
ATOM     25  C   UNL     1       2.536   0.179  -2.772  0.00  0.00    +0.125 A 
BRANCH  25  26
ATOM     26  O   UNL     1       1.879  -0.365  -3.831  0.00  0.00    -0.495 OA
ATOM     27  C   UNL     1       2.524  -0.290  -5.104  0.00  0.00    +0.277 C 
ENDBRANCH  25  26
BRANCH  22  28
ATOM     28  O   UNL     1       4.536   1.822   0.444  0.00  0.00    -0.495 OA
ATOM     29  C   UNL     1       5.808   2.417   0.181  0.00  0.00    +0.277 C 
ENDBRANCH  22  28
ENDBRANCH   3  20
BRANCH   8  30
ATOM     30  O   UNL     1       2.172  -0.508   3.104  0.00  0.00    -0.409 OA
ATOM     31  H   UNL     1       2.449   0.118   3.787  0.00  0.00    +0.328 HD
ENDBRANCH   8  30
TORSDOF 7
