REMARK  Name = ZINC32050413
REMARK  7 active torsions:
REMARK  status: ('A' for Active; 'I' for Inactive)
REMARK    1  A    between atoms: C_1  and  C_2
REMARK    2  A    between atoms: C_2  and  C_3
REMARK    3  A    between atoms: N_9  and  C_10
REMARK    4  A    between atoms: C_10  and  C_12
REMARK    5  A    between atoms: C_10  and  C_14
REMARK    6  A    between atoms: C_12  and  N_13
REMARK    7  A    between atoms: C_19  and  O_20
REMARK                            x       y       z     vdW  Elec       q    Type
REMARK                         _______ _______ _______ _____ _____    ______ ____
ROOT
ATOM      1  C   UNL     1       2.418   1.122  -0.940  0.00  0.00    +0.073 C 
ENDROOT
BRANCH   1   2
ATOM      2  C   UNL     1       2.630   1.447   0.516  0.00  0.00    +0.011 A 
ATOM      3  C   UNL     1       2.255   0.540   1.489  0.00  0.00    +0.028 A 
ATOM      4  C   UNL     1       2.449   0.838   2.825  0.00  0.00    +0.042 A 
ATOM      5  C   UNL     1       3.019   2.045   3.191  0.00  0.00    +0.023 A 
ATOM      6  C   UNL     1       3.395   2.954   2.222  0.00  0.00    +0.047 A 
ATOM      7  C   UNL     1       3.206   2.655   0.880  0.00  0.00    +0.122 A 
ATOM      8 CL   UNL     1       1.977  -0.302   4.046  0.00  0.00    -0.084 Cl
BRANCH   7   9
ATOM      9  O   UNL     1       3.581   3.546  -0.075  0.00  0.00    -0.506 OA
ATOM     10  H   UNL     1       2.889   4.176  -0.319  0.00  0.00    +0.292 HD
ENDBRANCH   7   9
ENDBRANCH   1   2
BRANCH   1  16
ATOM     11  C   UNL     1       0.382  -0.185  -1.033  0.00  0.00    +0.057 C 
ATOM     12  C   UNL     1      -0.171  -1.612  -1.016  0.00  0.00    +0.019 C 
ATOM     13  C   UNL     1       0.312  -2.356  -2.264  0.00  0.00    +0.003 C 
ATOM     14  C   UNL     1       1.843  -2.344  -2.296  0.00  0.00    +0.015 C 
ATOM     15  C   UNL     1       2.337  -0.895  -2.276  0.00  0.00    +0.085 C 
ATOM     16  N   UNL     1       1.849  -0.227  -1.063  0.00  0.00    -0.294 NA
BRANCH  11  18
ATOM     17  C   UNL     1      -1.596   0.769   0.159  0.00  0.00    +0.005 C 
ATOM     18  C   UNL     1      -0.082   0.556   0.222  0.00  0.00    +0.015 C 
ENDBRANCH  11  18
ENDBRANCH   1  16
BRANCH   1  19
ATOM     19  C   UNL     1       1.454   2.139  -1.555  0.00  0.00    -0.062 C 
BRANCH  19  20
ATOM     20  N   UNL     1       1.289   1.854  -2.986  0.00  0.00    +0.379 N 
ATOM     21  H   UNL     1       2.195   1.833  -3.432  0.00  0.00    -0.090 HD
ATOM     22  H   UNL     1       0.838   0.959  -3.102  0.00  0.00    -0.090 HD
ATOM     23  H   UNL     1       0.723   2.574  -3.410  0.00  0.00    -0.090 HD
ENDBRANCH  19  20
ENDBRANCH   1  19
TORSDOF 6
