REMARK  Name = ZINC22577369
REMARK  6 active torsions:
REMARK  status: ('A' for Active; 'I' for Inactive)
REMARK    1  A    between atoms: C_1  and  N_2
REMARK    2  A    between atoms: N_5  and  C_8
REMARK    3  A    between atoms: C_8  and  C_10
REMARK    4  A    between atoms: C_8  and  C_17
REMARK    5  A    between atoms: C_18  and  O_30
REMARK    6  A    between atoms: C_23  and  C_25
REMARK                            x       y       z     vdW  Elec       q    Type
REMARK                         _______ _______ _______ _____ _____    ______ ____
ROOT
ATOM      1  C   UNL     1       1.453  -3.974  -0.034  0.00  0.00    +0.132 C 
ENDROOT
BRANCH   1   6
ATOM      2  C   UNL     1      -0.018   1.465   0.010  0.00  0.00    -0.096 C 
ATOM      3  N   UNL     1       0.002  -0.004   0.002  0.00  0.00    +0.379 N 
ATOM      4  C   UNL     1       0.688  -0.477  -1.207  0.00  0.00    -0.064 C 
ATOM      5  C   UNL     1       0.693  -2.008  -1.226  0.00  0.00    +0.067 C 
ATOM      6  N   UNL     1       1.378  -2.507  -0.025  0.00  0.00    -0.294 NA
ATOM      7  C   UNL     1       0.717  -2.021   1.194  0.00  0.00    +0.067 C 
ATOM      8  C   UNL     1       0.713  -0.490   1.192  0.00  0.00    -0.064 C 
ATOM      9  H   UNL     1      -0.945  -0.353   0.010  0.00  0.00    -0.082 HD
ENDBRANCH   1   6
BRANCH   1  10
ATOM     10  C   UNL     1       2.215  -4.431  -1.251  0.00  0.00    +0.076 A 
ATOM     11  C   UNL     1       1.840  -5.284  -2.211  0.00  0.00    +0.228 A 
ATOM     12  N   UNL     1       2.682  -5.580  -3.255  0.00  0.00    -0.173 N 
ATOM     13  C   UNL     1       3.905  -4.967  -3.263  0.00  0.00    +0.200 A 
ATOM     14  S   UNL     1       3.853  -3.969  -1.794  0.00  0.00    -0.047 S 
ATOM     15  N   UNL     1       4.581  -5.348  -4.310  0.00  0.00    -0.197 NA
ATOM     16  C   UNL     1       3.846  -6.212  -5.022  0.00  0.00    +0.218 A 
ATOM     17  N   UNL     1       2.687  -6.385  -4.424  0.00  0.00    -0.138 NA
BRANCH  16  18
ATOM     18  C   UNL     1       4.268  -6.866  -6.279  0.00  0.00    +0.173 A 
ATOM     19  C   UNL     1       5.465  -6.699  -6.901  0.00  0.00    +0.053 A 
ATOM     20  C   UNL     1       5.438  -7.507  -8.056  0.00  0.00    +0.042 A 
ATOM     21  C   UNL     1       4.239  -8.121  -8.080  0.00  0.00    +0.196 A 
ATOM     22  O   UNL     1       3.537  -7.736  -7.002  0.00  0.00    -0.460 OA
ENDBRANCH  16  18
BRANCH  11  23
ATOM     23  O   UNL     1       0.611  -5.865  -2.152  0.00  0.00    -0.492 OA
ATOM     24  H   UNL     1       0.424  -6.467  -2.886  0.00  0.00    +0.294 HD
ENDBRANCH  11  23
ENDBRANCH   1  10
BRANCH   1  25
ATOM     25  C   UNL     1       2.161  -4.448   1.209  0.00  0.00    +0.010 A 
ATOM     26  C   UNL     1       2.966  -3.578   1.921  0.00  0.00    +0.008 A 
ATOM     27  C   UNL     1       3.615  -4.013   3.061  0.00  0.00    +0.000 A 
ATOM     28  C   UNL     1       3.461  -5.318   3.491  0.00  0.00    +0.003 A 
ATOM     29  C   UNL     1       2.657  -6.189   2.781  0.00  0.00    +0.039 A 
ATOM     30  C   UNL     1       2.001  -5.753   1.642  0.00  0.00    +0.128 A 
ATOM     31  F   UNL     1       1.211  -6.603   0.950  0.00  0.00    -0.205 F 
ENDBRANCH   1  25
TORSDOF 5
