REMARK  Name = ZINC39683902
REMARK  8 active torsions:
REMARK  status: ('A' for Active; 'I' for Inactive)
REMARK    1  A    between atoms: C_1  and  C_2
REMARK    2  A    between atoms: C_3  and  C_15
REMARK    3  A    between atoms: C_4  and  C_7
REMARK    4  A    between atoms: C_19  and  C_28
REMARK    5  A    between atoms: N_30  and  C_31
REMARK    6  A    between atoms: C_31  and  C_33
REMARK    7  A    between atoms: C_31  and  C_34
REMARK    8  A    between atoms: N_36  and  C_37
REMARK                            x       y       z     vdW  Elec       q    Type
REMARK                         _______ _______ _______ _____ _____    ______ ____
ROOT
ATOM      1  C   UNL     1      -2.579  -0.090   0.853  0.00  0.00    +0.252 C 
ATOM      2  O   UNL     1      -3.410   0.104  -0.014  0.00  0.00    -0.270 OA
ATOM      3  N   UNL     1      -2.890   0.130   2.146  0.00  0.00    -0.296 N 
ATOM      4  C   UNL     1      -2.054  -0.137   3.339  0.00  0.00    +0.121 C 
ATOM      5  C   UNL     1      -2.312   1.066   4.274  0.00  0.00    +0.100 C 
ATOM      6  C   UNL     1      -3.688   1.606   3.848  0.00  0.00    -0.004 C 
ATOM      7  C   UNL     1      -4.144   0.701   2.694  0.00  0.00    +0.115 C 
ATOM      8  C   UNL     1      -3.562   3.047   3.361  0.00  0.00    -0.010 C 
ATOM      9  C   UNL     1      -4.950   3.581   2.997  0.00  0.00    -0.082 C 
ATOM     10  N   UNL     1      -5.826   3.514   4.173  0.00  0.00    +0.379 N 
ATOM     11  C   UNL     1      -6.016   2.116   4.577  0.00  0.00    -0.082 C 
ATOM     12  C   UNL     1      -4.673   1.521   5.009  0.00  0.00    -0.010 C 
ATOM     13  H   UNL     1      -5.406   4.029   4.932  0.00  0.00    -0.086 HD
ATOM     14  H   UNL     1      -6.721   3.923   3.947  0.00  0.00    -0.086 HD
ENDROOT
BRANCH   1  17
ATOM     15  C   UNL     1      -0.209   1.692  -0.134  0.00  0.00    +0.090 C 
ATOM     16  C   UNL     1      -0.189   0.198   0.059  0.00  0.00    +0.147 A 
ATOM     17  C   UNL     1      -1.234  -0.566   0.490  0.00  0.00    +0.106 A 
ATOM     18  C   UNL     1      -0.756  -1.957   0.523  0.00  0.00    +0.128 A 
ATOM     19  N   UNL     1       0.491  -1.941   0.127  0.00  0.00    -0.077 NA
ATOM     20  O   UNL     1       0.852  -0.607  -0.170  0.00  0.00    -0.359 OA
BRANCH  18  21
ATOM     21  C   UNL     1      -1.538  -3.149   0.929  0.00  0.00    +0.041 A 
ATOM     22  C   UNL     1      -2.705  -3.488   0.243  0.00  0.00    +0.052 A 
ATOM     23  C   UNL     1      -3.429  -4.601   0.626  0.00  0.00    +0.021 A 
ATOM     24  C   UNL     1      -3.000  -5.378   1.686  0.00  0.00    +0.003 A 
ATOM     25  C   UNL     1      -1.844  -5.047   2.370  0.00  0.00    +0.021 A 
ATOM     26  C   UNL     1      -1.108  -3.941   1.994  0.00  0.00    +0.052 A 
ATOM     27 CL   UNL     1       0.346  -3.531   2.849  0.00  0.00    -0.083 Cl
ATOM     28 CL   UNL     1      -3.246  -2.513  -1.087  0.00  0.00    -0.083 Cl
ENDBRANCH  18  21
ENDBRANCH   1  17
BRANCH   5  29
ATOM     29  C   UNL     1      -1.250   2.117   4.083  0.00  0.00    +0.219 C 
ATOM     30  O   UNL     1      -0.772   2.303   2.984  0.00  0.00    -0.275 OA
ATOM     31  N   UNL     1      -0.832   2.852   5.132  0.00  0.00    -0.304 N 
ATOM     32  H   UNL     1      -1.215   2.704   6.011  0.00  0.00    +0.149 HD
BRANCH  31  33
ATOM     33  C   UNL     1       0.201   3.874   4.946  0.00  0.00    +0.156 C 
ATOM     34  C   UNL     1      -0.451   5.178   4.481  0.00  0.00    +0.038 C 
BRANCH  33  35
ATOM     35  C   UNL     1       0.917   4.109   6.251  0.00  0.00    +0.233 C 
ATOM     36  O   UNL     1       0.596   3.483   7.239  0.00  0.00    -0.274 OA
ATOM     37  N   UNL     1       1.913   5.013   6.320  0.00  0.00    -0.317 N 
ATOM     38  C   UNL     1       2.610   5.241   7.588  0.00  0.00    +0.128 C 
ATOM     39  H   UNL     1       2.170   5.514   5.529  0.00  0.00    +0.148 HD
ENDBRANCH  33  35
ENDBRANCH  31  33
ENDBRANCH   5  29
TORSDOF 5
