REMARK  Name = ZINC46845482
REMARK  10 active torsions:
REMARK  status: ('A' for Active; 'I' for Inactive)
REMARK    1  A    between atoms: C_1  and  C_2
REMARK    2  A    between atoms: N_8  and  C_9
REMARK    3  A    between atoms: C_9  and  C_10
REMARK    4  A    between atoms: C_15  and  C_16
REMARK    5  A    between atoms: C_16  and  N_17
REMARK    6  A    between atoms: C_18  and  C_20
REMARK    7  A    between atoms: C_23  and  N_29
REMARK    8  A    between atoms: C_24  and  N_26
REMARK    9  A    between atoms: N_29  and  C_30
REMARK   10  A    between atoms: N_29  and  C_31
REMARK                            x       y       z     vdW  Elec       q    Type
REMARK                         _______ _______ _______ _____ _____    ______ ____
ROOT
ATOM      1  C   UNL     1       3.281  -2.538   1.215  0.00  0.00    +0.140 C 
ENDROOT
BRANCH   1   7
ATOM      2  C   UNL     1       2.526  -0.328   2.116  0.00  0.00    -0.059 A 
ATOM      3  C   UNL     1       2.426   0.595   3.140  0.00  0.00    +0.002 A 
ATOM      4  C   UNL     1       2.979   0.320   4.376  0.00  0.00    +0.000 A 
ATOM      5  C   UNL     1       3.634  -0.880   4.588  0.00  0.00    +0.000 A 
ATOM      6  C   UNL     1       3.734  -1.803   3.565  0.00  0.00    +0.005 A 
ATOM      7  C   UNL     1       3.176  -1.529   2.330  0.00  0.00    -0.029 A 
BRANCH   2   8
ATOM      8  C   UNL     1       1.923  -0.027   0.768  0.00  0.00    -0.042 C 
BRANCH   8  15
ATOM      9  C   UNL     1       1.772  -0.650  -1.965  0.00  0.00    -0.013 C 
ATOM     10  C   UNL     1       2.401   0.657  -1.479  0.00  0.00    -0.071 C 
ATOM     11  C   UNL     1       3.505   1.083  -2.448  0.00  0.00    -0.016 C 
ATOM     12  C   UNL     1       4.131   2.391  -1.957  0.00  0.00    -0.003 C 
ATOM     13  C   UNL     1       4.655   2.192  -0.532  0.00  0.00    -0.019 C 
ATOM     14  C   UNL     1       3.507   1.725   0.366  0.00  0.00    -0.078 C 
ATOM     15  N   UNL     1       2.970   0.457  -0.141  0.00  0.00    +0.384 N 
ATOM     16  H   UNL     1       3.711  -0.226  -0.191  0.00  0.00    -0.081 HD
ENDBRANCH   8  15
ENDBRANCH   2   8
ENDBRANCH   1   7
BRANCH   1  17
ATOM     17  N   UNL     1       4.392  -2.176   0.331  0.00  0.00    -0.307 N 
ATOM     18  C   UNL     1       4.610  -2.878  -0.799  0.00  0.00    +0.244 C 
ATOM     19  O   UNL     1       3.885  -3.811  -1.085  0.00  0.00    -0.270 OA
ATOM     20  H   UNL     1       4.970  -1.432   0.559  0.00  0.00    +0.149 HD
BRANCH  18  21
ATOM     21  C   UNL     1       5.729  -2.513  -1.688  0.00  0.00    +0.039 A 
ATOM     22  C   UNL     1       6.567  -1.444  -1.358  0.00  0.00    +0.015 A 
ATOM     23  C   UNL     1       7.610  -1.107  -2.190  0.00  0.00    +0.026 A 
ATOM     24  C   UNL     1       7.831  -1.829  -3.360  0.00  0.00    +0.060 A 
ATOM     25  C   UNL     1       6.997  -2.894  -3.692  0.00  0.00    +0.148 A 
ATOM     26  C   UNL     1       5.957  -3.240  -2.861  0.00  0.00    +0.047 A 
BRANCH  25  27
ATOM     27  N   UNL     1       7.235  -3.658  -4.937  0.00  0.00    +0.058 N 
ATOM     28  O   UNL     1       6.512  -4.583  -5.226  0.00  0.00    -0.126 OA
ATOM     29  O   UNL     1       8.152  -3.357  -5.665  0.00  0.00    -0.126 OA
ENDBRANCH  25  27
BRANCH  24  30
ATOM     30  N   UNL     1       8.885  -1.486  -4.199  0.00  0.00    -0.334 N 
ATOM     31  C   UNL     1      10.202  -2.097  -4.007  0.00  0.00    +0.129 C 
ATOM     32  C   UNL     1       8.679  -0.512  -5.274  0.00  0.00    +0.129 C 
ENDBRANCH  24  30
ENDBRANCH  18  21
ENDBRANCH   1  17
TORSDOF 7
