REMARK  Name = ZINC27105034
REMARK  9 active torsions:
REMARK  status: ('A' for Active; 'I' for Inactive)
REMARK    1  A    between atoms: C_1  and  C_2
REMARK    2  A    between atoms: C_7  and  N_12
REMARK    3  A    between atoms: C_9  and  C_11
REMARK    4  A    between atoms: C_13  and  C_15
REMARK    5  A    between atoms: C_15  and  C_17
REMARK    6  A    between atoms: C_15  and  N_18
REMARK    7  A    between atoms: N_21  and  C_24
REMARK    8  A    between atoms: C_25  and  C_34
REMARK    9  A    between atoms: C_27  and  C_29
REMARK                            x       y       z     vdW  Elec       q    Type
REMARK                         _______ _______ _______ _____ _____    ______ ____
ROOT
ATOM      1  N   UNL     1       3.148  -5.641   3.342  0.00  0.00    -0.289 NA
ATOM      2  C   UNL     1       3.864  -6.083   4.546  0.00  0.00    +0.104 C 
ATOM      3  C   UNL     1       4.539  -7.431   4.270  0.00  0.00    +0.123 C 
ATOM      4  N   UNL     1       3.521  -8.369   3.772  0.00  0.00    -0.297 N 
ATOM      5  C   UNL     1       2.670  -7.941   2.652  0.00  0.00    +0.123 C 
ATOM      6  C   UNL     1       2.069  -6.573   2.991  0.00  0.00    +0.104 C 
ENDROOT
BRANCH   4   7
ATOM      7  C   UNL     1       3.370  -9.615   4.340  0.00  0.00    +0.228 A 
ATOM      8  C   UNL     1       4.005 -10.784   3.951  0.00  0.00    +0.201 A 
ATOM      9  N   UNL     1       3.566 -11.768   4.780  0.00  0.00    -0.194 NA
ATOM     10  C   UNL     1       2.714 -11.249   5.630  0.00  0.00    +0.266 A 
ATOM     11  O   UNL     1       2.581  -9.931   5.384  0.00  0.00    -0.417 OA
BRANCH  10  12
ATOM     12  C   UNL     1       2.016 -11.989   6.690  0.00  0.00    +0.189 A 
ATOM     13  C   UNL     1       2.148 -13.320   6.958  0.00  0.00    +0.055 A 
ATOM     14  C   UNL     1       1.301 -13.599   8.047  0.00  0.00    +0.042 A 
ATOM     15  C   UNL     1       0.699 -12.442   8.388  0.00  0.00    +0.196 A 
ATOM     16  O   UNL     1       1.137 -11.471   7.571  0.00  0.00    -0.458 OA
ENDBRANCH  10  12
BRANCH   8  17
ATOM     17  C   UNL     1       4.945 -10.928   2.880  0.00  0.00    +0.124 C 
ATOM     18  N   UNL     1       5.691 -11.042   2.030  0.00  0.00    -0.189 NA
ENDBRANCH   8  17
ENDBRANCH   4   7
BRANCH   1  19
ATOM     19  C   UNL     1       2.632  -4.276   3.507  0.00  0.00    +0.140 C 
ATOM     20  C   UNL     1       1.388  -4.305   4.396  0.00  0.00    +0.034 C 
BRANCH  19  22
ATOM     21  N   UNL     1       2.060  -2.384   2.019  0.00  0.00    -0.311 N 
ATOM     22  C   UNL     1       2.272  -3.708   2.158  0.00  0.00    +0.230 C 
ATOM     23  O   UNL     1       2.174  -4.442   1.198  0.00  0.00    -0.274 OA
ATOM     24  H   UNL     1       2.139  -1.797   2.787  0.00  0.00    +0.149 HD
BRANCH  21  30
ATOM     25  C   UNL     1       2.169   1.688  -0.782  0.00  0.00    +0.008 C 
ATOM     26  C   UNL     1       1.757   0.216  -0.722  0.00  0.00    -0.009 C 
ATOM     27  C   UNL     1       0.247   0.100  -0.938  0.00  0.00    +0.003 C 
ATOM     28  C   UNL     1      -0.165  -1.372  -0.878  0.00  0.00    +0.002 C 
ATOM     29  C   UNL     1       0.200  -1.948   0.492  0.00  0.00    +0.022 C 
ATOM     30  C   UNL     1       1.710  -1.832   0.708  0.00  0.00    +0.076 C 
ATOM     31  C   UNL     1       2.123  -0.360   0.647  0.00  0.00    +0.009 C 
ATOM     32  C   UNL     1       1.390   0.420   1.741  0.00  0.00    +0.009 C 
ENDBRANCH  21  30
ENDBRANCH  19  22
ENDBRANCH   1  19
TORSDOF 6
