REMARK  Name = ZINC09420420
REMARK  7 active torsions:
REMARK  status: ('A' for Active; 'I' for Inactive)
REMARK    1  A    between atoms: C_1  and  C_2
REMARK    2  A    between atoms: C_2  and  C_4
REMARK    3  A    between atoms: C_2  and  C_19
REMARK    4  A    between atoms: N_21  and  C_22
REMARK    5  A    between atoms: C_22  and  C_23
REMARK    6  A    between atoms: C_23  and  C_25
REMARK    7  A    between atoms: C_23  and  O_31
REMARK                            x       y       z     vdW  Elec       q    Type
REMARK                         _______ _______ _______ _____ _____    ______ ____
ROOT
ATOM      1  C   UNL     1       0.380   4.164  -1.228  0.00  0.00    +0.022 C 
ATOM      2  C   UNL     1       1.120   3.657   0.011  0.00  0.00    +0.102 C 
ENDROOT
BRANCH   2   3
ATOM      3  C   UNL     1       2.534   4.179   0.000  0.00  0.00    -0.034 A 
ATOM      4  C   UNL     1       3.377   3.858  -1.052  0.00  0.00    +0.005 A 
ATOM      5  C   UNL     1       4.671   4.329  -1.074  0.00  0.00    +0.011 A 
ATOM      6  C   UNL     1       5.133   5.132  -0.033  0.00  0.00    +0.007 A 
ATOM      7  C   UNL     1       6.425   5.785   0.249  0.00  0.00    +0.009 A 
ATOM      8  C   UNL     1       7.642   5.832  -0.426  0.00  0.00    +0.030 A 
ATOM      9  C   UNL     1       8.694   6.548   0.107  0.00  0.00    +0.042 A 
ATOM     10  C   UNL     1       8.542   7.219   1.312  0.00  0.00    +0.022 A 
ATOM     11  C   UNL     1       7.343   7.180   1.990  0.00  0.00    +0.027 A 
ATOM     12  C   UNL     1       6.270   6.463   1.467  0.00  0.00    +0.048 A 
ATOM     13  N   UNL     1       4.980   6.255   1.922  0.00  0.00    -0.354 N 
ATOM     14  H   UNL     1       4.617   6.617   2.745  0.00  0.00    +0.166 HD
ATOM     15  C   UNL     1       4.281   5.457   1.033  0.00  0.00    +0.048 A 
ATOM     16  C   UNL     1       2.975   4.976   1.034  0.00  0.00    +0.030 A 
ATOM     17 CL   UNL     1      10.212   6.609  -0.732  0.00  0.00    -0.084 Cl
ENDBRANCH   2   3
BRANCH   2  18
ATOM     18  C   UNL     1       1.140   2.151   0.003  0.00  0.00    +0.220 C 
ATOM     19  O   UNL     1       2.199   1.558  -0.011  0.00  0.00    -0.275 OA
ATOM     20  N   UNL     1      -0.018   1.461   0.010  0.00  0.00    -0.312 N 
ATOM     21  H   UNL     1      -0.864   1.934   0.017  0.00  0.00    +0.149 HD
BRANCH  20  22
ATOM     22  C   UNL     1       0.002  -0.004   0.002  0.00  0.00    +0.140 C 
BRANCH  22  23
ATOM     23  C   UNL     1      -1.433  -0.534   0.013  0.00  0.00    +0.162 C 
BRANCH  23  24
ATOM     24  C   UNL     1      -1.414  -2.036   0.129  0.00  0.00    -0.018 A 
ATOM     25  C   UNL     1      -1.178  -2.812  -0.991  0.00  0.00    +0.006 A 
ATOM     26  C   UNL     1      -1.155  -4.190  -0.884  0.00  0.00    +0.000 A 
ATOM     27  C   UNL     1      -1.378  -4.792   0.340  0.00  0.00    +0.000 A 
ATOM     28  C   UNL     1      -1.619  -4.016   1.459  0.00  0.00    +0.000 A 
ATOM     29  C   UNL     1      -1.637  -2.638   1.353  0.00  0.00    +0.006 A 
ENDBRANCH  23  24
BRANCH  23  30
ATOM     30  O   UNL     1      -2.089  -0.158  -1.200  0.00  0.00    -0.386 OA
ATOM     31  H   UNL     1      -1.665  -0.500  -1.999  0.00  0.00    +0.210 HD
ENDBRANCH  23  30
ENDBRANCH  22  23
ENDBRANCH  20  22
ENDBRANCH   2  18
TORSDOF 6
