REMARK  Name = ZINC57615556
REMARK  9 active torsions:
REMARK  status: ('A' for Active; 'I' for Inactive)
REMARK    1  A    between atoms: C_1  and  C_2
REMARK    2  A    between atoms: C_2  and  C_3
REMARK    3  A    between atoms: C_2  and  C_4
REMARK    4  A    between atoms: C_4  and  C_6
REMARK    5  A    between atoms: C_4  and  N_16
REMARK    6  A    between atoms: C_17  and  C_19
REMARK    7  A    between atoms: C_22  and  S_25
REMARK    8  A    between atoms: S_25  and  N_28
REMARK    9  A    between atoms: N_28  and  C_29
REMARK                            x       y       z     vdW  Elec       q    Type
REMARK                         _______ _______ _______ _____ _____    ______ ____
ROOT
ATOM      1  N   UNL     1      -5.811   0.893   1.188  0.00  0.00    -0.301 N 
ATOM      2  C   UNL     1      -6.424   1.973   0.664  0.00  0.00    +0.245 C 
ATOM      3  O   UNL     1      -7.092   2.698   1.376  0.00  0.00    -0.270 OA
ATOM      4  H   UNL     1      -5.278   0.315   0.621  0.00  0.00    +0.150 HD
ENDROOT
BRANCH   2   5
ATOM      5  C   UNL     1      -6.285   2.276  -0.776  0.00  0.00    +0.037 A 
ATOM      6  C   UNL     1      -5.524   1.443  -1.597  0.00  0.00    +0.015 A 
ATOM      7  C   UNL     1      -5.398   1.731  -2.940  0.00  0.00    +0.029 A 
ATOM      8  C   UNL     1      -6.024   2.843  -3.474  0.00  0.00    +0.109 A 
ATOM      9  C   UNL     1      -6.780   3.674  -2.665  0.00  0.00    +0.029 A 
ATOM     10  C   UNL     1      -6.918   3.393  -1.322  0.00  0.00    +0.015 A 
BRANCH   8  11
ATOM     11  S   UNL     1      -5.858   3.204  -5.190  0.00  0.00    +0.072 S 
ATOM     12  O   UNL     1      -5.963   4.615  -5.321  0.00  0.00    -0.150 OA
ATOM     13  O   UNL     1      -4.726   2.479  -5.650  0.00  0.00    -0.150 OA
BRANCH  11  14
ATOM     14  N   UNL     1      -7.177   2.559  -5.956  0.00  0.00    -0.216 N 
ATOM     15  H   UNL     1      -7.800   3.139  -6.420  0.00  0.00    +0.174 HD
BRANCH  14  16
ATOM     16  C   UNL     1      -7.391   1.179  -5.935  0.00  0.00    +0.048 A 
ATOM     17  C   UNL     1      -6.618   0.342  -6.730  0.00  0.00    +0.024 A 
ATOM     18  C   UNL     1      -6.832  -1.022  -6.705  0.00  0.00    +0.002 A 
ATOM     19  C   UNL     1      -7.814  -1.556  -5.891  0.00  0.00    +0.000 A 
ATOM     20  C   UNL     1      -8.585  -0.725  -5.099  0.00  0.00    +0.002 A 
ATOM     21  C   UNL     1      -8.373   0.639  -5.114  0.00  0.00    +0.024 A 
ENDBRANCH  14  16
ENDBRANCH  11  14
ENDBRANCH   8  11
ENDBRANCH   2   5
BRANCH   1  22
ATOM     22  C   UNL     1      -5.949   0.593   2.616  0.00  0.00    +0.142 C 
BRANCH  22  23
ATOM     23  C   UNL     1      -5.736  -0.881   2.842  0.00  0.00    +0.129 A 
ATOM     24  N   UNL     1      -6.687  -1.747   3.285  0.00  0.00    -0.340 N 
ATOM     25  H   UNL     1      -7.605  -1.528   3.508  0.00  0.00    +0.167 HD
ATOM     26  C   UNL     1      -6.103  -2.996   3.360  0.00  0.00    +0.066 A 
ATOM     27  C   UNL     1      -6.554  -4.254   3.736  0.00  0.00    +0.028 A 
ATOM     28  C   UNL     1      -5.692  -5.329   3.697  0.00  0.00    +0.002 A 
ATOM     29  C   UNL     1      -4.377  -5.161   3.284  0.00  0.00    +0.002 A 
ATOM     30  C   UNL     1      -3.916  -3.931   2.911  0.00  0.00    +0.030 A 
ATOM     31  C   UNL     1      -4.772  -2.827   2.942  0.00  0.00    +0.089 A 
ATOM     32  N   UNL     1      -4.617  -1.513   2.636  0.00  0.00    -0.231 NA
ENDBRANCH  22  23
BRANCH  22  34
ATOM     33  C   UNL     1      -5.124   2.883   3.177  0.00  0.00    +0.009 C 
ATOM     34  C   UNL     1      -4.907   1.386   3.407  0.00  0.00    +0.011 C 
ATOM     35  C   UNL     1      -5.051   1.073   4.897  0.00  0.00    +0.009 C 
ENDBRANCH  22  34
ENDBRANCH   1  22
TORSDOF 7
