REMARK  Name = ZINC64137660
REMARK  8 active torsions:
REMARK  status: ('A' for Active; 'I' for Inactive)
REMARK    1  A    between atoms: C_1  and  C_2
REMARK    2  A    between atoms: C_5  and  N_8
REMARK    3  A    between atoms: C_9  and  C_11
REMARK    4  A    between atoms: C_11  and  S_12
REMARK    5  A    between atoms: S_12  and  C_13
REMARK    6  A    between atoms: C_17  and  C_25
REMARK    7  A    between atoms: N_18  and  C_19
REMARK    8  A    between atoms: C_19  and  C_20
REMARK                            x       y       z     vdW  Elec       q    Type
REMARK                         _______ _______ _______ _____ _____    ______ ____
ROOT
ATOM      1  C   UNL     1      -2.254  -3.061   7.776  0.00  0.00    +0.237 C 
ATOM      2  N   UNL     1      -3.610  -3.081   7.203  0.00  0.00    -0.237 N 
ATOM      3  N   UNL     1      -4.054  -1.753   7.185  0.00  0.00    -0.169 NA
ATOM      4  C   UNL     1      -3.149  -0.944   7.668  0.00  0.00    +0.147 C 
ATOM      5  N   UNL     1      -2.000  -1.640   8.065  0.00  0.00    -0.278 N 
ATOM      6  H   UNL     1      -4.100  -3.860   6.898  0.00  0.00    +0.171 HD
ENDROOT
BRANCH   4   7
ATOM      7  C   UNL     1      -3.307   0.446   7.777  0.00  0.00    +0.022 C 
ATOM      8  C   UNL     1      -4.457   1.188   7.503  0.00  0.00    +0.006 A 
ATOM      9  C   UNL     1      -5.745   0.821   7.059  0.00  0.00    +0.010 A 
ATOM     10  C   UNL     1      -6.691   1.776   6.873  0.00  0.00    +0.001 A 
ATOM     11  C   UNL     1      -6.424   3.126   7.110  0.00  0.00    +0.002 A 
ATOM     12  C   UNL     1      -5.209   3.551   7.537  0.00  0.00    +0.026 A 
ATOM     13  C   UNL     1      -4.170   2.610   7.754  0.00  0.00    +0.043 A 
ATOM     14  N   UNL     1      -2.925   2.764   8.161  0.00  0.00    -0.380 N 
ATOM     15  C   UNL     1      -2.270   1.453   8.223  0.00  0.00    +0.152 C 
ATOM     16  H   UNL     1      -2.509   3.610   8.387  0.00  0.00    +0.160 HD
ENDBRANCH   4   7
BRANCH   1  17
ATOM     17  S   UNL     1      -1.049  -3.689   6.575  0.00  0.00    -0.109 S 
BRANCH  17  18
ATOM     18  C   UNL     1      -1.268  -2.615   5.130  0.00  0.00    +0.168 C 
BRANCH  18  20
ATOM     19  N   UNL     1      -0.297  -2.375   2.868  0.00  0.00    -0.312 N 
ATOM     20  C   UNL     1      -0.313  -3.035   4.043  0.00  0.00    +0.223 C 
ATOM     21  O   UNL     1       0.441  -3.967   4.224  0.00  0.00    -0.275 OA
ATOM     22  H   UNL     1      -0.900  -1.629   2.722  0.00  0.00    +0.149 HD
BRANCH  19  27
ATOM     23  C   UNL     1       1.093   1.352   0.619  0.00  0.00    +0.007 C 
ATOM     24  C   UNL     1       1.262  -0.169   0.648  0.00  0.00    -0.014 C 
ATOM     25  C   UNL     1      -0.095  -0.838   0.421  0.00  0.00    +0.005 C 
ATOM     26  C   UNL     1       0.075  -2.358   0.451  0.00  0.00    +0.022 C 
ATOM     27  C   UNL     1       0.632  -2.783   1.811  0.00  0.00    +0.073 C 
ATOM     28  C   UNL     1       1.989  -2.114   2.038  0.00  0.00    +0.022 C 
ATOM     29  C   UNL     1       1.819  -0.594   2.008  0.00  0.00    +0.005 C 
ENDBRANCH  19  27
ENDBRANCH  18  20
ENDBRANCH  17  18
ENDBRANCH   1  17
BRANCH   5  30
ATOM     30  C   UNL     1      -0.785  -1.069   8.651  0.00  0.00    +0.183 C 
BRANCH  30  31
ATOM     31  C   UNL     1      -0.870  -1.141  10.153  0.00  0.00    +0.122 A 
ATOM     32  C   UNL     1      -0.531  -2.201  10.910  0.00  0.00    +0.046 A 
ATOM     33  C   UNL     1      -0.767  -1.835  12.255  0.00  0.00    +0.041 A 
ATOM     34  C   UNL     1      -1.236  -0.574  12.240  0.00  0.00    +0.195 A 
ATOM     35  O   UNL     1      -1.290  -0.157  10.965  0.00  0.00    -0.466 OA
ENDBRANCH  30  31
ENDBRANCH   5  30
TORSDOF 7
