REMARK  Name = ZINC39836305
REMARK  12 active torsions:
REMARK  status: ('A' for Active; 'I' for Inactive)
REMARK    1  A    between atoms: C_1  and  C_2
REMARK    2  A    between atoms: C_9  and  N_22
REMARK    3  A    between atoms: C_10  and  C_11
REMARK    4  A    between atoms: N_13  and  C_14
REMARK    5  A    between atoms: C_23  and  C_25
REMARK    6  A    between atoms: C_25  and  C_27
REMARK    7  A    between atoms: C_25  and  O_28
REMARK    8  A    between atoms: O_28  and  C_29
REMARK    9  A    between atoms: C_32  and  C_35
REMARK   10  A    between atoms: C_35  and  C_36
REMARK   11  A    between atoms: C_35  and  C_37
REMARK   12  A    between atoms: C_35  and  C_38
REMARK                            x       y       z     vdW  Elec       q    Type
REMARK                         _______ _______ _______ _____ _____    ______ ____
ROOT
ATOM      1  C   UNL     1       1.118   1.159  -1.090  0.00  0.00    +0.008 C 
ATOM      2  C   UNL     1       0.940  -0.350  -0.908  0.00  0.00    -0.009 C 
ATOM      3  C   UNL     1      -0.552  -0.686  -0.832  0.00  0.00    +0.008 C 
ATOM      4  C   UNL     1      -0.749  -2.202  -0.898  0.00  0.00    +0.037 C 
ATOM      5  C   UNL     1       0.138  -2.854   0.153  0.00  0.00    -0.023 A 
ATOM      6  C   UNL     1       1.178  -2.192   0.704  0.00  0.00    -0.004 A 
ATOM      7  S   UNL     1       1.887  -3.341   1.846  0.00  0.00    -0.077 S 
ATOM      8  C   UNL     1       0.860  -4.649   1.613  0.00  0.00    +0.085 A 
ATOM      9  C   UNL     1      -0.037  -4.207   0.653  0.00  0.00    +0.069 A 
ATOM     10  C   UNL     1       1.619  -0.794   0.397  0.00  0.00    +0.046 C 
ENDROOT
BRANCH   9  11
ATOM     11  C   UNL     1      -1.118  -5.069   0.164  0.00  0.00    +0.247 C 
ATOM     12  O   UNL     1      -0.932  -5.789  -0.799  0.00  0.00    -0.270 OA
ATOM     13  N   UNL     1      -2.317  -5.062   0.780  0.00  0.00    -0.307 N 
ATOM     14  H   UNL     1      -2.464  -4.488   1.547  0.00  0.00    +0.149 HD
BRANCH  13  15
ATOM     15  C   UNL     1      -3.396  -5.923   0.291  0.00  0.00    +0.096 C 
ATOM     16  C   UNL     1      -3.258  -7.321   0.916  0.00  0.00    +0.046 C 
ATOM     17  C   UNL     1      -4.569  -8.109   0.637  0.00  0.00    +0.168 C 
ATOM     18  S   UNL     1      -5.823  -6.788   0.918  0.00  0.00    -0.029 S 
ATOM     19  O   UNL     1      -6.249  -6.836   2.272  0.00  0.00    -0.174 OA
ATOM     20  O   UNL     1      -6.790  -6.839  -0.122  0.00  0.00    -0.174 OA
ATOM     21  C   UNL     1      -4.761  -5.306   0.678  0.00  0.00    +0.188 C 
ENDBRANCH  13  15
ENDBRANCH   9  11
BRANCH   8  22
ATOM     22  N   UNL     1       0.900  -5.886   2.237  0.00  0.00    -0.276 N 
ATOM     23  C   UNL     1       1.851  -6.147   3.156  0.00  0.00    +0.258 C 
ATOM     24  O   UNL     1       2.672  -5.300   3.436  0.00  0.00    -0.271 OA
ATOM     25  H   UNL     1       0.243  -6.564   2.013  0.00  0.00    +0.155 HD
BRANCH  23  26
ATOM     26  C   UNL     1       1.894  -7.492   3.834  0.00  0.00    +0.256 C 
ATOM     27  C   UNL     1       2.209  -8.575   2.800  0.00  0.00    +0.062 C 
BRANCH  26  28
ATOM     28  O   UNL     1       2.909  -7.485   4.841  0.00  0.00    -0.480 OA
BRANCH  28  29
ATOM     29  C   UNL     1       2.764  -8.363   5.868  0.00  0.00    +0.122 A 
ATOM     30  C   UNL     1       3.646  -8.331   6.938  0.00  0.00    +0.046 A 
ATOM     31  C   UNL     1       3.497  -9.224   7.982  0.00  0.00    +0.008 A 
ATOM     32  C   UNL     1       2.470 -10.150   7.960  0.00  0.00    -0.042 A 
ATOM     33  C   UNL     1       1.590 -10.184   6.894  0.00  0.00    +0.008 A 
ATOM     34  C   UNL     1       1.731  -9.289   5.851  0.00  0.00    +0.046 A 
BRANCH  32  35
ATOM     35  C   UNL     1       2.310 -11.123   9.099  0.00  0.00    -0.013 C 
ATOM     36  C   UNL     1       2.086 -10.352  10.401  0.00  0.00    +0.015 C 
ATOM     37  C   UNL     1       1.107 -12.030   8.830  0.00  0.00    +0.015 C 
ATOM     38  C   UNL     1       3.574 -11.976   9.223  0.00  0.00    +0.015 C 
ENDBRANCH  32  35
ENDBRANCH  28  29
ENDBRANCH  26  28
ENDBRANCH  23  26
ENDBRANCH   8  22
TORSDOF 7
