REMARK  Name = ZINC39942861
REMARK  6 active torsions:
REMARK  status: ('A' for Active; 'I' for Inactive)
REMARK    1  A    between atoms: C_1  and  C_2
REMARK    2  A    between atoms: C_2  and  C_25
REMARK    3  A    between atoms: N_3  and  N_4
REMARK    4  A    between atoms: C_5  and  C_7
REMARK    5  A    between atoms: C_9  and  C_13
REMARK    6  A    between atoms: C_28  and  N_31
REMARK                            x       y       z     vdW  Elec       q    Type
REMARK                         _______ _______ _______ _____ _____    ______ ____
ROOT
ATOM      1  C   UNL     1       0.046   0.086   4.786  0.00  0.00    +0.149 A 
ATOM      2  C   UNL     1       0.072  -0.487   6.076  0.00  0.00    +0.062 A 
ATOM      3  C   UNL     1       0.063   0.570   6.945  0.00  0.00    +0.067 A 
ATOM      4  N   UNL     1       0.034   1.703   6.186  0.00  0.00    -0.276 N 
ATOM      5  H   UNL     1       0.022   2.608   6.536  0.00  0.00    +0.189 HD
ATOM      6  N   UNL     1       0.030   1.396   4.939  0.00  0.00    -0.169 NA
ENDROOT
BRANCH   3   7
ATOM      7  C   UNL     1       0.082   0.497   8.420  0.00  0.00    +0.008 A 
ATOM      8  C   UNL     1      -0.656  -0.468   9.094  0.00  0.00    +0.011 A 
ATOM      9  C   UNL     1      -0.657  -0.559  10.483  0.00  0.00    +0.005 A 
ATOM     10  C   UNL     1       0.078   0.309  11.236  0.00  0.00    -0.039 A 
ATOM     11  C   UNL     1       0.824   1.284  10.580  0.00  0.00    -0.011 A 
ATOM     12  C   UNL     1       0.857   1.406   9.180  0.00  0.00    -0.008 A 
ATOM     13  C   UNL     1       1.649   2.421   8.627  0.00  0.00    +0.009 A 
ATOM     14  C   UNL     1       2.354   3.237   9.465  0.00  0.00    +0.001 A 
ATOM     15  C   UNL     1       2.311   3.096  10.854  0.00  0.00    +0.004 A 
ATOM     16  C   UNL     1       1.543   2.126  11.422  0.00  0.00    -0.039 A 
ATOM     17  C   UNL     1       1.267   1.690  12.841  0.00  0.00    +0.040 C 
ATOM     18  C   UNL     1       0.301   0.492  12.718  0.00  0.00    +0.040 C 
ENDBRANCH   3   7
BRANCH   1  20
ATOM     19  N   UNL     1       0.024   0.035   2.340  0.00  0.00    -0.201 N 
ATOM     20  C   UNL     1       0.044  -0.645   3.503  0.00  0.00    +0.283 C 
ATOM     21  O   UNL     1       0.060  -1.861   3.497  0.00  0.00    -0.267 OA
ATOM     22  H   UNL     1       0.011   1.005   2.345  0.00  0.00    +0.178 HD
BRANCH  19  25
ATOM     23  C   UNL     1      -0.018   1.503   0.010  0.00  0.00    +0.068 C 
ATOM     24  C   UNL     1       0.002  -0.004   0.002  0.00  0.00    +0.063 C 
ATOM     25  N   UNL     1       0.022  -0.659   1.123  0.00  0.00    -0.184 NA
BRANCH  24  26
ATOM     26  C   UNL     1      -0.000  -0.734  -1.278  0.00  0.00    -0.002 A 
ATOM     27  C   UNL     1      -0.015  -0.030  -2.486  0.00  0.00    +0.011 A 
ATOM     28  C   UNL     1      -0.017  -0.716  -3.681  0.00  0.00    +0.023 A 
ATOM     29  C   UNL     1      -0.003  -2.107  -3.686  0.00  0.00    +0.025 A 
ATOM     30  C   UNL     1       0.011  -2.811  -2.486  0.00  0.00    +0.023 A 
ATOM     31  C   UNL     1       0.019  -2.132  -1.288  0.00  0.00    +0.011 A 
BRANCH  29  32
ATOM     32  N   UNL     1      -0.005  -2.798  -4.898  0.00  0.00    -0.358 N 
ATOM     33  H   UNL     1      -0.015  -2.308  -5.735  0.00  0.00    +0.142 HD
ATOM     34  H   UNL     1       0.005  -3.768  -4.903  0.00  0.00    +0.142 HD
ENDBRANCH  29  32
ENDBRANCH  24  26
ENDBRANCH  19  25
ENDBRANCH   1  20
TORSDOF 5
