REMARK  Name = ZINC36029898
REMARK  8 active torsions:
REMARK  status: ('A' for Active; 'I' for Inactive)
REMARK    1  A    between atoms: C_1  and  C_2
REMARK    2  A    between atoms: C_2  and  C_3
REMARK    3  A    between atoms: C_3  and  C_5
REMARK    4  A    between atoms: C_3  and  C_6
REMARK    5  A    between atoms: N_10  and  C_29
REMARK    6  A    between atoms: N_15  and  S_18
REMARK    7  A    between atoms: S_18  and  C_21
REMARK    8  A    between atoms: C_29  and  C_30
REMARK                            x       y       z     vdW  Elec       q    Type
REMARK                         _______ _______ _______ _____ _____    ______ ____
ROOT
ATOM      1  C   UNL     1       0.881  -2.563  -0.707  0.00  0.00    +0.022 C 
ATOM      2  C   UNL     1      -0.593  -2.904  -0.716  0.00  0.00    +0.201 C 
ATOM      3  O   UNL     1      -1.407  -2.551   0.112  0.00  0.00    -0.277 OA
ATOM      4  N   UNL     1      -0.850  -3.666  -1.799  0.00  0.00    -0.313 N 
ATOM      5  C   UNL     1       0.389  -3.880  -2.551  0.00  0.00    +0.006 C 
ATOM      6  N   UNL     1       1.347  -2.853  -2.084  0.00  0.00    +0.401 N 
ATOM      7  C   UNL     1       0.136  -3.709  -4.048  0.00  0.00    +0.023 C 
ATOM      8  C   UNL     1      -0.884  -4.753  -4.513  0.00  0.00    +0.109 C 
ATOM      9  N   UNL     1      -0.408  -6.087  -4.121  0.00  0.00    -0.177 NA
ATOM     10  C   UNL     1      -0.066  -6.330  -2.713  0.00  0.00    +0.109 C 
ATOM     11  C   UNL     1       0.948  -5.272  -2.263  0.00  0.00    +0.023 C 
ATOM     12  H   UNL     1       1.292  -2.027  -2.660  0.00  0.00    -0.082 HD
ATOM     13  H   UNL     1       2.287  -3.220  -2.073  0.00  0.00    -0.082 HD
ENDROOT
BRANCH   9  14
ATOM     14  S   UNL     1      -0.260  -7.293  -5.246  0.00  0.00    +0.062 S 
ATOM     15  O   UNL     1      -0.504  -8.516  -4.564  0.00  0.00    -0.153 OA
ATOM     16  O   UNL     1      -1.016  -6.888  -6.378  0.00  0.00    -0.153 OA
BRANCH  14  17
ATOM     17  C   UNL     1       1.427  -7.329  -5.753  0.00  0.00    +0.125 A 
ATOM     18  C   UNL     1       2.224  -8.411  -5.429  0.00  0.00    +0.030 A 
ATOM     19  C   UNL     1       3.548  -8.440  -5.826  0.00  0.00    +0.003 A 
ATOM     20  C   UNL     1       4.077  -7.386  -6.547  0.00  0.00    +0.021 A 
ATOM     21  C   UNL     1       3.281  -6.302  -6.872  0.00  0.00    +0.061 A 
ATOM     22  C   UNL     1       1.953  -6.276  -6.480  0.00  0.00    +0.086 A 
ATOM     23 CL   UNL     1       0.952  -4.920  -6.893  0.00  0.00    -0.080 Cl
ATOM     24 CL   UNL     1       3.945  -4.978  -7.778  0.00  0.00    -0.082 Cl
ENDBRANCH  14  17
ENDBRANCH   9  14
BRANCH   1  25
ATOM     25  C   UNL     1       1.084  -1.083  -0.376  0.00  0.00    -0.020 C 
ATOM     26  C   UNL     1       2.575  -0.745  -0.445  0.00  0.00    +0.006 C 
BRANCH  25  28
ATOM     27  C   UNL     1       0.650   0.702   1.317  0.00  0.00    +0.004 C 
ATOM     28  C   UNL     1       0.562  -0.799   1.034  0.00  0.00    -0.001 C 
ENDBRANCH  25  28
ENDBRANCH   1  25
BRANCH   4  29
ATOM     29  C   UNL     1      -2.165  -4.196  -2.167  0.00  0.00    +0.109 C 
BRANCH  29  30
ATOM     30  C   UNL     1      -2.893  -3.185  -3.055  0.00  0.00    +0.006 C 
ATOM     31  C   UNL     1      -4.187  -2.573  -2.515  0.00  0.00    +0.005 C 
ATOM     32  C   UNL     1      -4.242  -3.604  -3.644  0.00  0.00    +0.005 C 
ENDBRANCH  29  30
ENDBRANCH   4  29
TORSDOF 6
