REMARK  Name = ZINC43408715
REMARK  4 active torsions:
REMARK  status: ('A' for Active; 'I' for Inactive)
REMARK    1  A    between atoms: C_5  and  C_7
REMARK    2  A    between atoms: C_7  and  N_8
REMARK    3  A    between atoms: C_10  and  C_18
REMARK    4  A    between atoms: C_18  and  N_20
REMARK                            x       y       z     vdW  Elec       q    Type
REMARK                         _______ _______ _______ _____ _____    ______ ____
ROOT
ATOM      1  N   UNL     1       1.466  -2.679   1.339  0.00  0.00    -0.324 N 
ATOM      2  C   UNL     1       1.542  -4.040   1.577  0.00  0.00    +0.129 A 
ATOM      3  C   UNL     1       1.901  -4.508   2.853  0.00  0.00    +0.043 A 
ATOM      4  C   UNL     1       1.969  -5.889   3.064  0.00  0.00    +0.019 A 
ATOM      5  C   UNL     1       1.681  -6.736   2.007  0.00  0.00    -0.025 A 
ATOM      6  C   UNL     1       1.335  -6.203   0.778  0.00  0.00    +0.047 A 
ATOM      7  N   UNL     1       1.271  -4.893   0.604  0.00  0.00    -0.236 NA
ATOM      8  C   UNL     1       1.069  -7.327  -0.204  0.00  0.00    +0.056 C 
ATOM      9  C   UNL     1       1.713  -8.579   0.428  0.00  0.00    +0.011 C 
ATOM     10  C   UNL     1       1.673  -8.247   1.935  0.00  0.00    +0.037 C 
ATOM     11  H   UNL     1       1.586  -2.052   2.069  0.00  0.00    +0.148 HD
ENDROOT
BRANCH   3  12
ATOM     12  C   UNL     1       2.198  -3.564   3.944  0.00  0.00    +0.080 C 
ATOM     13  S   UNL     1       3.774  -2.918   4.111  0.00  0.00    -0.035 S 
BRANCH  12  14
ATOM     14  N   UNL     1       1.229  -3.210   4.811  0.00  0.00    -0.352 N 
ATOM     15  H   UNL     1       0.336  -3.576   4.717  0.00  0.00    +0.143 HD
ATOM     16  H   UNL     1       1.425  -2.588   5.530  0.00  0.00    +0.143 HD
ENDBRANCH  12  14
ENDBRANCH   3  12
BRANCH   1  17
ATOM     17  C   UNL     1       1.205  -2.185  -0.015  0.00  0.00    +0.139 C 
BRANCH  17  22
ATOM     18  C   UNL     1      -0.071   1.368   0.022  0.00  0.00    +0.000 A 
ATOM     19  C   UNL     1       1.111   2.086   0.019  0.00  0.00    +0.001 A 
ATOM     20  C   UNL     1       2.323   1.423   0.004  0.00  0.00    +0.015 A 
ATOM     21  C   UNL     1       2.354   0.039  -0.006  0.00  0.00    +0.023 A 
ATOM     22  C   UNL     1       1.172  -0.678  -0.003  0.00  0.00    -0.016 A 
ATOM     23  C   UNL     1      -0.040  -0.014   0.011  0.00  0.00    +0.006 A 
ATOM     24 BR   UNL     1       4.012  -0.869  -0.027  0.00  0.00    -0.050 Br
ENDBRANCH  17  22
ENDBRANCH   1  17
TORSDOF 4
