REMARK  Name = ZINC35667567
REMARK  15 active torsions:
REMARK  status: ('A' for Active; 'I' for Inactive)
REMARK    1  A    between atoms: C_1  and  C_2
REMARK    2  A    between atoms: C_2  and  C_3
REMARK    3  A    between atoms: C_2  and  C_4
REMARK    4  A    between atoms: N_6  and  C_7
REMARK    5  A    between atoms: N_6  and  C_12
REMARK    6  A    between atoms: C_7  and  C_8
REMARK    7  A    between atoms: C_8  and  N_9
REMARK    8  A    between atoms: N_9  and  C_10
REMARK    9  A    between atoms: N_9  and  C_11
REMARK   10  A    between atoms: C_12  and  C_13
REMARK   11  A    between atoms: C_16  and  S_25
REMARK   12  A    between atoms: N_17  and  C_18
REMARK   13  A    between atoms: C_18  and  C_19
REMARK   14  A    between atoms: S_25  and  C_28
REMARK   15  A    between atoms: C_28  and  C_29
REMARK                            x       y       z     vdW  Elec       q    Type
REMARK                         _______ _______ _______ _____ _____    ______ ____
ROOT
ATOM      1  C   UNL     1      -0.886  -2.403  -1.155  0.00  0.00    +0.057 A 
ATOM      2  C   UNL     1      -1.160  -3.643  -1.602  0.00  0.00    +0.137 A 
ATOM      3  N   UNL     1      -2.490  -3.814  -1.563  0.00  0.00    -0.220 NA
ATOM      4  C   UNL     1      -3.050  -2.727  -1.109  0.00  0.00    +0.252 A 
ATOM      5  N   UNL     1      -2.085  -1.823  -0.837  0.00  0.00    -0.307 N 
ENDROOT
BRANCH   4   6
ATOM      6  S   UNL     1      -4.780  -2.481  -0.884  0.00  0.00    +0.034 S 
ATOM      7  O   UNL     1      -4.949  -1.070  -0.885  0.00  0.00    -0.166 OA
ATOM      8  O   UNL     1      -5.394  -3.285  -1.881  0.00  0.00    -0.166 OA
BRANCH   6   9
ATOM      9  C   UNL     1      -5.135  -3.150   0.764  0.00  0.00    +0.210 C 
BRANCH   9  10
ATOM     10  C   UNL     1      -6.616  -3.069   1.032  0.00  0.00    -0.026 A 
ATOM     11  C   UNL     1      -7.151  -1.940   1.623  0.00  0.00    +0.008 A 
ATOM     12  C   UNL     1      -8.509  -1.864   1.868  0.00  0.00    +0.038 A 
ATOM     13  C   UNL     1      -9.334  -2.921   1.521  0.00  0.00    +0.123 A 
ATOM     14  C   UNL     1      -8.798  -4.051   0.928  0.00  0.00    +0.038 A 
ATOM     15  C   UNL     1      -7.440  -4.122   0.680  0.00  0.00    +0.008 A 
ATOM     16  F   UNL     1     -10.662  -2.848   1.760  0.00  0.00    -0.205 F 
ENDBRANCH   9  10
ENDBRANCH   6   9
ENDBRANCH   4   6
BRANCH   1  17
ATOM     17  C   UNL     1       0.478  -1.776  -1.025  0.00  0.00    +0.162 C 
BRANCH  17  20
ATOM     18  C   UNL     1       1.587  -1.809  -3.194  0.00  0.00    +0.218 C 
ATOM     19  O   UNL     1       2.399  -2.273  -3.966  0.00  0.00    -0.275 OA
ATOM     20  N   UNL     1       1.391  -2.388  -1.992  0.00  0.00    -0.297 N 
BRANCH  18  22
ATOM     21  C   UNL     1       1.575   0.218  -4.621  0.00  0.00    +0.017 C 
ATOM     22  C   UNL     1       0.796  -0.586  -3.579  0.00  0.00    +0.069 C 
ATOM     23  C   UNL     1      -0.551  -1.013  -4.166  0.00  0.00    +0.017 C 
ENDBRANCH  18  22
BRANCH  20  24
ATOM     24  C   UNL     1       2.093  -3.629  -1.654  0.00  0.00    +0.089 C 
BRANCH  24  25
ATOM     25  C   UNL     1       3.430  -3.294  -0.990  0.00  0.00    -0.060 C 
BRANCH  25  26
ATOM     26  N   UNL     1       4.133  -4.538  -0.651  0.00  0.00    +0.377 N 
ATOM     27  C   UNL     1       5.466  -4.219  -0.123  0.00  0.00    -0.097 C 
ATOM     28  C   UNL     1       3.367  -5.273   0.365  0.00  0.00    -0.097 C 
ATOM     29  H   UNL     1       4.226  -5.108  -1.478  0.00  0.00    -0.083 HD
ENDBRANCH  25  26
ENDBRANCH  24  25
ENDBRANCH  20  24
ENDBRANCH  17  20
ENDBRANCH   1  17
BRANCH   5  30
ATOM     30  C   UNL     1      -2.283  -0.473  -0.304  0.00  0.00    +0.160 C 
BRANCH  30  31
ATOM     31  C   UNL     1      -2.168  -0.504   1.198  0.00  0.00    -0.028 A 
ATOM     32  C   UNL     1      -3.307  -0.583   1.977  0.00  0.00    +0.005 A 
ATOM     33  C   UNL     1      -3.201  -0.612   3.355  0.00  0.00    +0.000 A 
ATOM     34  C   UNL     1      -1.957  -0.562   3.954  0.00  0.00    +0.000 A 
ATOM     35  C   UNL     1      -0.817  -0.484   3.175  0.00  0.00    +0.000 A 
ATOM     36  C   UNL     1      -0.923  -0.460   1.797  0.00  0.00    +0.005 A 
ENDBRANCH  30  31
ENDBRANCH   5  30
TORSDOF 11
