REMARK  Name = ZINC57337090
REMARK  12 active torsions:
REMARK  status: ('A' for Active; 'I' for Inactive)
REMARK    1  A    between atoms: C_1  and  C_2
REMARK    2  A    between atoms: C_2  and  C_3
REMARK    3  A    between atoms: C_3  and  C_4
REMARK    4  A    between atoms: C_4  and  N_5
REMARK    5  A    between atoms: C_6  and  N_30
REMARK    6  A    between atoms: C_7  and  N_14
REMARK    7  A    between atoms: N_14  and  C_15
REMARK    8  A    between atoms: C_15  and  C_16
REMARK    9  A    between atoms: C_17  and  C_19
REMARK   10  A    between atoms: C_19  and  C_21
REMARK   11  A    between atoms: C_19  and  O_22
REMARK   12  A    between atoms: O_22  and  C_23
REMARK                            x       y       z     vdW  Elec       q    Type
REMARK                         _______ _______ _______ _____ _____    ______ ____
ROOT
ATOM      1  N   UNL     1       3.769  -3.431  -4.091  0.00  0.00    -0.280 N 
ATOM      2  C   UNL     1       2.925  -3.404  -5.176  0.00  0.00    +0.127 A 
ATOM      3  C   UNL     1       1.631  -3.863  -5.035  0.00  0.00    +0.140 A 
ATOM      4  C   UNL     1       1.215  -4.347  -3.780  0.00  0.00    +0.277 A 
ATOM      5  O   UNL     1       0.078  -4.760  -3.627  0.00  0.00    -0.266 OA
ATOM      6  N   UNL     1       2.083  -4.352  -2.749  0.00  0.00    -0.273 N 
ATOM      7  H   UNL     1       1.798  -4.686  -1.884  0.00  0.00    +0.173 HD
ATOM      8  C   UNL     1       3.341  -3.906  -2.907  0.00  0.00    +0.331 A 
ATOM      9  O   UNL     1       4.105  -3.926  -1.961  0.00  0.00    -0.246 OA
ENDROOT
BRANCH   3  10
ATOM     10  N   UNL     1       0.740  -3.848  -6.129  0.00  0.00    -0.261 N 
ATOM     11  C   UNL     1      -0.344  -3.044  -6.105  0.00  0.00    +0.260 C 
ATOM     12  O   UNL     1      -0.598  -2.399  -5.110  0.00  0.00    -0.271 OA
BRANCH  10  13
ATOM     13  C   UNL     1       0.992  -4.704  -7.291  0.00  0.00    +0.110 C 
ATOM     14  C   UNL     1       0.419  -6.098  -7.030  0.00  0.00    +0.025 C 
ENDBRANCH  10  13
BRANCH  11  15
ATOM     15  C   UNL     1      -1.237  -2.948  -7.315  0.00  0.00    +0.256 C 
ATOM     16  C   UNL     1      -0.497  -2.222  -8.440  0.00  0.00    +0.062 C 
BRANCH  15  17
ATOM     17  O   UNL     1      -2.420  -2.221  -6.977  0.00  0.00    -0.480 OA
BRANCH  17  18
ATOM     18  C   UNL     1      -3.520  -2.440  -7.746  0.00  0.00    +0.122 A 
ATOM     19  C   UNL     1      -3.430  -3.245  -8.872  0.00  0.00    +0.048 A 
ATOM     20  C   UNL     1      -4.549  -3.466  -9.652  0.00  0.00    +0.042 A 
ATOM     21  C   UNL     1      -5.758  -2.884  -9.311  0.00  0.00    +0.124 A 
ATOM     22  C   UNL     1      -5.848  -2.080  -8.188  0.00  0.00    +0.042 A 
ATOM     23  C   UNL     1      -4.733  -1.863  -7.402  0.00  0.00    +0.048 A 
ATOM     24  F   UNL     1      -6.850  -3.101 -10.076  0.00  0.00    -0.205 F 
ENDBRANCH  17  18
ENDBRANCH  15  17
ENDBRANCH  11  15
ENDBRANCH   3  10
BRANCH   2  25
ATOM     25  N   UNL     1       3.363  -2.924  -6.387  0.00  0.00    -0.343 N 
ATOM     26  H   UNL     1       4.260  -2.564  -6.470  0.00  0.00    +0.144 HD
ATOM     27  H   UNL     1       2.776  -2.945  -7.159  0.00  0.00    +0.144 HD
ENDBRANCH   2  25
BRANCH   1  28
ATOM     28  C   UNL     1       5.145  -2.947  -4.227  0.00  0.00    +0.128 C 
BRANCH  28  29
ATOM     29  C   UNL     1       6.054  -4.103  -4.650  0.00  0.00    +0.021 C 
BRANCH  29  31
ATOM     30  C   UNL     1       8.399  -4.753  -5.215  0.00  0.00    +0.004 C 
ATOM     31  C   UNL     1       7.491  -3.597  -4.792  0.00  0.00    -0.002 C 
ENDBRANCH  29  31
ENDBRANCH  28  29
ENDBRANCH   1  28
TORSDOF 9
