REMARK  Name = ZINC02303923
REMARK  10 active torsions:
REMARK  status: ('A' for Active; 'I' for Inactive)
REMARK    1  A    between atoms: C_4  and  C_7
REMARK    2  A    between atoms: C_7  and  C_8
REMARK    3  A    between atoms: C_8  and  N_9
REMARK    4  A    between atoms: N_9  and  C_10
REMARK    5  A    between atoms: N_9  and  S_23
REMARK    6  A    between atoms: C_10  and  C_11
REMARK    7  A    between atoms: N_13  and  N_14
REMARK    8  A    between atoms: C_15  and  C_16
REMARK    9  A    between atoms: C_20  and  O_22
REMARK   10  A    between atoms: S_23  and  C_26
REMARK                            x       y       z     vdW  Elec       q    Type
REMARK                         _______ _______ _______ _____ _____    ______ ____
ROOT
ATOM      1  N   UNL     1      -3.825   9.981   0.088  0.00  0.00    -0.167 NA
ENDROOT
BRANCH   1   2
ATOM      2  S   UNL     1      -4.584  10.369  -1.332  0.00  0.00    +0.061 S 
ATOM      3  O   UNL     1      -5.533  11.380  -1.021  0.00  0.00    -0.153 OA
ATOM      4  O   UNL     1      -3.562  10.556  -2.301  0.00  0.00    -0.153 OA
BRANCH   2   5
ATOM      5  C   UNL     1      -5.503   8.953  -1.836  0.00  0.00    +0.106 A 
ATOM      6  C   UNL     1      -4.918   8.005  -2.653  0.00  0.00    +0.029 A 
ATOM      7  C   UNL     1      -5.637   6.891  -3.045  0.00  0.00    +0.017 A 
ATOM      8  C   UNL     1      -6.946   6.731  -2.628  0.00  0.00    +0.018 A 
ATOM      9  C   UNL     1      -7.533   7.684  -1.814  0.00  0.00    +0.017 A 
ATOM     10  C   UNL     1      -6.811   8.794  -1.419  0.00  0.00    +0.029 A 
ATOM     11 BR   UNL     1      -7.932   5.211  -3.169  0.00  0.00    -0.050 Br
ENDBRANCH   2   5
ENDBRANCH   1   2
BRANCH   1  12
ATOM     12  C   UNL     1      -4.543  10.102   1.359  0.00  0.00    +0.114 C 
BRANCH  12  13
ATOM     13  C   UNL     1      -4.235  11.461   1.991  0.00  0.00    +0.052 C 
BRANCH  13  17
ATOM     14  C   UNL     1      -6.328  11.816   5.698  0.00  0.00    +0.000 A 
ATOM     15  C   UNL     1      -5.054  11.279   5.672  0.00  0.00    +0.000 A 
ATOM     16  C   UNL     1      -4.377  11.164   4.473  0.00  0.00    +0.003 A 
ATOM     17  C   UNL     1      -4.973  11.586   3.299  0.00  0.00    -0.046 A 
ATOM     18  C   UNL     1      -6.245  12.127   3.326  0.00  0.00    +0.003 A 
ATOM     19  C   UNL     1      -6.924  12.238   4.525  0.00  0.00    +0.000 A 
ENDBRANCH  13  17
ENDBRANCH  12  13
ENDBRANCH   1  12
BRANCH   1  20
ATOM     20  C   UNL     1      -2.436   9.515   0.073  0.00  0.00    +0.206 C 
BRANCH  20  21
ATOM     21  C   UNL     1      -2.411   8.008   0.065  0.00  0.00    +0.248 C 
ATOM     22  O   UNL     1      -3.452   7.385   0.071  0.00  0.00    -0.273 OA
ATOM     23  N   UNL     1      -1.233   7.354   0.051  0.00  0.00    -0.206 N 
ATOM     24  H   UNL     1      -0.401   7.853   0.045  0.00  0.00    +0.177 HD
BRANCH  23  25
ATOM     25  N   UNL     1      -1.210   5.953   0.043  0.00  0.00    -0.188 NA
ATOM     26  C   UNL     1      -0.076   5.323   0.029  0.00  0.00    +0.138 C 
BRANCH  26  27
ATOM     27  C   UNL     1      -0.051   3.849   0.022  0.00  0.00    -0.002 A 
ATOM     28  C   UNL     1      -1.248   3.127   0.030  0.00  0.00    +0.010 A 
ATOM     29  C   UNL     1      -1.221   1.748   0.017  0.00  0.00    +0.004 A 
ATOM     30  C   UNL     1      -0.013   1.076   0.008  0.00  0.00    +0.045 A 
ATOM     31  C   UNL     1       1.182   1.784   0.000  0.00  0.00    +0.117 A 
ATOM     32  C   UNL     1       1.167   3.168   0.007  0.00  0.00    +0.054 A 
BRANCH  31  33
ATOM     33  O   UNL     1       2.366   1.117  -0.014  0.00  0.00    -0.507 OA
ATOM     34  H   UNL     1       2.700   0.928  -0.902  0.00  0.00    +0.292 HD
ENDBRANCH  31  33
ENDBRANCH  26  27
ENDBRANCH  23  25
ENDBRANCH  20  21
ENDBRANCH   1  20
TORSDOF 10
