REMARK  Name = ZINC00255287
REMARK  6 active torsions:
REMARK  status: ('A' for Active; 'I' for Inactive)
REMARK    1  A    between atoms: C_1  and  C_2
REMARK    2  A    between atoms: C_5  and  C_8
REMARK    3  A    between atoms: C_8  and  C_10
REMARK    4  A    between atoms: C_8  and  C_14
REMARK    5  A    between atoms: C_10  and  N_11
REMARK    6  A    between atoms: C_15  and  C_24
REMARK                            x       y       z     vdW  Elec       q    Type
REMARK                         _______ _______ _______ _____ _____    ______ ____
ROOT
ATOM      1  C   UNL     1       1.703   3.987   0.110  0.00  0.00    +0.077 C 
ENDROOT
BRANCH   1   2
ATOM      2  C   UNL     1       0.289   3.467   0.066  0.00  0.00    -0.010 A 
ATOM      3  C   UNL     1      -0.789   4.036   0.627  0.00  0.00    +0.018 A 
ATOM      4  N   UNL     1      -1.901   3.277   0.377  0.00  0.00    -0.358 N 
ATOM      5  H   UNL     1      -2.798   3.486   0.681  0.00  0.00    +0.166 HD
ATOM      6  C   UNL     1      -1.554   2.170  -0.364  0.00  0.00    +0.047 A 
ATOM      7  C   UNL     1      -0.168   2.243  -0.597  0.00  0.00    +0.004 A 
ATOM      8  C   UNL     1       0.468   1.244  -1.335  0.00  0.00    +0.010 A 
ATOM      9  C   UNL     1      -0.259   0.192  -1.820  0.00  0.00    +0.001 A 
ATOM     10  C   UNL     1      -1.626   0.117  -1.597  0.00  0.00    +0.002 A 
ATOM     11  C   UNL     1      -2.275   1.096  -0.875  0.00  0.00    +0.026 A 
ATOM     12  C   UNL     1      -0.779   5.321   1.414  0.00  0.00    +0.063 C 
ENDBRANCH   1   2
BRANCH   1  17
ATOM     13  C   UNL     1       4.793   0.851   3.852  0.00  0.00    +0.044 C 
ATOM     14  C   UNL     1       3.988   1.669   2.876  0.00  0.00    -0.050 A 
ATOM     15  C   UNL     1       3.702   2.993   3.154  0.00  0.00    +0.003 A 
ATOM     16  C   UNL     1       2.963   3.743   2.259  0.00  0.00    +0.004 A 
ATOM     17  C   UNL     1       2.509   3.170   1.086  0.00  0.00    -0.038 A 
ATOM     18  C   UNL     1       2.790   1.845   0.810  0.00  0.00    +0.004 A 
ATOM     19  C   UNL     1       3.534   1.096   1.703  0.00  0.00    +0.003 A 
ENDBRANCH   1  17
BRANCH   1  20
ATOM     20  C   UNL     1       2.328   3.883  -1.282  0.00  0.00    +0.224 C 
BRANCH  20  21
ATOM     21  N   UNL     1       1.406   4.440  -2.275  0.00  0.00    +0.023 N 
ATOM     22  O   UNL     1       0.937   5.552  -2.114  0.00  0.00    -0.132 OA
ATOM     23  O   UNL     1       1.108   3.790  -3.261  0.00  0.00    -0.132 OA
ENDBRANCH  20  21
ENDBRANCH   1  20
TORSDOF 4
