REMARK  Name = ZINC06082959
REMARK  12 active torsions:
REMARK  status: ('A' for Active; 'I' for Inactive)
REMARK    1  A    between atoms: C_1  and  C_2
REMARK    2  A    between atoms: C_6  and  C_29
REMARK    3  A    between atoms: C_7  and  O_8
REMARK    4  A    between atoms: O_8  and  C_9
REMARK    5  A    between atoms: C_9  and  C_10
REMARK    6  A    between atoms: C_10  and  C_12
REMARK    7  A    between atoms: C_10  and  O_28
REMARK    8  A    between atoms: C_12  and  N_13
REMARK    9  A    between atoms: N_13  and  C_14
REMARK   10  A    between atoms: N_13  and  C_22
REMARK   11  A    between atoms: C_14  and  C_15
REMARK   12  A    between atoms: C_20  and  O_21
REMARK                            x       y       z     vdW  Elec       q    Type
REMARK                         _______ _______ _______ _____ _____    ______ ____
ROOT
ATOM      1  N   UNL     1      -2.410   2.666   5.999  0.00  0.00    +0.386 N 
ATOM      2  H   UNL     1      -2.258   3.658   6.100  0.00  0.00    -0.081 HD
ENDROOT
BRANCH   1   3
ATOM      3  C   UNL     1      -1.437   1.936   6.824  0.00  0.00    -0.068 C 
ATOM      4  C   UNL     1      -1.791   0.447   6.832  0.00  0.00    -0.015 C 
ATOM      5  C   UNL     1      -0.778  -0.313   7.691  0.00  0.00    -0.002 C 
ATOM      6  C   UNL     1      -0.816   0.228   9.122  0.00  0.00    -0.000 C 
ATOM      7  C   UNL     1      -0.463   1.716   9.114  0.00  0.00    -0.002 C 
ATOM      8  C   UNL     1      -1.475   2.476   8.255  0.00  0.00    -0.015 C 
ENDBRANCH   1   3
BRANCH   1   9
ATOM      9  C   UNL     1      -2.240   2.285   4.590  0.00  0.00    -0.043 C 
BRANCH   9  10
ATOM     10  C   UNL     1      -0.905   2.824   4.073  0.00  0.00    +0.135 C 
BRANCH  10  11
ATOM     11  O   UNL     1       0.169   2.130   4.711  0.00  0.00    -0.390 OA
ATOM     12  H   UNL     1       0.213   1.189   4.492  0.00  0.00    +0.210 HD
ENDBRANCH  10  11
BRANCH  10  13
ATOM     13  C   UNL     1      -0.822   2.614   2.560  0.00  0.00    +0.258 C 
BRANCH  13  14
ATOM     14  O   UNL     1       0.371   3.221   2.060  0.00  0.00    -0.489 OA
BRANCH  14  21
ATOM     15  C   UNL     1      -0.657   5.273   0.412  0.00  0.00    +0.047 C 
ATOM     16  C   UNL     1       0.119   4.102  -0.136  0.00  0.00    -0.009 A 
ATOM     17  C   UNL     1       0.357   4.005  -1.493  0.00  0.00    +0.007 A 
ATOM     18  C   UNL     1       1.068   2.931  -1.996  0.00  0.00    +0.001 A 
ATOM     19  C   UNL     1       1.542   1.952  -1.143  0.00  0.00    +0.007 A 
ATOM     20  C   UNL     1       1.307   2.045   0.215  0.00  0.00    -0.009 A 
ATOM     21  C   UNL     1       0.599   3.124   0.724  0.00  0.00    +0.126 A 
ATOM     22  C   UNL     1       1.825   0.978   1.145  0.00  0.00    +0.047 C 
ENDBRANCH  14  21
ENDBRANCH  13  14
ENDBRANCH  10  13
ENDBRANCH   9  10
ENDBRANCH   1   9
BRANCH   1  23
ATOM     23  C   UNL     1      -3.772   2.331   6.436  0.00  0.00    -0.039 C 
BRANCH  23  24
ATOM     24  C   UNL     1      -4.043   2.976   7.771  0.00  0.00    -0.022 A 
ATOM     25  C   UNL     1      -4.312   2.191   8.876  0.00  0.00    +0.005 A 
ATOM     26  C   UNL     1      -4.562   2.782  10.101  0.00  0.00    +0.000 A 
ATOM     27  C   UNL     1      -4.543   4.159  10.223  0.00  0.00    +0.004 A 
ATOM     28  C   UNL     1      -4.274   4.948   9.122  0.00  0.00    +0.045 A 
ATOM     29  C   UNL     1      -4.018   4.357   7.893  0.00  0.00    +0.118 A 
BRANCH  29  30
ATOM     30  O   UNL     1      -3.748   5.131   6.809  0.00  0.00    -0.507 OA
ATOM     31  H   UNL     1      -4.531   5.388   6.304  0.00  0.00    +0.292 HD
ENDBRANCH  29  30
ENDBRANCH  23  24
ENDBRANCH   1  23
TORSDOF 10
