REMARK  Name = ZINC36805931
REMARK  11 active torsions:
REMARK  status: ('A' for Active; 'I' for Inactive)
REMARK    1  A    between atoms: C_1  and  C_2
REMARK    2  A    between atoms: C_2  and  C_4
REMARK    3  A    between atoms: C_2  and  S_13
REMARK    4  A    between atoms: N_6  and  C_7
REMARK    5  A    between atoms: S_13  and  C_14
REMARK    6  A    between atoms: N_27  and  C_28
REMARK    7  A    between atoms: C_28  and  C_29
REMARK    8  A    between atoms: C_29  and  C_30
REMARK    9  A    between atoms: C_30  and  N_31
REMARK   10  A    between atoms: N_31  and  C_32
REMARK   11  A    between atoms: N_31  and  C_33
REMARK                            x       y       z     vdW  Elec       q    Type
REMARK                         _______ _______ _______ _____ _____    ______ ____
ROOT
ATOM      1  C   UNL     1       2.533  -0.042   1.241  0.00  0.00    +0.173 A 
ATOM      2  N   UNL     1       2.839   0.653   0.164  0.00  0.00    -0.216 NA
ATOM      3  C   UNL     1       4.077   1.089  -0.035  0.00  0.00    +0.117 A 
ATOM      4  C   UNL     1       5.114   0.838   0.878  0.00  0.00    +0.076 A 
ATOM      5  C   UNL     1       6.426   1.382   0.523  0.00  0.00    -0.023 A 
ATOM      6  C   UNL     1       6.510   2.066  -0.636  0.00  0.00    -0.004 A 
ATOM      7  S   UNL     1       4.873   2.027  -1.315  0.00  0.00    -0.073 S 
ATOM      8  C   UNL     1       7.728   2.716  -1.220  0.00  0.00    +0.043 C 
ATOM      9  C   UNL     1       8.799   2.810  -0.124  0.00  0.00    +0.005 C 
ATOM     10  C   UNL     1       8.909   1.452   0.574  0.00  0.00    +0.005 C 
ATOM     11  C   UNL     1       7.654   1.194   1.409  0.00  0.00    +0.037 C 
ATOM     12  C   UNL     1       4.753   0.082   2.038  0.00  0.00    +0.263 A 
ATOM     13  O   UNL     1       5.587  -0.185   2.887  0.00  0.00    -0.267 OA
ATOM     14  N   UNL     1       3.479  -0.327   2.183  0.00  0.00    -0.287 N 
ENDROOT
BRANCH   1  15
ATOM     15  S   UNL     1       0.879  -0.605   1.472  0.00  0.00    -0.075 S 
BRANCH  15  17
ATOM     16  C   UNL     1      -0.019   1.526   0.010  0.00  0.00    +0.029 C 
ATOM     17  C   UNL     1       0.002  -0.004   0.002  0.00  0.00    +0.137 C 
BRANCH  17  18
ATOM     18  C   UNL     1      -1.412  -0.526   0.013  0.00  0.00    +0.226 C 
ATOM     19  O   UNL     1      -1.939  -0.827   1.062  0.00  0.00    -0.275 OA
ATOM     20  N   UNL     1      -2.090  -0.657  -1.144  0.00  0.00    -0.312 N 
ATOM     21  H   UNL     1      -1.669  -0.416  -1.984  0.00  0.00    +0.149 HD
BRANCH  20  22
ATOM     22  C   UNL     1      -3.465  -1.164  -1.134  0.00  0.00    +0.073 C 
ATOM     23  C   UNL     1      -3.444  -2.694  -1.142  0.00  0.00    +0.022 C 
ATOM     24  C   UNL     1      -4.879  -3.224  -1.131  0.00  0.00    +0.002 C 
ATOM     25  C   UNL     1      -5.619  -2.717  -2.371  0.00  0.00    +0.000 C 
ATOM     26  C   UNL     1      -5.640  -1.187  -2.363  0.00  0.00    +0.002 C 
ATOM     27  C   UNL     1      -4.205  -0.657  -2.373  0.00  0.00    +0.022 C 
ENDBRANCH  20  22
ENDBRANCH  17  18
ENDBRANCH  15  17
ENDBRANCH   1  15
BRANCH  14  28
ATOM     28  C   UNL     1       3.101  -1.097   3.370  0.00  0.00    +0.125 C 
BRANCH  28  29
ATOM     29  C   UNL     1       3.290  -2.589   3.092  0.00  0.00    +0.003 C 
BRANCH  29  30
ATOM     30  C   UNL     1       2.895  -3.393   4.333  0.00  0.00    -0.078 C 
BRANCH  30  31
ATOM     31  N   UNL     1       3.076  -4.826   4.066  0.00  0.00    +0.376 N 
ATOM     32  C   UNL     1       4.502  -5.109   3.857  0.00  0.00    -0.097 C 
ATOM     33  C   UNL     1       2.585  -5.604   5.211  0.00  0.00    -0.097 C 
ATOM     34  H   UNL     1       2.558  -5.082   3.239  0.00  0.00    -0.083 HD
ENDBRANCH  30  31
ENDBRANCH  29  30
ENDBRANCH  28  29
ENDBRANCH  14  28
TORSDOF 8
