REMARK  Name = ZINC41304415
REMARK  7 active torsions:
REMARK  status: ('A' for Active; 'I' for Inactive)
REMARK    1  A    between atoms: C_1  and  C_2
REMARK    2  A    between atoms: C_9  and  C_29
REMARK    3  A    between atoms: C_10  and  C_11
REMARK    4  A    between atoms: C_11  and  C_12
REMARK    5  A    between atoms: N_14  and  C_15
REMARK    6  A    between atoms: C_16  and  C_26
REMARK    7  A    between atoms: C_21  and  C_25
REMARK                            x       y       z     vdW  Elec       q    Type
REMARK                         _______ _______ _______ _____ _____    ______ ____
ROOT
ATOM      1  C   UNL     1       1.494  -4.404   3.120  0.00  0.00    +0.223 C 
ATOM      2  O   UNL     1       2.405  -3.644   2.867  0.00  0.00    -0.275 OA
ATOM      3  N   UNL     1       1.759  -5.658   3.537  0.00  0.00    -0.279 N 
ATOM      4  H   UNL     1       1.030  -6.265   3.739  0.00  0.00    +0.155 HD
ENDROOT
BRANCH   3   5
ATOM      5  C   UNL     1       3.072  -6.079   3.678  0.00  0.00    +0.084 A 
ATOM      6  C   UNL     1       3.530  -7.322   4.085  0.00  0.00    +0.068 A 
ATOM      7  C   UNL     1       4.968  -7.512   4.151  0.00  0.00    -0.023 A 
ATOM      8  C   UNL     1       5.686  -6.424   3.797  0.00  0.00    -0.004 A 
ATOM      9  S   UNL     1       4.475  -5.202   3.386  0.00  0.00    -0.077 S 
ATOM     10  C   UNL     1       7.178  -6.303   3.762  0.00  0.00    +0.046 C 
ATOM     11  C   UNL     1       7.776  -7.478   4.550  0.00  0.00    -0.009 C 
ATOM     12  C   UNL     1       7.102  -8.775   4.092  0.00  0.00    +0.008 C 
ATOM     13  C   UNL     1       5.649  -8.805   4.574  0.00  0.00    +0.037 C 
ATOM     14  C   UNL     1       9.280  -7.559   4.286  0.00  0.00    +0.008 C 
BRANCH   6  15
ATOM     15  C   UNL     1       2.600  -8.400   4.436  0.00  0.00    +0.244 C 
ATOM     16  O   UNL     1       2.216  -9.176   3.580  0.00  0.00    -0.270 OA
ATOM     17  N   UNL     1       2.170  -8.532   5.707  0.00  0.00    -0.325 N 
ATOM     18  H   UNL     1       2.476  -7.914   6.389  0.00  0.00    +0.145 HD
ATOM     19  H   UNL     1       1.556  -9.246   5.939  0.00  0.00    +0.145 HD
ENDBRANCH   6  15
ENDBRANCH   3   5
BRANCH   1  20
ATOM     20  C   UNL     1       0.067  -3.946   2.967  0.00  0.00    +0.151 C 
BRANCH  20  30
ATOM     21  C   UNL     1      -0.018   1.503   0.010  0.00  0.00    +0.047 C 
ATOM     22  C   UNL     1       0.002  -0.004   0.002  0.00  0.00    -0.009 A 
ATOM     23  C   UNL     1       0.006  -0.685  -1.176  0.00  0.00    +0.008 A 
ATOM     24  C   UNL     1       0.025  -2.089  -1.168  0.00  0.00    +0.018 A 
ATOM     25  C   UNL     1       0.039  -2.763   0.001  0.00  0.00    +0.093 A 
ATOM     26  N   UNL     1       0.035  -2.093   1.190  0.00  0.00    -0.304 N 
ATOM     27  C   UNL     1       0.023  -0.722   1.214  0.00  0.00    +0.119 A 
ATOM     28  N   UNL     1       0.030  -0.334   2.482  0.00  0.00    -0.343 N 
ATOM     29  C   UNL     1       0.051  -1.412   3.270  0.00  0.00    +0.035 A 
ATOM     30  C   UNL     1       0.046  -2.516   2.491  0.00  0.00    +0.053 A 
ATOM     31  C   UNL     1       0.066  -1.399   4.777  0.00  0.00    +0.065 C 
ATOM     32  H   UNL     1       0.021   0.586   2.788  0.00  0.00    +0.167 HD
ENDBRANCH  20  30
ENDBRANCH   1  20
TORSDOF 4
