REMARK  Name = ZINC60368058
REMARK  11 active torsions:
REMARK  status: ('A' for Active; 'I' for Inactive)
REMARK    1  A    between atoms: C_1  and  C_2
REMARK    2  A    between atoms: C_5  and  N_13
REMARK    3  A    between atoms: C_7  and  O_8
REMARK    4  A    between atoms: O_8  and  C_9
REMARK    5  A    between atoms: C_9  and  C_10
REMARK    6  A    between atoms: N_13  and  C_14
REMARK    7  A    between atoms: C_14  and  C_16
REMARK    8  A    between atoms: C_14  and  C_17
REMARK    9  A    between atoms: N_22  and  C_23
REMARK   10  A    between atoms: C_23  and  C_24
REMARK   11  A    between atoms: C_23  and  C_25
REMARK                            x       y       z     vdW  Elec       q    Type
REMARK                         _______ _______ _______ _____ _____    ______ ____
ROOT
ATOM      1  N   UNL     1       0.059  -4.171  -0.026  0.00  0.00    -0.333 N 
ATOM      2  H   UNL     1       0.070  -4.663   0.810  0.00  0.00    +0.147 HD
ENDROOT
BRANCH   1   7
ATOM      3  C   UNL     1      -0.018   1.503   0.010  0.00  0.00    +0.047 C 
ATOM      4  C   UNL     1       0.002  -0.004   0.002  0.00  0.00    -0.009 A 
ATOM      5  C   UNL     1       0.006  -0.688  -1.199  0.00  0.00    +0.009 A 
ATOM      6  C   UNL     1       0.025  -2.069  -1.211  0.00  0.00    +0.023 A 
ATOM      7  C   UNL     1       0.041  -2.774  -0.014  0.00  0.00    +0.031 A 
ATOM      8  C   UNL     1       0.037  -2.089   1.193  0.00  0.00    +0.068 A 
ATOM      9  C   UNL     1       0.023  -0.703   1.200  0.00  0.00    +0.125 A 
BRANCH   9  10
ATOM     10  O   UNL     1       0.025  -0.030   2.381  0.00  0.00    -0.486 OA
BRANCH  10  11
ATOM     11  C   UNL     1       0.047  -0.814   3.575  0.00  0.00    +0.300 C 
BRANCH  11  12
ATOM     12  C   UNL     1       0.045   0.112   4.793  0.00  0.00    +0.378 C 
ATOM     13  F   UNL     1       1.176   0.935   4.755  0.00  0.00    -0.206 F 
ATOM     14  F   UNL     1      -1.109   0.903   4.776  0.00  0.00    -0.206 F 
ENDBRANCH  11  12
ENDBRANCH  10  11
ENDBRANCH   9  10
ENDBRANCH   1   7
BRANCH   1  15
ATOM     15  C   UNL     1       0.063  -4.893  -1.300  0.00  0.00    +0.154 C 
ATOM     16  C   UNL     1      -1.375  -5.054  -1.799  0.00  0.00    +0.038 C 
BRANCH  15  17
ATOM     17  C   UNL     1       0.683  -6.252  -1.106  0.00  0.00    +0.240 C 
ATOM     18  O   UNL     1       1.082  -6.585  -0.011  0.00  0.00    -0.273 OA
ATOM     19  N   UNL     1       0.793  -7.098  -2.150  0.00  0.00    -0.239 N 
ATOM     20  C   UNL     1       1.348  -8.314  -1.976  0.00  0.00    +0.306 C 
ATOM     21  O   UNL     1       1.748  -8.648  -0.878  0.00  0.00    -0.252 OA
ATOM     22  N   UNL     1       1.458  -9.160  -3.019  0.00  0.00    -0.297 N 
ATOM     23  H   UNL     1       0.473  -6.832  -3.026  0.00  0.00    +0.159 HD
ATOM     24  H   UNL     1       1.138  -8.893  -3.896  0.00  0.00    +0.151 HD
BRANCH  22  25
ATOM     25  C   UNL     1       2.061 -10.482  -2.831  0.00  0.00    +0.068 C 
ATOM     26  C   UNL     1       0.995 -11.462  -2.337  0.00  0.00    +0.027 C 
ATOM     27  C   UNL     1       2.632 -10.976  -4.161  0.00  0.00    +0.027 C 
ENDBRANCH  22  25
ENDBRANCH  15  17
ENDBRANCH   1  15
TORSDOF 7
