REMARK  Name = ZINC08775673
REMARK  6 active torsions:
REMARK  status: ('A' for Active; 'I' for Inactive)
REMARK    1  A    between atoms: C_1  and  C_2
REMARK    2  A    between atoms: C_2  and  N_22
REMARK    3  A    between atoms: C_4  and  C_18
REMARK    4  A    between atoms: N_22  and  C_23
REMARK    5  A    between atoms: C_23  and  C_24
REMARK    6  A    between atoms: C_24  and  C_25
REMARK                            x       y       z     vdW  Elec       q    Type
REMARK                         _______ _______ _______ _____ _____    ______ ____
ROOT
ATOM      1  C   UNL     1       0.066   1.509   0.010  0.00  0.00    +0.061 C 
ATOM      2  C   UNL     1       0.065   0.002  -0.000  0.00  0.00    +0.015 C 
ATOM      3  C   UNL     1       0.157  -0.699   1.190  0.00  0.00    +0.087 C 
ATOM      4  C   UNL     1       0.144  -0.150   2.555  0.00  0.00    +0.176 C 
ATOM      5  N   UNL     1       0.252  -1.147   3.379  0.00  0.00    -0.165 NA
ATOM      6  N   UNL     1       0.341  -2.361   2.697  0.00  0.00    -0.131 N 
ATOM      7  C   UNL     1       0.283  -2.151   1.367  0.00  0.00    +0.276 C 
ATOM      8  O   UNL     1       0.328  -2.995   0.488  0.00  0.00    -0.268 OA
ATOM      9  C   UNL     1       0.466  -3.604   3.301  0.00  0.00    +0.189 A 
ATOM     10  N   UNL     1       0.561  -4.787   2.738  0.00  0.00    -0.223 NA
ATOM     11  C   UNL     1       0.678  -5.924   3.456  0.00  0.00    +0.080 A 
ATOM     12  C   UNL     1       0.788  -7.251   2.977  0.00  0.00    +0.029 A 
ATOM     13  C   UNL     1       0.900  -8.302   3.849  0.00  0.00    +0.002 A 
ATOM     14  C   UNL     1       0.910  -8.107   5.223  0.00  0.00    +0.001 A 
ATOM     15  C   UNL     1       0.805  -6.824   5.726  0.00  0.00    +0.017 A 
ATOM     16  C   UNL     1       0.692  -5.764   4.860  0.00  0.00    +0.041 A 
ATOM     17  S   UNL     1       0.545  -4.003   5.041  0.00  0.00    -0.050 S 
ENDROOT
BRANCH   4  18
ATOM     18  C   UNL     1       0.027   1.305   2.929  0.00  0.00    +0.437 C 
ATOM     19  F   UNL     1       0.199   1.446   4.310  0.00  0.00    -0.164 F 
ATOM     20  F   UNL     1       1.011   2.039   2.259  0.00  0.00    -0.164 F 
ATOM     21  F   UNL     1      -1.238   1.779   2.566  0.00  0.00    -0.164 F 
ENDBRANCH   4  18
BRANCH   2  22
ATOM     22  N   UNL     1      -0.025  -0.665  -1.169  0.00  0.00    -0.346 N 
ATOM     23  H   UNL     1      -0.026  -1.635  -1.176  0.00  0.00    +0.146 HD
BRANCH  22  24
ATOM     24  C   UNL     1      -0.122   0.076  -2.429  0.00  0.00    +0.107 C 
BRANCH  24  25
ATOM     25  C   UNL     1      -0.212  -0.911  -3.595  0.00  0.00    +0.073 C 
BRANCH  25  26
ATOM     26  C   UNL     1      -0.313  -0.148  -4.891  0.00  0.00    +0.035 A 
ATOM     27  C   UNL     1      -1.443   0.339  -5.438  0.00  0.00    +0.105 A 
ATOM     28  N   UNL     1      -1.084   0.957  -6.605  0.00  0.00    -0.352 N 
ATOM     29  H   UNL     1      -1.680   1.406  -7.225  0.00  0.00    +0.166 HD
ATOM     30  C   UNL     1       0.254   0.827  -6.731  0.00  0.00    +0.171 A 
ATOM     31  N   UNL     1       0.709   0.169  -5.700  0.00  0.00    -0.350 N 
ATOM     32  H   UNL     1       1.640  -0.057  -5.545  0.00  0.00    +0.166 HD
ENDBRANCH  25  26
ENDBRANCH  24  25
ENDBRANCH  22  24
ENDBRANCH   2  22
TORSDOF 5
