REMARK  Name = ZINC63296002
REMARK  5 active torsions:
REMARK  status: ('A' for Active; 'I' for Inactive)
REMARK    1  A    between atoms: C_6  and  C_11
REMARK    2  A    between atoms: C_11  and  C_12
REMARK    3  A    between atoms: C_12  and  N_13
REMARK    4  A    between atoms: C_14  and  C_16
REMARK    5  A    between atoms: C_19  and  C_22
REMARK                            x       y       z     vdW  Elec       q    Type
REMARK                         _______ _______ _______ _____ _____    ______ ____
ROOT
ATOM      1  N   UNL     1       5.001  -3.593  -1.505  0.00  0.00    -0.310 N 
ATOM      2  C   UNL     1       5.312  -4.187  -2.674  0.00  0.00    +0.275 C 
ATOM      3  O   UNL     1       5.183  -3.579  -3.716  0.00  0.00    -0.270 OA
ATOM      4  H   UNL     1       5.104  -4.079  -0.672  0.00  0.00    +0.149 HD
ENDROOT
BRANCH   2   5
ATOM      5  C   UNL     1       5.819  -5.606  -2.688  0.00  0.00    +0.378 C 
ATOM      6  N   UNL     1       7.158  -5.678  -2.082  0.00  0.00    -0.282 N 
ATOM      7  C   UNL     1       7.054  -6.508  -0.980  0.00  0.00    +0.168 C 
ATOM      8  N   UNL     1       5.846  -6.944  -0.836  0.00  0.00    -0.066 NA
ATOM      9  O   UNL     1       4.999  -6.439  -1.854  0.00  0.00    -0.360 OA
ATOM     10  H   UNL     1       7.959  -5.230  -2.396  0.00  0.00    +0.152 HD
BRANCH   7  11
ATOM     11  C   UNL     1       8.181  -6.851  -0.083  0.00  0.00    +0.016 C 
ATOM     12  C   UNL     1       7.950  -7.679   0.959  0.00  0.00    +0.015 C 
ATOM     13  C   UNL     1       9.065  -7.961   1.923  0.00  0.00    +0.159 C 
ATOM     14  C   UNL     1      10.372  -7.831   1.163  0.00  0.00    -0.018 C 
ATOM     15  C   UNL     1      11.072  -8.939   1.461  0.00  0.00    +0.025 C 
ATOM     16  C   UNL     1      10.257  -9.823   2.204  0.00  0.00    +0.106 C 
ATOM     17  N   UNL     1       9.084  -9.313   2.461  0.00  0.00    -0.279 NA
ATOM     18  C   UNL     1      10.613  -6.790   0.244  0.00  0.00    +0.007 C 
ATOM     19  C   UNL     1       9.504  -6.283  -0.365  0.00  0.00    +0.011 C 
ENDBRANCH   7  11
ENDBRANCH   2   5
BRANCH   1  20
ATOM     20  C   UNL     1       4.508  -2.214  -1.492  0.00  0.00    +0.109 C 
BRANCH  20  21
ATOM     21  C   UNL     1       4.232  -1.784  -0.050  0.00  0.00    +0.052 C 
BRANCH  21  27
ATOM     22  C   UNL     1      -0.017   1.400   0.010  0.00  0.00    +0.040 A 
ATOM     23  C   UNL     1       1.109   2.144   0.003  0.00  0.00    +0.029 A 
ATOM     24  C   UNL     1       2.386   1.516  -0.013  0.00  0.00    +0.043 A 
ATOM     25  N   UNL     1       3.600   2.010  -0.023  0.00  0.00    -0.380 N 
ATOM     26  C   UNL     1       4.557   0.898  -0.038  0.00  0.00    +0.144 C 
ATOM     27  C   UNL     1       3.725  -0.365  -0.037  0.00  0.00    -0.040 C 
ATOM     28  C   UNL     1       2.434   0.037  -0.021  0.00  0.00    +0.002 A 
ATOM     29  C   UNL     1       1.164  -0.699  -0.013  0.00  0.00    +0.048 A 
ATOM     30  C   UNL     1       0.002  -0.004   0.002  0.00  0.00    +0.124 A 
ATOM     31  F   UNL     1      -1.169  -0.678   0.010  0.00  0.00    -0.205 F 
ATOM     32  H   UNL     1       3.828   2.953  -0.020  0.00  0.00    +0.160 HD
ENDBRANCH  21  27
ENDBRANCH  20  21
ENDBRANCH   1  20
TORSDOF 5
