REMARK  Name = ZINC09327513
REMARK  7 active torsions:
REMARK  status: ('A' for Active; 'I' for Inactive)
REMARK    1  A    between atoms: C_1  and  C_2
REMARK    2  A    between atoms: N_13  and  C_14
REMARK    3  A    between atoms: C_17  and  O_20
REMARK    4  A    between atoms: O_20  and  C_21
REMARK    5  A    between atoms: C_21  and  C_22
REMARK    6  A    between atoms: C_29  and  C_31
REMARK    7  A    between atoms: C_29  and  C_32
REMARK                            x       y       z     vdW  Elec       q    Type
REMARK                         _______ _______ _______ _____ _____    ______ ____
ROOT
ATOM      1  C   UNL     1      -2.503   0.957   0.069  0.00  0.00    +0.044 C 
ATOM      2  C   UNL     1      -1.216   1.742   0.050  0.00  0.00    -0.050 A 
ATOM      3  C   UNL     1      -0.003   1.078   0.046  0.00  0.00    +0.005 A 
ATOM      4  C   UNL     1       1.189   1.780   0.032  0.00  0.00    +0.024 A 
ATOM      5  C   UNL     1       1.167   3.167   0.026  0.00  0.00    +0.036 A 
ATOM      6  C   UNL     1      -0.059   3.832   0.019  0.00  0.00    +0.007 A 
ATOM      7  C   UNL     1      -1.252   3.126   0.042  0.00  0.00    +0.013 A 
ATOM      8  C   UNL     1      -0.073   5.345  -0.036  0.00  0.00    +0.029 A 
ATOM      9  C   UNL     1       1.121   5.952  -0.320  0.00  0.00    +0.030 A 
ATOM     10  S   UNL     1       0.980   7.681  -0.328  0.00  0.00    -0.052 S 
ATOM     11  S   UNL     1      -1.063   7.766   0.113  0.00  0.00    -0.032 S 
ATOM     12  C   UNL     1      -1.315   5.999   0.211  0.00  0.00    +0.117 A 
ATOM     13  N   UNL     1      -2.469   5.396   0.471  0.00  0.00    -0.240 NA
ATOM     14  C   UNL     1       2.407   5.210  -0.612  0.00  0.00    +0.059 C 
ATOM     15  N   UNL     1       2.358   3.899   0.049  0.00  0.00    -0.334 N 
ATOM     16  C   UNL     1       2.556   5.017  -2.122  0.00  0.00    +0.037 C 
ATOM     17  C   UNL     1       3.594   6.011  -0.074  0.00  0.00    +0.037 C 
ATOM     18  H   UNL     1       3.143   3.546   0.496  0.00  0.00    +0.147 HD
ENDROOT
BRANCH  13  19
ATOM     19  C   UNL     1      -3.568   6.137   0.798  0.00  0.00    +0.065 A 
ATOM     20  C   UNL     1      -3.784   6.526   2.124  0.00  0.00    +0.031 A 
ATOM     21  C   UNL     1      -4.893   7.279   2.447  0.00  0.00    +0.048 A 
ATOM     22  C   UNL     1      -5.800   7.641   1.462  0.00  0.00    +0.121 A 
ATOM     23  C   UNL     1      -5.595   7.253   0.145  0.00  0.00    +0.048 A 
ATOM     24  C   UNL     1      -4.486   6.505  -0.191  0.00  0.00    +0.031 A 
BRANCH  22  25
ATOM     25  O   UNL     1      -6.896   8.380   1.787  0.00  0.00    -0.487 OA
BRANCH  25  26
ATOM     26  C   UNL     1      -7.047   8.745   3.160  0.00  0.00    +0.264 C 
BRANCH  26  27
ATOM     27  C   UNL     1      -8.307   9.554   3.329  0.00  0.00    -0.010 A 
ATOM     28  C   UNL     1      -8.266  10.931   3.212  0.00  0.00    +0.008 A 
ATOM     29  C   UNL     1      -9.422  11.672   3.362  0.00  0.00    +0.020 A 
ATOM     30  C   UNL     1     -10.620  11.037   3.639  0.00  0.00    +0.041 A 
ATOM     31  C   UNL     1     -10.660   9.660   3.761  0.00  0.00    +0.020 A 
ATOM     32  C   UNL     1      -9.504   8.919   3.606  0.00  0.00    +0.008 A 
ATOM     33 CL   UNL     1     -12.072  11.969   3.833  0.00  0.00    -0.084 Cl
ENDBRANCH  26  27
ENDBRANCH  25  26
ENDBRANCH  22  25
ENDBRANCH  13  19
TORSDOF 4
