REMARK  Name = ZINC20568305
REMARK  2 active torsions:
REMARK  status: ('A' for Active; 'I' for Inactive)
REMARK    1  A    between atoms: C_1  and  C_2
REMARK    2  A    between atoms: C_2  and  C_26
REMARK                            x       y       z     vdW  Elec       q    Type
REMARK                         _______ _______ _______ _____ _____    ______ ____
ROOT
ATOM      1  C   UNL     1       0.002  -0.004   0.002  0.00  0.00    +0.011 C 
ATOM      2  C   UNL     1      -0.019   1.526   0.010  0.00  0.00    -0.023 C 
ATOM      3  C   UNL     1      -0.753   2.030  -1.237  0.00  0.00    +0.058 C 
ATOM      4  C   UNL     1      -0.846   3.540  -1.152  0.00  0.00    +0.019 C 
ATOM      5  C   UNL     1      -0.845   4.188   0.046  0.00  0.00    +0.037 C 
ATOM      6  C   UNL     1      -0.770   3.528   1.282  0.00  0.00    +0.163 C 
ATOM      7  O   UNL     1      -0.743   4.151   2.325  0.00  0.00    -0.292 OA
ATOM      8  C   UNL     1      -0.728   2.016   1.274  0.00  0.00    +0.086 C 
ATOM      9  C   UNL     1      -0.942   5.649  -0.263  0.00  0.00    +0.148 C 
ATOM     10  C   UNL     1       0.235   6.419   0.263  0.00  0.00    -0.010 A 
ATOM     11  C   UNL     1       1.594   6.314   0.069  0.00  0.00    +0.021 A 
ATOM     12  C   UNL     1       2.456   7.191   0.707  0.00  0.00    +0.018 A 
ATOM     13  C   UNL     1       1.953   8.177   1.540  0.00  0.00    +0.016 A 
ATOM     14  C   UNL     1       0.594   8.290   1.742  0.00  0.00    +0.013 A 
ATOM     15  C   UNL     1      -0.283   7.408   1.103  0.00  0.00    +0.024 A 
ATOM     16  C   UNL     1      -1.755   7.296   1.135  0.00  0.00    +0.162 A 
ATOM     17  C   UNL     1      -2.166   6.274   0.346  0.00  0.00    +0.113 A 
ATOM     18  N   UNL     1      -3.506   6.216   0.414  0.00  0.00    -0.198 NA
ATOM     19  C   UNL     1      -3.929   7.165   1.214  0.00  0.00    +0.286 A 
ATOM     20  O   UNL     1      -2.871   7.850   1.673  0.00  0.00    -0.424 OA
ATOM     21  N   UNL     1      -5.248   7.418   1.531  0.00  0.00    -0.313 N 
ATOM     22 BR   UNL     1       4.322   7.043   0.440  0.00  0.00    -0.050 Br
ATOM     23  C   UNL     1      -0.998   5.699  -1.772  0.00  0.00    +0.238 C 
ATOM     24  O   UNL     1      -1.081   6.689  -2.468  0.00  0.00    -0.274 OA
ATOM     25  N   UNL     1      -0.936   4.416  -2.187  0.00  0.00    -0.287 N 
ATOM     26  C   UNL     1       1.418   2.052  -0.001  0.00  0.00    +0.011 C 
ATOM     27  H   UNL     1      -5.501   8.242   2.215  0.00  0.00    +0.147 HD
ATOM     28  H   UNL     1      -6.046   6.797   1.100  0.00  0.00    +0.147 HD
ATOM     29  H   UNL     1      -0.951   4.045  -3.223  0.00  0.00    +0.155 HD
ENDROOT
TORSDOF 0
