REMARK  Name = ZINC14655550
REMARK  10 active torsions:
REMARK  status: ('A' for Active; 'I' for Inactive)
REMARK    1  A    between atoms: C_1  and  C_2
REMARK    2  A    between atoms: C_2  and  O_3
REMARK    3  A    between atoms: O_3  and  C_4
REMARK    4  A    between atoms: C_9  and  C_10
REMARK    5  A    between atoms: N_12  and  C_13
REMARK    6  A    between atoms: C_13  and  N_15
REMARK    7  A    between atoms: C_21  and  C_23
REMARK    8  A    between atoms: C_23  and  C_24
REMARK    9  A    between atoms: C_24  and  O_26
REMARK   10  A    between atoms: O_26  and  C_27
REMARK                            x       y       z     vdW  Elec       q    Type
REMARK                         _______ _______ _______ _____ _____    ______ ____
ROOT
ATOM      1  N   UNL     1       0.159   3.545   0.066  0.00  0.00    -0.299 N 
ATOM      2  C   UNL     1       1.173   2.796  -0.695  0.00  0.00    +0.126 C 
ATOM      3  C   UNL     1       1.157   1.345  -0.211  0.00  0.00    +0.123 C 
ATOM      4  N   UNL     1      -0.207   0.842  -0.130  0.00  0.00    -0.312 N 
ATOM      5  C   UNL     1      -1.293   1.610  -0.029  0.00  0.00    +0.234 C 
ATOM      6  O   UNL     1      -2.372   1.073   0.106  0.00  0.00    -0.274 OA
ATOM      7  C   UNL     1      -1.241   3.113  -0.068  0.00  0.00    +0.171 C 
ATOM      8  H   UNL     1      -0.336  -0.119  -0.156  0.00  0.00    +0.149 HD
ENDROOT
BRANCH   1   9
ATOM      9  C   UNL     1       0.499   4.585   0.854  0.00  0.00    +0.140 C 
ATOM     10  S   UNL     1       2.144   5.026   1.024  0.00  0.00    -0.018 S 
BRANCH   9  13
ATOM     11  C   UNL     1      -0.127   6.373   2.217  0.00  0.00    +0.253 C 
ATOM     12  O   UNL     1       1.032   6.739   2.269  0.00  0.00    -0.270 OA
ATOM     13  N   UNL     1      -0.456   5.277   1.506  0.00  0.00    -0.264 N 
ATOM     14  H   UNL     1      -1.380   4.986   1.464  0.00  0.00    +0.157 HD
BRANCH  11  20
ATOM     15  C   UNL     1      -0.832   8.268   3.676  0.00  0.00    +0.133 A 
ATOM     16  C   UNL     1      -1.823   8.976   4.340  0.00  0.00    +0.047 A 
ATOM     17  C   UNL     1      -3.136   8.555   4.275  0.00  0.00    +0.019 A 
ATOM     18  C   UNL     1      -3.476   7.427   3.543  0.00  0.00    +0.019 A 
ATOM     19  C   UNL     1      -2.504   6.715   2.873  0.00  0.00    +0.032 A 
ATOM     20  C   UNL     1      -1.171   7.131   2.931  0.00  0.00    +0.080 A 
ATOM     21 BR   UNL     1      -5.279   6.863   3.464  0.00  0.00    -0.050 Br
BRANCH  15  22
ATOM     22  O   UNL     1       0.459   8.679   3.744  0.00  0.00    -0.491 OA
BRANCH  22  24
ATOM     23  C   UNL     1       2.228  10.152   4.480  0.00  0.00    +0.048 C 
ATOM     24  C   UNL     1       0.729   9.846   4.522  0.00  0.00    +0.226 C 
ENDBRANCH  22  24
ENDBRANCH  15  22
ENDBRANCH  11  20
ENDBRANCH   9  13
ENDBRANCH   1   9
BRANCH   7  25
ATOM     25  C   UNL     1      -1.803   3.606  -1.402  0.00  0.00    +0.152 C 
BRANCH  25  26
ATOM     26  C   UNL     1      -1.889   5.110  -1.387  0.00  0.00    +0.310 C 
ATOM     27  O   UNL     1      -1.674   5.717  -0.364  0.00  0.00    -0.251 OA
BRANCH  26  28
ATOM     28  O   UNL     1      -2.203   5.776  -2.509  0.00  0.00    -0.461 OA
BRANCH  28  29
ATOM     29  C   UNL     1      -2.267   7.224  -2.420  0.00  0.00    +0.176 C 
ATOM     30  C   UNL     1      -3.688   7.650  -2.046  0.00  0.00    +0.044 C 
ATOM     31  C   UNL     1      -3.755   9.176  -1.952  0.00  0.00    +0.004 C 
ATOM     32  C   UNL     1      -3.379   9.787  -3.303  0.00  0.00    +0.000 C 
ATOM     33  C   UNL     1      -1.958   9.361  -3.678  0.00  0.00    +0.004 C 
ATOM     34  C   UNL     1      -1.891   7.835  -3.771  0.00  0.00    +0.044 C 
ENDBRANCH  28  29
ENDBRANCH  26  28
ENDBRANCH  25  26
ENDBRANCH   7  25
TORSDOF 9
