REMARK  Name = ZINC06697394
REMARK  5 active torsions:
REMARK  status: ('A' for Active; 'I' for Inactive)
REMARK    1  A    between atoms: C_1  and  C_2
REMARK    2  A    between atoms: C_2  and  C_3
REMARK    3  A    between atoms: C_9  and  C_11
REMARK    4  A    between atoms: C_12  and  N_24
REMARK    5  A    between atoms: C_23  and  N_43
REMARK                            x       y       z     vdW  Elec       q    Type
REMARK                         _______ _______ _______ _____ _____    ______ ____
ROOT
ATOM      1  C   UNL     1      -0.650   9.391   1.412  0.00  0.00    +0.097 A 
ATOM      2  C   UNL     1      -1.362  10.503   1.019  0.00  0.00    +0.053 A 
ATOM      3  C   UNL     1      -0.826  11.816   1.344  0.00  0.00    +0.029 A 
ATOM      4  C   UNL     1      -1.368  13.091   1.054  0.00  0.00    +0.016 A 
ATOM      5  C   UNL     1      -0.687  14.224   1.450  0.00  0.00    -0.042 A 
ATOM      6  C   UNL     1       0.514  14.109   2.129  0.00  0.00    +0.042 A 
ATOM      7  N   UNL     1       1.016  12.913   2.396  0.00  0.00    -0.244 NA
ATOM      8  C   UNL     1       0.405  11.807   2.037  0.00  0.00    +0.111 A 
ATOM      9  S   UNL     1       0.778  10.081   2.225  0.00  0.00    -0.062 S 
ATOM     10  C   UNL     1       1.284  15.323   2.584  0.00  0.00    +0.037 C 
ATOM     11  C   UNL     1       0.790  16.563   1.838  0.00  0.00    -0.073 C 
ATOM     12  C   UNL     1      -1.284  15.567   1.117  0.00  0.00    -0.042 C 
ATOM     13  C   UNL     1      -1.184  17.942   1.563  0.00  0.00    -0.096 C 
ATOM     14  N   UNL     1      -0.682  16.610   1.965  0.00  0.00    +0.381 N 
ATOM     15  H   UNL     1      -0.941  16.437   2.943  0.00  0.00    -0.082 HD
ENDROOT
BRANCH   1  22
ATOM     16  C   UNL     1      -0.749   3.086   1.275  0.00  0.00    +0.103 A 
ATOM     17  N   UNL     1      -1.640   3.924   0.783  0.00  0.00    -0.145 NA
ATOM     18  N   UNL     1      -1.508   5.175   0.875  0.00  0.00    -0.126 NA
ATOM     19  C   UNL     1      -0.461   5.726   1.473  0.00  0.00    +0.188 A 
ATOM     20  S   UNL     1       0.426   4.249   1.962  0.00  0.00    -0.035 S 
ATOM     21  N   UNL     1      -0.144   7.064   1.668  0.00  0.00    -0.259 N 
ATOM     22  C   UNL     1      -0.972   8.026   1.213  0.00  0.00    +0.258 C 
ATOM     23  O   UNL     1      -1.998   7.721   0.631  0.00  0.00    -0.269 OA
ATOM     24  H   UNL     1       0.672   7.307   2.131  0.00  0.00    +0.157 HD
BRANCH  16  26
ATOM     25  C   UNL     1      -0.013   1.086   0.008  0.00  0.00    +0.011 C 
ATOM     26  C   UNL     1      -0.729   1.579   1.267  0.00  0.00    +0.061 C 
ENDBRANCH  16  26
ENDBRANCH   1  22
BRANCH   2  27
ATOM     27  N   UNL     1      -2.561  10.373   0.333  0.00  0.00    -0.356 N 
ATOM     28  H   UNL     1      -2.909   9.492   0.125  0.00  0.00    +0.142 HD
ATOM     29  H   UNL     1      -3.052  11.165   0.061  0.00  0.00    +0.142 HD
ENDBRANCH   2  27
TORSDOF 3
