REMARK  Name = ZINC09593326
REMARK  8 active torsions:
REMARK  status: ('A' for Active; 'I' for Inactive)
REMARK    1  A    between atoms: C_1  and  C_2
REMARK    2  A    between atoms: C_2  and  C_4
REMARK    3  A    between atoms: C_2  and  S_18
REMARK    4  A    between atoms: N_6  and  C_7
REMARK    5  A    between atoms: C_8  and  C_15
REMARK    6  A    between atoms: S_18  and  C_19
REMARK    7  A    between atoms: C_22  and  C_30
REMARK    8  A    between atoms: N_23  and  C_24
REMARK                            x       y       z     vdW  Elec       q    Type
REMARK                         _______ _______ _______ _____ _____    ______ ____
ROOT
ATOM      1  C   UNL     1      -0.013   1.086   0.008  0.00  0.00    +0.029 C 
ATOM      2  C   UNL     1      -0.729   1.579   1.267  0.00  0.00    +0.137 C 
ENDROOT
BRANCH   2   3
ATOM      3  C   UNL     1       0.000   1.080   2.488  0.00  0.00    +0.231 C 
ATOM      4  O   UNL     1       0.757   1.815   3.085  0.00  0.00    -0.274 OA
ATOM      5  N   UNL     1      -0.190  -0.184   2.916  0.00  0.00    -0.278 N 
ATOM      6  H   UNL     1      -0.795  -0.772   2.438  0.00  0.00    +0.155 HD
BRANCH   5   7
ATOM      7  C   UNL     1       0.481  -0.643   4.039  0.00  0.00    +0.084 A 
ATOM      8  C   UNL     1       0.414  -1.893   4.630  0.00  0.00    +0.068 A 
ATOM      9  C   UNL     1       1.234  -2.126   5.819  0.00  0.00    -0.023 A 
ATOM     10  C   UNL     1       1.971  -1.073   6.219  0.00  0.00    -0.004 A 
ATOM     11  S   UNL     1       1.600   0.209   5.048  0.00  0.00    -0.077 S 
ATOM     12  C   UNL     1       2.783  -1.388   7.445  0.00  0.00    +0.043 C 
ATOM     13  C   UNL     1       2.791  -2.930   7.522  0.00  0.00    +0.010 C 
ATOM     14  C   UNL     1       1.489  -3.289   6.778  0.00  0.00    +0.037 C 
BRANCH   8  15
ATOM     15  C   UNL     1      -0.445  -2.947   4.082  0.00  0.00    +0.244 C 
ATOM     16  O   UNL     1      -0.008  -3.716   3.246  0.00  0.00    -0.270 OA
ATOM     17  N   UNL     1      -1.720  -3.065   4.505  0.00  0.00    -0.325 N 
ATOM     18  H   UNL     1      -2.069  -2.453   5.171  0.00  0.00    +0.145 HD
ATOM     19  H   UNL     1      -2.288  -3.763   4.142  0.00  0.00    +0.145 HD
ENDBRANCH   8  15
ENDBRANCH   5   7
ENDBRANCH   2   3
BRANCH   2  20
ATOM     20  S   UNL     1      -0.753   3.389   1.277  0.00  0.00    -0.073 S 
BRANCH  20  21
ATOM     21  C   UNL     1      -1.766   3.689  -0.134  0.00  0.00    +0.193 A 
ATOM     22  N   UNL     1      -2.307   2.779  -0.912  0.00  0.00    -0.122 NA
ATOM     23  N   UNL     1      -2.985   3.343  -1.847  0.00  0.00    -0.125 NA
ATOM     24  C   UNL     1      -2.919   4.650  -1.723  0.00  0.00    +0.201 A 
ATOM     25  N   UNL     1      -2.140   4.912  -0.617  0.00  0.00    -0.297 N 
BRANCH  25  26
ATOM     26  C   UNL     1      -1.784   6.225  -0.075  0.00  0.00    +0.091 C 
ATOM     27  C   UNL     1      -0.263   6.388  -0.089  0.00  0.00    +0.025 C 
ATOM     28  C   UNL     1       0.109   7.759   0.477  0.00  0.00    +0.002 C 
ATOM     29  C   UNL     1      -0.403   7.873   1.914  0.00  0.00    +0.000 C 
ATOM     30  C   UNL     1      -1.924   7.711   1.929  0.00  0.00    +0.002 C 
ATOM     31  C   UNL     1      -2.296   6.339   1.362  0.00  0.00    +0.025 C 
ENDBRANCH  25  26
BRANCH  24  32
ATOM     32  C   UNL     1      -3.560   5.645  -2.597  0.00  0.00    +0.172 A 
ATOM     33  C   UNL     1      -4.551   5.398  -3.499  0.00  0.00    +0.053 A 
ATOM     34  C   UNL     1      -4.861   6.629  -4.108  0.00  0.00    +0.042 A 
ATOM     35  C   UNL     1      -4.055   7.558  -3.556  0.00  0.00    +0.196 A 
ATOM     36  O   UNL     1      -3.274   6.962  -2.640  0.00  0.00    -0.460 OA
ENDBRANCH  24  32
ENDBRANCH  20  21
ENDBRANCH   2  20
TORSDOF 7
