REMARK  Name = ZINC16568781
REMARK  11 active torsions:
REMARK  status: ('A' for Active; 'I' for Inactive)
REMARK    1  A    between atoms: C_1  and  C_2
REMARK    2  A    between atoms: C_5  and  N_8
REMARK    3  A    between atoms: C_9  and  C_21
REMARK    4  A    between atoms: C_12  and  S_13
REMARK    5  A    between atoms: S_13  and  C_14
REMARK    6  A    between atoms: C_14  and  C_15
REMARK    7  A    between atoms: C_21  and  C_23
REMARK    8  A    between atoms: C_21  and  N_30
REMARK    9  A    between atoms: C_23  and  C_24
REMARK   10  A    between atoms: C_31  and  C_33
REMARK   11  A    between atoms: C_33  and  C_34
REMARK                            x       y       z     vdW  Elec       q    Type
REMARK                         _______ _______ _______ _____ _____    ______ ____
ROOT
ATOM      1  N   UNL     1       6.586  -2.321  -2.445  0.00  0.00    -0.273 N 
ATOM      2  C   UNL     1       7.628  -2.897  -1.767  0.00  0.00    +0.159 A 
ATOM      3  N   UNL     1       7.384  -2.762  -0.494  0.00  0.00    -0.131 NA
ATOM      4  N   UNL     1       6.272  -2.140  -0.321  0.00  0.00    -0.122 NA
ATOM      5  C   UNL     1       5.740  -1.842  -1.483  0.00  0.00    +0.196 A 
ENDROOT
BRANCH   1  10
ATOM      6  C   UNL     1       5.923  -1.984  -8.072  0.00  0.00    +0.044 C 
ATOM      7  C   UNL     1       6.099  -2.074  -6.578  0.00  0.00    -0.050 A 
ATOM      8  C   UNL     1       6.273  -0.922  -5.834  0.00  0.00    +0.005 A 
ATOM      9  C   UNL     1       6.435  -1.001  -4.464  0.00  0.00    +0.026 A 
ATOM     10  C   UNL     1       6.422  -2.238  -3.836  0.00  0.00    +0.050 A 
ATOM     11  C   UNL     1       6.253  -3.393  -4.586  0.00  0.00    +0.026 A 
ATOM     12  C   UNL     1       6.087  -3.308  -5.955  0.00  0.00    +0.005 A 
ENDBRANCH   1  10
BRANCH   5  13
ATOM     13  S   UNL     1       4.220  -0.992  -1.753  0.00  0.00    -0.081 S 
BRANCH  13  14
ATOM     14  C   UNL     1       3.711  -0.707  -0.039  0.00  0.00    +0.112 C 
BRANCH  14  15
ATOM     15  C   UNL     1       2.396   0.029  -0.022  0.00  0.00    -0.037 A 
ATOM     16  C   UNL     1       1.208  -0.679  -0.014  0.00  0.00    +0.004 A 
ATOM     17  C   UNL     1       0.002  -0.004   0.002  0.00  0.00    +0.000 A 
ATOM     18  C   UNL     1      -0.017   1.378   0.010  0.00  0.00    +0.000 A 
ATOM     19  C   UNL     1       1.171   2.086   0.002  0.00  0.00    +0.000 A 
ATOM     20  C   UNL     1       2.377   1.411  -0.014  0.00  0.00    +0.004 A 
ENDBRANCH  14  15
ENDBRANCH  13  14
ENDBRANCH   5  13
BRANCH   2  21
ATOM     21  C   UNL     1       8.830  -3.569  -2.380  0.00  0.00    +0.146 C 
BRANCH  21  22
ATOM     22  N   UNL     1       9.089  -4.833  -1.687  0.00  0.00    -0.305 N 
ATOM     23  C   UNL     1       9.743  -5.827  -2.320  0.00  0.00    +0.218 C 
ATOM     24  O   UNL     1      10.117  -5.675  -3.463  0.00  0.00    -0.275 OA
ATOM     25  H   UNL     1       8.790  -4.955  -0.772  0.00  0.00    +0.149 HD
BRANCH  23  26
ATOM     26  C   UNL     1      10.010  -7.128  -1.607  0.00  0.00    +0.130 C 
BRANCH  26  27
ATOM     27  C   UNL     1      10.750  -8.063  -2.528  0.00  0.00    -0.039 A 
ATOM     28  C   UNL     1      10.046  -8.928  -3.345  0.00  0.00    +0.004 A 
ATOM     29  C   UNL     1      10.725  -9.783  -4.194  0.00  0.00    +0.000 A 
ATOM     30  C   UNL     1      12.107  -9.779  -4.218  0.00  0.00    +0.000 A 
ATOM     31  C   UNL     1      12.811  -8.918  -3.396  0.00  0.00    +0.000 A 
ATOM     32  C   UNL     1      12.132  -8.060  -2.552  0.00  0.00    +0.004 A 
ENDBRANCH  26  27
ENDBRANCH  23  26
ENDBRANCH  21  22
BRANCH  21  33
ATOM     33  C   UNL     1      10.049  -2.654  -2.245  0.00  0.00    +0.065 C 
BRANCH  33  34
ATOM     34  C   UNL     1      11.221  -3.270  -2.964  0.00  0.00    -0.045 A 
ATOM     35  C   UNL     1      12.078  -4.118  -2.289  0.00  0.00    +0.004 A 
ATOM     36  C   UNL     1      13.151  -4.687  -2.950  0.00  0.00    +0.000 A 
ATOM     37  C   UNL     1      13.372  -4.400  -4.284  0.00  0.00    +0.000 A 
ATOM     38  C   UNL     1      12.518  -3.547  -4.958  0.00  0.00    +0.000 A 
ATOM     39  C   UNL     1      11.442  -2.983  -4.298  0.00  0.00    +0.004 A 
ENDBRANCH  33  34
ENDBRANCH  21  33
ENDBRANCH   2  21
TORSDOF 10
