REMARK  Name = ZINC67095435
REMARK  10 active torsions:
REMARK  status: ('A' for Active; 'I' for Inactive)
REMARK    1  A    between atoms: C_1  and  C_2
REMARK    2  A    between atoms: C_5  and  C_27
REMARK    3  A    between atoms: N_8  and  C_10
REMARK    4  A    between atoms: C_10  and  C_11
REMARK    5  A    between atoms: C_11  and  N_12
REMARK    6  A    between atoms: N_12  and  C_13
REMARK    7  A    between atoms: C_16  and  S_23
REMARK    8  A    between atoms: C_18  and  S_19
REMARK    9  A    between atoms: S_19  and  C_22
REMARK   10  A    between atoms: S_23  and  N_26
REMARK                            x       y       z     vdW  Elec       q    Type
REMARK                         _______ _______ _______ _____ _____    ______ ____
ROOT
ATOM      1  C   UNL     1       0.617  -2.309   6.138  0.00  0.00    +0.052 A 
ATOM      2  C   UNL     1      -0.585  -1.617   6.213  0.00  0.00    +0.027 A 
ATOM      3  C   UNL     1      -1.168  -1.380   7.442  0.00  0.00    +0.030 A 
ATOM      4  C   UNL     1      -0.556  -1.831   8.598  0.00  0.00    +0.107 A 
ATOM      5  C   UNL     1       0.640  -2.520   8.527  0.00  0.00    +0.057 A 
ATOM      6  C   UNL     1       1.226  -2.766   7.300  0.00  0.00    +0.110 A 
ENDROOT
BRANCH   6   7
ATOM      7  S   UNL     1       2.746  -3.651   7.210  0.00  0.00    -0.004 S 
ATOM      8  O   UNL     1       3.593  -2.837   6.409  0.00  0.00    -0.170 OA
ATOM      9  O   UNL     1       3.082  -3.935   8.561  0.00  0.00    -0.170 OA
ATOM     10  C   UNL     1       2.341  -5.186   6.331  0.00  0.00    +0.200 C 
ENDBRANCH   6   7
BRANCH   4  11
ATOM     11  S   UNL     1      -1.304  -1.527  10.165  0.00  0.00    +0.056 S 
ATOM     12  O   UNL     1      -0.260  -1.574  11.128  0.00  0.00    -0.153 OA
ATOM     13  O   UNL     1      -2.139  -0.389  10.002  0.00  0.00    -0.153 OA
BRANCH  11  14
ATOM     14  N   UNL     1      -2.304  -2.806  10.487  0.00  0.00    -0.204 NA
ATOM     15  H   UNL     1      -2.467  -3.075  11.405  0.00  0.00    +0.144 HD
ATOM     16  H   UNL     1      -2.727  -3.287   9.758  0.00  0.00    +0.144 HD
ENDBRANCH  11  14
ENDBRANCH   4  11
BRANCH   1  17
ATOM     17  N   UNL     1       1.209  -2.551   4.896  0.00  0.00    -0.344 N 
ATOM     18  H   UNL     1       2.046  -3.038   4.845  0.00  0.00    +0.146 HD
BRANCH  17  19
ATOM     19  C   UNL     1       0.566  -2.069   3.672  0.00  0.00    +0.083 C 
BRANCH  19  20
ATOM     20  C   UNL     1       1.413  -2.463   2.461  0.00  0.00    -0.060 C 
BRANCH  20  26
ATOM     21  C   UNL     1      -0.019   1.526   0.010  0.00  0.00    +0.005 C 
ATOM     22  C   UNL     1       0.002  -0.004   0.002  0.00  0.00    -0.031 C 
ATOM     23  C   UNL     1       0.721  -0.499  -1.257  0.00  0.00    +0.003 C 
ATOM     24  C   UNL     1       0.805  -2.027  -1.217  0.00  0.00    -0.031 C 
ATOM     25  C   UNL     1       1.518  -2.460   0.066  0.00  0.00    -0.076 C 
ATOM     26  N   UNL     1       0.768  -1.979   1.233  0.00  0.00    +0.381 N 
ATOM     27  C   UNL     1       0.744  -0.512   1.240  0.00  0.00    -0.076 C 
ATOM     28  C   UNL     1      -0.606  -2.618  -1.242  0.00  0.00    +0.005 C 
ATOM     29  H   UNL     1      -0.177  -2.330   1.192  0.00  0.00    -0.082 HD
ENDBRANCH  20  26
ENDBRANCH  19  20
ENDBRANCH  17  19
ENDBRANCH   1  17
TORSDOF 7
