REMARK  Name = ZINC36554427
REMARK  13 active torsions:
REMARK  status: ('A' for Active; 'I' for Inactive)
REMARK    1  A    between atoms: C_1  and  C_2
REMARK    2  A    between atoms: C_2  and  C_3
REMARK    3  A    between atoms: C_2  and  C_4
REMARK    4  A    between atoms: C_2  and  N_5
REMARK    5  A    between atoms: C_6  and  C_8
REMARK    6  A    between atoms: C_8  and  C_10
REMARK    7  A    between atoms: C_8  and  N_19
REMARK    8  A    between atoms: C_11  and  O_18
REMARK    9  A    between atoms: C_13  and  O_17
REMARK   10  A    between atoms: C_15  and  O_16
REMARK   11  A    between atoms: N_19  and  C_20
REMARK   12  A    between atoms: C_27  and  C_29
REMARK   13  A    between atoms: C_32  and  N_35
REMARK                            x       y       z     vdW  Elec       q    Type
REMARK                         _______ _______ _______ _____ _____    ______ ____
ROOT
ATOM      1  C   UNL     1       3.115  -0.414  -1.628  0.00  0.00    +0.204 C 
ENDROOT
BRANCH   1   2
ATOM      2  C   UNL     1       3.467  -1.728  -0.979  0.00  0.00    +0.065 A 
ATOM      3  C   UNL     1       4.663  -1.863  -0.290  0.00  0.00    +0.129 A 
ATOM      4  C   UNL     1       4.987  -3.072   0.307  0.00  0.00    +0.091 A 
ATOM      5  C   UNL     1       4.115  -4.146   0.216  0.00  0.00    +0.124 A 
ATOM      6  C   UNL     1       2.918  -4.011  -0.471  0.00  0.00    +0.091 A 
ATOM      7  C   UNL     1       2.592  -2.800  -1.065  0.00  0.00    +0.129 A 
BRANCH   7   8
ATOM      8  O   UNL     1       1.417  -2.667  -1.735  0.00  0.00    -0.506 OA
ATOM      9  H   UNL     1       1.472  -2.891  -2.674  0.00  0.00    +0.292 HD
ENDBRANCH   7   8
BRANCH   5  10
ATOM     10  O   UNL     1       4.432  -5.330   0.801  0.00  0.00    -0.507 OA
ATOM     11  H   UNL     1       4.126  -5.413   1.715  0.00  0.00    +0.292 HD
ENDBRANCH   5  10
BRANCH   3  12
ATOM     12  O   UNL     1       5.519  -0.810  -0.202  0.00  0.00    -0.506 OA
ATOM     13  H   UNL     1       5.419  -0.290   0.607  0.00  0.00    +0.292 HD
ENDBRANCH   3  12
ENDBRANCH   1   2
BRANCH   1  15
ATOM     14  N   UNL     1       2.055   0.510   0.406  0.00  0.00    -0.309 N 
ATOM     15  C   UNL     1       2.975   0.648  -0.569  0.00  0.00    +0.239 C 
ATOM     16  O   UNL     1       3.690   1.627  -0.593  0.00  0.00    -0.273 OA
ATOM     17  H   UNL     1       1.483  -0.274   0.426  0.00  0.00    +0.149 HD
BRANCH  14  19
ATOM     18  C   UNL     1       1.561   2.876   0.777  0.00  0.00    +0.031 C 
ATOM     19  C   UNL     1       1.918   1.542   1.437  0.00  0.00    +0.026 C 
ATOM     20  C   UNL     1       3.240   1.686   2.193  0.00  0.00    +0.031 C 
ATOM     21  C   UNL     1       0.811   1.144   2.414  0.00  0.00    +0.031 C 
ENDBRANCH  14  19
ENDBRANCH   1  15
BRANCH   1  22
ATOM     22  N   UNL     1       4.176  -0.033  -2.564  0.00  0.00    -0.251 N 
ATOM     23  C   UNL     1       4.116   1.152  -3.203  0.00  0.00    +0.252 C 
ATOM     24  O   UNL     1       4.904   1.403  -4.094  0.00  0.00    -0.270 OA
BRANCH  22  25
ATOM     25  C   UNL     1       5.249  -0.899  -2.796  0.00  0.00    +0.039 A 
ATOM     26  C   UNL     1       5.021  -2.165  -3.321  0.00  0.00    +0.023 A 
ATOM     27  C   UNL     1       6.083  -3.018  -3.549  0.00  0.00    +0.003 A 
ATOM     28  C   UNL     1       7.372  -2.614  -3.255  0.00  0.00    +0.020 A 
ATOM     29  C   UNL     1       7.603  -1.354  -2.731  0.00  0.00    +0.043 A 
ATOM     30  C   UNL     1       6.545  -0.493  -2.506  0.00  0.00    +0.043 A 
ATOM     31 CL   UNL     1       9.223  -0.851  -2.363  0.00  0.00    -0.083 Cl
ENDBRANCH  22  25
BRANCH  23  32
ATOM     32  C   UNL     1       3.094   2.148  -2.819  0.00  0.00    +0.037 A 
ATOM     33  C   UNL     1       1.939   1.744  -2.147  0.00  0.00    +0.015 A 
ATOM     34  C   UNL     1       0.988   2.678  -1.792  0.00  0.00    +0.033 A 
ATOM     35  C   UNL     1       1.177   4.014  -2.101  0.00  0.00    +0.126 A 
ATOM     36  C   UNL     1       2.319   4.421  -2.767  0.00  0.00    +0.033 A 
ATOM     37  C   UNL     1       3.281   3.498  -3.123  0.00  0.00    +0.015 A 
BRANCH  35  38
ATOM     38  N   UNL     1       0.153   5.011  -1.717  0.00  0.00    +0.056 N 
ATOM     39  O   UNL     1      -0.846   4.658  -1.135  0.00  0.00    -0.126 OA
ATOM     40  O   UNL     1       0.316   6.178  -1.985  0.00  0.00    -0.126 OA
ENDBRANCH  35  38
ENDBRANCH  23  32
ENDBRANCH   1  22
TORSDOF 10
