REMARK  Name = ZINC15947340
REMARK  5 active torsions:
REMARK  status: ('A' for Active; 'I' for Inactive)
REMARK    1  A    between atoms: C_4  and  C_7
REMARK    2  A    between atoms: C_7  and  N_8
REMARK    3  A    between atoms: C_16  and  O_31
REMARK    4  A    between atoms: C_18  and  C_21
REMARK    5  A    between atoms: C_25  and  N_27
REMARK                            x       y       z     vdW  Elec       q    Type
REMARK                         _______ _______ _______ _____ _____    ______ ____
ROOT
ATOM      1  N   UNL     1       4.153  -0.953   1.342  0.00  0.00    +0.386 N 
ATOM      2  C   UNL     1       5.491  -1.559   1.326  0.00  0.00    -0.073 C 
ATOM      3  C   UNL     1       6.098  -1.536   2.732  0.00  0.00    +0.018 C 
ATOM      4  C   UNL     1       5.088  -2.156   3.689  0.00  0.00    -0.027 A 
ATOM      5  C   UNL     1       3.793  -2.286   3.315  0.00  0.00    -0.021 A 
ATOM      6  S   UNL     1       2.997  -3.041   4.704  0.00  0.00    -0.080 S 
ATOM      7  C   UNL     1       4.299  -3.182   5.722  0.00  0.00    +0.080 A 
ATOM      8  C   UNL     1       5.385  -2.644   5.020  0.00  0.00    +0.067 A 
ATOM      9  C   UNL     1       6.702  -2.625   5.708  0.00  0.00    +0.220 C 
ATOM     10  N   UNL     1       6.824  -3.326   6.802  0.00  0.00    -0.223 NA
ATOM     11  C   UNL     1       5.780  -4.174   7.362  0.00  0.00    +0.224 C 
ATOM     12  N   UNL     1       4.435  -3.696   6.992  0.00  0.00    -0.313 N 
ATOM     13  C   UNL     1       3.204  -1.866   2.006  0.00  0.00    -0.035 C 
ATOM     14  H   UNL     1       3.689  -3.740   7.609  0.00  0.00    +0.149 HD
ATOM     15  H   UNL     1       4.186  -0.079   1.845  0.00  0.00    -0.081 HD
ENDROOT
BRANCH  11  16
ATOM     16  C   UNL     1       5.959  -5.579   6.847  0.00  0.00    -0.003 A 
ATOM     17  C   UNL     1       4.859  -6.400   6.682  0.00  0.00    +0.009 A 
ATOM     18  C   UNL     1       5.022  -7.689   6.210  0.00  0.00    +0.022 A 
ATOM     19  C   UNL     1       6.287  -8.157   5.902  0.00  0.00    +0.071 A 
ATOM     20  C   UNL     1       7.388  -7.335   6.067  0.00  0.00    +0.145 A 
ATOM     21  C   UNL     1       7.222  -6.045   6.535  0.00  0.00    +0.041 A 
ATOM     22 CL   UNL     1       6.494  -9.775   5.309  0.00  0.00    -0.081 Cl
BRANCH  20  23
ATOM     23  N   UNL     1       8.741  -7.835   5.739  0.00  0.00    +0.058 N 
ATOM     24  O   UNL     1       9.703  -7.117   5.883  0.00  0.00    -0.126 OA
ATOM     25  O   UNL     1       8.886  -8.962   5.325  0.00  0.00    -0.126 OA
ENDBRANCH  20  23
ENDBRANCH  11  16
BRANCH   9  26
ATOM     26  O   UNL     1       7.738  -1.908   5.216  0.00  0.00    -0.492 OA
ATOM     27  H   UNL     1       8.545  -1.969   5.745  0.00  0.00    +0.294 HD
ENDBRANCH   9  26
BRANCH   1  28
ATOM     28  C   UNL     1       3.711  -0.707  -0.038  0.00  0.00    -0.043 C 
BRANCH  28  32
ATOM     29  C   UNL     1      -0.017   1.378   0.010  0.00  0.00    +0.000 A 
ATOM     30  C   UNL     1       1.171   2.086   0.002  0.00  0.00    +0.000 A 
ATOM     31  C   UNL     1       2.377   1.411  -0.013  0.00  0.00    +0.002 A 
ATOM     32  C   UNL     1       2.396   0.029  -0.020  0.00  0.00    -0.064 A 
ATOM     33  C   UNL     1       1.208  -0.679  -0.012  0.00  0.00    +0.002 A 
ATOM     34  C   UNL     1       0.002  -0.004   0.002  0.00  0.00    +0.000 A 
ENDBRANCH  28  32
ENDBRANCH   1  28
TORSDOF 5
