REMARK  Name = ZINC09822683
REMARK  5 active torsions:
REMARK  status: ('A' for Active; 'I' for Inactive)
REMARK    1  A    between atoms: C_1  and  C_2
REMARK    2  A    between atoms: C_5  and  N_24
REMARK    3  A    between atoms: C_7  and  S_8
REMARK    4  A    between atoms: S_8  and  N_11
REMARK    5  A    between atoms: C_19  and  C_21
REMARK                            x       y       z     vdW  Elec       q    Type
REMARK                         _______ _______ _______ _____ _____    ______ ____
ROOT
ATOM      1  N   UNL     1      -0.177   1.739   0.112  0.00  0.00    -0.191 N 
ATOM      2  C   UNL     1      -1.337   2.439   0.449  0.00  0.00    +0.055 A 
ATOM      3  C   UNL     1      -2.597   1.948   0.799  0.00  0.00    +0.025 A 
ATOM      4  C   UNL     1      -3.620   2.818   1.107  0.00  0.00    +0.002 A 
ATOM      5  C   UNL     1      -3.406   4.184   1.077  0.00  0.00    +0.000 A 
ATOM      6  C   UNL     1      -2.161   4.678   0.736  0.00  0.00    +0.005 A 
ATOM      7  C   UNL     1      -1.131   3.810   0.426  0.00  0.00    -0.022 A 
ATOM      8  C   UNL     1       0.303   4.074   0.027  0.00  0.00    +0.070 C 
ATOM      9  C   UNL     1       0.911   2.677  -0.175  0.00  0.00    +0.187 C 
ENDROOT
BRANCH   9  10
ATOM     10  C   UNL     1       1.384   2.511  -1.597  0.00  0.00    +0.233 C 
ATOM     11  O   UNL     1       0.864   1.685  -2.316  0.00  0.00    -0.274 OA
ATOM     12  N   UNL     1       2.385   3.281  -2.068  0.00  0.00    -0.328 N 
ATOM     13  H   UNL     1       2.801   3.942  -1.493  0.00  0.00    +0.145 HD
ATOM     14  H   UNL     1       2.688   3.174  -2.983  0.00  0.00    +0.145 HD
ENDBRANCH   9  10
BRANCH   1  15
ATOM     15  S   UNL     1      -0.052   0.089   0.039  0.00  0.00    +0.076 S 
ATOM     16  O   UNL     1      -1.311  -0.394  -0.411  0.00  0.00    -0.150 OA
ATOM     17  O   UNL     1       1.161  -0.197  -0.642  0.00  0.00    -0.150 OA
BRANCH  15  24
ATOM     18  C   UNL     1       2.336   0.720   1.784  0.00  0.00    +0.046 C 
ATOM     19  C   UNL     1       1.277  -0.149   2.411  0.00  0.00    -0.024 A 
ATOM     20  C   UNL     1       1.434  -0.604   3.707  0.00  0.00    +0.007 A 
ATOM     21  C   UNL     1       0.462  -1.401   4.282  0.00  0.00    +0.033 A 
ATOM     22  C   UNL     1      -0.668  -1.742   3.562  0.00  0.00    +0.128 A 
ATOM     23  C   UNL     1      -0.827  -1.284   2.268  0.00  0.00    +0.061 A 
ATOM     24  C   UNL     1       0.148  -0.491   1.691  0.00  0.00    +0.114 A 
BRANCH  22  25
ATOM     25  N   UNL     1      -1.708  -2.596   4.178  0.00  0.00    +0.056 N 
ATOM     26  O   UNL     1      -1.569  -2.998   5.319  0.00  0.00    -0.126 OA
ATOM     27  O   UNL     1      -2.703  -2.897   3.543  0.00  0.00    -0.126 OA
ENDBRANCH  22  25
ENDBRANCH  15  24
ENDBRANCH   1  15
TORSDOF 4
