REMARK  Name = ZINC27876320
REMARK  12 active torsions:
REMARK  status: ('A' for Active; 'I' for Inactive)
REMARK    1  A    between atoms: C_1  and  N_2
REMARK    2  A    between atoms: N_5  and  C_8
REMARK    3  A    between atoms: C_11  and  S_14
REMARK    4  A    between atoms: S_14  and  N_17
REMARK    5  A    between atoms: N_17  and  C_18
REMARK    6  A    between atoms: C_21  and  C_24
REMARK    7  A    between atoms: C_24  and  C_25
REMARK    8  A    between atoms: C_25  and  N_26
REMARK    9  A    between atoms: N_26  and  C_27
REMARK   10  A    between atoms: C_27  and  C_28
REMARK   11  A    between atoms: C_28  and  C_30
REMARK   12  A    between atoms: C_28  and  O_36
REMARK                            x       y       z     vdW  Elec       q    Type
REMARK                         _______ _______ _______ _____ _____    ______ ____
ROOT
ATOM      1  C   UNL     1      -6.459   2.407  -5.747  0.00  0.00    +0.048 A 
ATOM      2  C   UNL     1      -5.680   1.258  -5.786  0.00  0.00    +0.025 A 
ATOM      3  C   UNL     1      -4.984   0.859  -4.662  0.00  0.00    +0.005 A 
ATOM      4  C   UNL     1      -5.062   1.602  -3.498  0.00  0.00    -0.049 A 
ATOM      5  C   UNL     1      -5.841   2.744  -3.455  0.00  0.00    +0.005 A 
ATOM      6  C   UNL     1      -6.535   3.152  -4.577  0.00  0.00    +0.025 A 
ENDROOT
BRANCH   1   7
ATOM      7  N   UNL     1      -7.164   2.813  -6.882  0.00  0.00    -0.216 N 
ATOM      8  H   UNL     1      -6.667   2.826  -7.863  0.00  0.00    +0.174 HD
BRANCH   7   9
ATOM      9  S   UNL     1      -8.749   3.276  -6.751  0.00  0.00    +0.072 S 
ATOM     10  O   UNL     1      -8.800   4.264  -5.731  0.00  0.00    -0.150 OA
ATOM     11  O   UNL     1      -9.212   3.520  -8.072  0.00  0.00    -0.150 OA
BRANCH   9  15
ATOM     12  C   UNL     1     -11.064  -0.298  -5.207  0.00  0.00    +0.038 A 
ATOM     13  C   UNL     1     -10.600   0.666  -4.322  0.00  0.00    +0.025 A 
ATOM     14  C   UNL     1      -9.895   1.755  -4.796  0.00  0.00    +0.030 A 
ATOM     15  C   UNL     1      -9.649   1.885  -6.150  0.00  0.00    +0.109 A 
ATOM     16  C   UNL     1     -10.114   0.930  -7.035  0.00  0.00    +0.030 A 
ATOM     17  C   UNL     1     -10.816  -0.164  -6.567  0.00  0.00    +0.025 A 
BRANCH  12  22
ATOM     18  C   UNL     1     -13.073  -3.361  -1.938  0.00  0.00    +0.133 C 
ATOM     19  N   UNL     1     -12.702  -2.809  -3.243  0.00  0.00    -0.287 N 
ATOM     20  C   UNL     1     -13.059  -3.390  -4.546  0.00  0.00    +0.128 C 
ATOM     21  C   UNL     1     -12.431  -2.421  -5.567  0.00  0.00    +0.134 C 
ATOM     22  N   UNL     1     -11.779  -1.402  -4.731  0.00  0.00    -0.254 N 
ATOM     23  C   UNL     1     -11.984  -1.696  -3.440  0.00  0.00    +0.309 C 
ATOM     24  O   UNL     1     -11.556  -1.014  -2.529  0.00  0.00    -0.252 OA
ENDBRANCH  12  22
ENDBRANCH   9  15
ENDBRANCH   7   9
ENDBRANCH   1   7
BRANCH   4  25
ATOM     25  C   UNL     1      -4.301   1.164  -2.274  0.00  0.00    +0.016 C 
BRANCH  25  26
ATOM     26  C   UNL     1      -2.909   1.798  -2.284  0.00  0.00    -0.078 C 
BRANCH  26  27
ATOM     27  N   UNL     1      -2.167   1.371  -1.090  0.00  0.00    +0.381 N 
ATOM     28  H   UNL     1      -2.709   1.690  -0.188  0.00  0.00    -0.086 HD
ATOM     29  H   UNL     1      -2.071   0.275  -1.091  0.00  0.00    -0.086 HD
BRANCH  27  30
ATOM     30  C   UNL     1      -0.823   1.962  -1.065  0.00  0.00    -0.046 C 
BRANCH  30  31
ATOM     31  C   UNL     1      -0.083   1.495   0.190  0.00  0.00    +0.129 C 
BRANCH  31  32
ATOM     32  C   UNL     1       1.296   2.102   0.214  0.00  0.00    -0.003 A 
ATOM     33  C   UNL     1       2.382   1.397  -0.283  0.00  0.00    +0.009 A 
ATOM     34  C   UNL     1       3.632   1.995  -0.239  0.00  0.00    +0.020 A 
ATOM     35  C   UNL     1       3.754   3.264   0.294  0.00  0.00    +0.111 A 
ATOM     36  N   UNL     1       2.699   3.905   0.759  0.00  0.00    -0.263 NA
ATOM     37  C   UNL     1       1.494   3.369   0.728  0.00  0.00    +0.116 A 
ENDBRANCH  31  32
BRANCH  31  38
ATOM     38  O   UNL     1      -0.806   1.909   1.351  0.00  0.00    -0.389 OA
ATOM     39  H   UNL     1      -0.425   1.662   2.353  0.00  0.00    +0.210 HD
ENDBRANCH  31  38
ENDBRANCH  30  31
ENDBRANCH  27  30
ENDBRANCH  26  27
ENDBRANCH  25  26
ENDBRANCH   4  25
TORSDOF 11
