REMARK  Name = ZINC39639796
REMARK  7 active torsions:
REMARK  status: ('A' for Active; 'I' for Inactive)
REMARK    1  A    between atoms: C_10  and  C_12
REMARK    2  A    between atoms: C_18  and  C_20
REMARK    3  A    between atoms: C_20  and  O_22
REMARK    4  A    between atoms: O_22  and  C_23
REMARK    5  A    between atoms: C_23  and  C_24
REMARK    6  A    between atoms: N_26  and  C_27
REMARK    7  A    between atoms: C_27  and  C_33
REMARK                            x       y       z     vdW  Elec       q    Type
REMARK                         _______ _______ _______ _____ _____    ______ ____
ROOT
ATOM      1  C   UNL     1       5.137   1.002  -0.158  0.00  0.00    +0.089 C 
ATOM      2  C   UNL     1       4.641   1.737   1.088  0.00  0.00    +0.013 C 
ATOM      3  C   UNL     1       5.312   1.147   2.330  0.00  0.00    +0.001 C 
ATOM      4  C   UNL     1       6.830   1.306   2.214  0.00  0.00    +0.001 C 
ATOM      5  C   UNL     1       7.326   0.571   0.967  0.00  0.00    +0.015 C 
ATOM      6  C   UNL     1       6.654   1.161  -0.275  0.00  0.00    +0.110 C 
ENDROOT
BRANCH   1  16
ATOM      7  C   UNL     1       1.866  -4.690  -0.311  0.00  0.00    +0.000 A 
ATOM      8  C   UNL     1       3.235  -4.601  -0.136  0.00  0.00    +0.002 A 
ATOM      9  C   UNL     1       3.850  -3.368  -0.091  0.00  0.00    +0.024 A 
ATOM     10  C   UNL     1       3.096  -2.200  -0.221  0.00  0.00    +0.039 A 
ATOM     11  C   UNL     1       1.725  -2.300  -0.396  0.00  0.00    -0.024 A 
ATOM     12  C   UNL     1       1.113  -3.538  -0.441  0.00  0.00    +0.005 A 
ATOM     13  C   UNL     1       1.151  -0.906  -0.510  0.00  0.00    +0.056 C 
ATOM     14  C   UNL     1       2.367   0.025  -0.378  0.00  0.00    +0.118 C 
ATOM     15  N   UNL     1       3.517  -0.867  -0.204  0.00  0.00    -0.271 N 
ATOM     16  C   UNL     1       4.793  -0.461  -0.049  0.00  0.00    +0.224 C 
ATOM     17  O   UNL     1       5.664  -1.274   0.179  0.00  0.00    -0.275 OA
ENDBRANCH   1  16
BRANCH   6  18
ATOM     18  C   UNL     1       7.143   0.437  -1.502  0.00  0.00    +0.311 C 
ATOM     19  O   UNL     1       6.359  -0.147  -2.212  0.00  0.00    -0.251 OA
BRANCH  18  20
ATOM     20  O   UNL     1       8.450   0.440  -1.808  0.00  0.00    -0.455 OA
BRANCH  20  21
ATOM     21  C   UNL     1       8.843  -0.267  -2.986  0.00  0.00    +0.327 C 
BRANCH  21  22
ATOM     22  C   UNL     1      10.335  -0.153  -3.166  0.00  0.00    +0.252 C 
ATOM     23  O   UNL     1      10.997   0.472  -2.365  0.00  0.00    -0.272 OA
ATOM     24  N   UNL     1      10.934  -0.746  -4.218  0.00  0.00    -0.295 N 
ATOM     25  H   UNL     1      10.404  -1.246  -4.859  0.00  0.00    +0.150 HD
BRANCH  24  26
ATOM     26  C   UNL     1      12.384  -0.635  -4.393  0.00  0.00    +0.121 C 
ATOM     27  C   UNL     1      12.770   0.839  -4.531  0.00  0.00    +0.041 C 
ATOM     28  C   UNL     1      14.285   0.954  -4.714  0.00  0.00    +0.003 C 
ATOM     29  C   UNL     1      14.705   0.197  -5.975  0.00  0.00    +0.000 C 
ATOM     30  C   UNL     1      14.319  -1.277  -5.838  0.00  0.00    +0.003 C 
ATOM     31  C   UNL     1      12.804  -1.392  -5.655  0.00  0.00    +0.041 C 
BRANCH  26  32
ATOM     32  C   UNL     1      13.065  -1.214  -3.224  0.00  0.00    +0.088 C 
ATOM     33  N   UNL     1      13.591  -1.661  -2.321  0.00  0.00    -0.194 NA
ENDBRANCH  26  32
ENDBRANCH  24  26
ENDBRANCH  21  22
ENDBRANCH  20  21
ENDBRANCH  18  20
ENDBRANCH   6  18
TORSDOF 7
