REMARK  Name = ZINC12764118
REMARK  10 active torsions:
REMARK  status: ('A' for Active; 'I' for Inactive)
REMARK    1  A    between atoms: C_1  and  C_2
REMARK    2  A    between atoms: C_4  and  C_11
REMARK    3  A    between atoms: C_6  and  C_10
REMARK    4  A    between atoms: C_7  and  O_8
REMARK    5  A    between atoms: O_8  and  C_9
REMARK    6  A    between atoms: C_11  and  C_13
REMARK    7  A    between atoms: N_18  and  S_20
REMARK    8  A    between atoms: S_20  and  C_23
REMARK    9  A    between atoms: C_24  and  C_29
REMARK   10  A    between atoms: C_27  and  C_28
REMARK                            x       y       z     vdW  Elec       q    Type
REMARK                         _______ _______ _______ _____ _____    ______ ____
ROOT
ATOM      1  C   UNL     1       0.050  -4.320  -2.474  0.00  0.00    +0.076 C 
ATOM      2  C   UNL     1      -1.386  -4.851  -2.469  0.00  0.00    +0.014 C 
ATOM      3  C   UNL     1      -1.365  -6.381  -2.440  0.00  0.00    +0.018 C 
ATOM      4  C   UNL     1      -0.661  -6.902  -3.696  0.00  0.00    +0.109 C 
ATOM      5  N   UNL     1       0.668  -6.283  -3.785  0.00  0.00    -0.176 NA
ATOM      6  C   UNL     1       0.771  -4.818  -3.730  0.00  0.00    +0.121 C 
ENDROOT
BRANCH   5   7
ATOM      7  S   UNL     1       2.026  -7.218  -3.942  0.00  0.00    +0.066 S 
ATOM      8  O   UNL     1       3.111  -6.444  -3.450  0.00  0.00    -0.153 OA
ATOM      9  O   UNL     1       1.701  -8.497  -3.416  0.00  0.00    -0.153 OA
BRANCH   7  10
ATOM     10  C   UNL     1       2.308  -7.440  -5.667  0.00  0.00    +0.170 A 
ATOM     11  C   UNL     1       1.790  -8.479  -6.461  0.00  0.00    +0.107 A 
ATOM     12  N   UNL     1       2.216  -8.307  -7.681  0.00  0.00    -0.081 NA
ATOM     13  O   UNL     1       3.024  -7.144  -7.700  0.00  0.00    -0.358 OA
ATOM     14  C   UNL     1       3.052  -6.641  -6.456  0.00  0.00    +0.161 A 
ATOM     15  C   UNL     1       3.788  -5.401  -6.018  0.00  0.00    +0.091 C 
ATOM     16  C   UNL     1       0.899  -9.597  -5.985  0.00  0.00    +0.071 C 
ENDBRANCH   7  10
ENDBRANCH   5   7
BRANCH   1  17
ATOM     17  C   UNL     1       0.029  -2.813  -2.470  0.00  0.00    +0.167 C 
ATOM     18  O   UNL     1       0.015  -2.204  -3.519  0.00  0.00    -0.292 OA
BRANCH  17  22
ATOM     19  C   UNL     1      -0.018   1.503   0.010  0.00  0.00    +0.047 C 
ATOM     20  C   UNL     1       0.002  -0.004   0.002  0.00  0.00    -0.008 A 
ATOM     21  C   UNL     1       0.006  -0.682  -1.190  0.00  0.00    +0.018 A 
ATOM     22  C   UNL     1       0.025  -2.082  -1.196  0.00  0.00    +0.018 A 
ATOM     23  C   UNL     1       0.041  -2.783   0.016  0.00  0.00    +0.018 A 
ATOM     24  C   UNL     1       0.037  -2.095   1.203  0.00  0.00    -0.008 A 
ATOM     25  C   UNL     1       0.023  -0.705   1.203  0.00  0.00    +0.126 A 
ATOM     26  C   UNL     1       0.054  -2.848   2.508  0.00  0.00    +0.047 C 
BRANCH  25  27
ATOM     27  O   UNL     1       0.025  -0.029   2.380  0.00  0.00    -0.495 OA
ATOM     28  C   UNL     1      -1.247   0.277   2.954  0.00  0.00    +0.277 C 
ENDBRANCH  25  27
ENDBRANCH  17  22
ENDBRANCH   1  17
TORSDOF 5
