REMARK  Name = ZINC39685688
REMARK  12 active torsions:
REMARK  status: ('A' for Active; 'I' for Inactive)
REMARK    1  A    between atoms: C_1  and  C_2
REMARK    2  A    between atoms: C_5  and  C_8
REMARK    3  A    between atoms: C_12  and  C_21
REMARK    4  A    between atoms: N_23  and  C_24
REMARK    5  A    between atoms: C_24  and  C_26
REMARK    6  A    between atoms: C_24  and  C_29
REMARK    7  A    between atoms: C_26  and  C_27
REMARK    8  A    between atoms: C_26  and  C_28
REMARK    9  A    between atoms: N_31  and  C_32
REMARK   10  A    between atoms: C_32  and  C_33
REMARK   11  A    between atoms: C_32  and  C_34
REMARK   12  A    between atoms: C_32  and  C_35
REMARK                            x       y       z     vdW  Elec       q    Type
REMARK                         _______ _______ _______ _____ _____    ______ ____
ROOT
ATOM      1  C   UNL     1       2.526  -5.464   0.402  0.00  0.00    +0.247 C 
ATOM      2  O   UNL     1       2.946  -6.240  -0.434  0.00  0.00    -0.270 OA
ATOM      3  N   UNL     1       2.323  -5.882   1.667  0.00  0.00    -0.296 N 
ATOM      4  C   UNL     1       1.704  -5.130   2.784  0.00  0.00    +0.121 C 
ATOM      5  C   UNL     1       0.844  -6.174   3.530  0.00  0.00    +0.100 C 
ATOM      6  C   UNL     1       1.482  -7.529   3.180  0.00  0.00    -0.004 C 
ATOM      7  C   UNL     1       2.662  -7.201   2.254  0.00  0.00    +0.115 C 
ATOM      8  C   UNL     1       0.476  -8.414   2.450  0.00  0.00    -0.010 C 
ATOM      9  C   UNL     1       1.115  -9.776   2.164  0.00  0.00    -0.082 C 
ATOM     10  N   UNL     1       1.522 -10.403   3.428  0.00  0.00    +0.379 N 
ATOM     11  C   UNL     1       2.557  -9.591   4.080  0.00  0.00    -0.082 C 
ATOM     12  C   UNL     1       1.979  -8.221   4.446  0.00  0.00    -0.010 C 
ATOM     13  H   UNL     1       0.722 -10.477   4.038  0.00  0.00    -0.086 HD
ATOM     14  H   UNL     1       1.887 -11.325   3.243  0.00  0.00    -0.086 HD
ENDROOT
BRANCH   1  19
ATOM     15  C   UNL     1       1.402  -0.008  -1.041  0.00  0.00    +0.044 C 
ATOM     16  C   UNL     1       1.697  -1.437  -0.663  0.00  0.00    -0.050 A 
ATOM     17  C   UNL     1       1.724  -2.416  -1.640  0.00  0.00    +0.004 A 
ATOM     18  C   UNL     1       1.992  -3.726  -1.301  0.00  0.00    +0.013 A 
ATOM     19  C   UNL     1       2.238  -4.062   0.031  0.00  0.00    +0.037 A 
ATOM     20  C   UNL     1       2.209  -3.070   1.012  0.00  0.00    +0.013 A 
ATOM     21  C   UNL     1       1.944  -1.763   0.658  0.00  0.00    +0.004 A 
ENDBRANCH   1  19
BRANCH   5  22
ATOM     22  C   UNL     1       0.898  -5.934   5.016  0.00  0.00    +0.219 C 
ATOM     23  O   UNL     1       1.874  -5.410   5.511  0.00  0.00    -0.275 OA
ATOM     24  N   UNL     1      -0.139  -6.300   5.796  0.00  0.00    -0.303 N 
ATOM     25  H   UNL     1      -0.919  -6.719   5.400  0.00  0.00    +0.149 HD
BRANCH  24  26
ATOM     26  C   UNL     1      -0.086  -6.066   7.241  0.00  0.00    +0.161 C 
BRANCH  26  27
ATOM     27  C   UNL     1      -0.989  -7.049   7.942  0.00  0.00    +0.234 C 
ATOM     28  O   UNL     1      -1.857  -7.625   7.321  0.00  0.00    -0.274 OA
ATOM     29  N   UNL     1      -0.830  -7.289   9.259  0.00  0.00    -0.309 N 
ATOM     30  H   UNL     1      -0.182  -6.779   9.770  0.00  0.00    +0.149 HD
BRANCH  29  31
ATOM     31  C   UNL     1      -1.637  -8.319   9.918  0.00  0.00    +0.026 C 
ATOM     32  C   UNL     1      -1.369  -9.674   9.261  0.00  0.00    +0.031 C 
ATOM     33  C   UNL     1      -1.264  -8.387  11.400  0.00  0.00    +0.031 C 
ATOM     34  C   UNL     1      -3.120  -7.970   9.782  0.00  0.00    +0.031 C 
ENDBRANCH  29  31
ENDBRANCH  26  27
BRANCH  26  35
ATOM     35  C   UNL     1      -0.552  -4.641   7.545  0.00  0.00    +0.012 C 
ATOM     36  C   UNL     1       0.430  -3.642   6.930  0.00  0.00    +0.009 C 
ATOM     37  C   UNL     1      -1.944  -4.421   6.947  0.00  0.00    +0.009 C 
ENDBRANCH  26  35
ENDBRANCH  24  26
ENDBRANCH   5  22
TORSDOF 6
