REMARK  Name = ZINC20757679
REMARK  5 active torsions:
REMARK  status: ('A' for Active; 'I' for Inactive)
REMARK    1  A    between atoms: C_1  and  C_2
REMARK    2  A    between atoms: C_2  and  N_3
REMARK    3  A    between atoms: C_16  and  C_18
REMARK    4  A    between atoms: N_22  and  C_25
REMARK    5  A    between atoms: C_28  and  C_31
REMARK                            x       y       z     vdW  Elec       q    Type
REMARK                         _______ _______ _______ _____ _____    ______ ____
ROOT
ATOM      1  N   UNL     1      -2.716  -2.102   0.015  0.00  0.00    +0.388 N 
ATOM      2  C   UNL     1      -3.650  -2.439   1.098  0.00  0.00    -0.073 C 
ATOM      3  C   UNL     1      -4.807  -3.277   0.535  0.00  0.00    +0.019 C 
ATOM      4  C   UNL     1      -4.210  -4.397  -0.280  0.00  0.00    -0.022 A 
ATOM      5  C   UNL     1      -4.826  -5.613  -0.762  0.00  0.00    +0.003 A 
ATOM      6  C   UNL     1      -6.117  -6.137  -0.645  0.00  0.00    +0.010 A 
ATOM      7  C   UNL     1      -6.352  -7.349  -1.245  0.00  0.00    +0.001 A 
ATOM      8  C   UNL     1      -5.366  -8.032  -1.938  0.00  0.00    +0.002 A 
ATOM      9  C   UNL     1      -4.080  -7.537  -2.070  0.00  0.00    +0.026 A 
ATOM     10  C   UNL     1      -3.811  -6.308  -1.471  0.00  0.00    +0.047 A 
ATOM     11  N   UNL     1      -2.677  -5.550  -1.407  0.00  0.00    -0.359 N 
ATOM     12  H   UNL     1      -1.825  -5.785  -1.808  0.00  0.00    +0.166 HD
ATOM     13  C   UNL     1      -2.922  -4.409  -0.694  0.00  0.00    +0.011 A 
ATOM     14  C   UNL     1      -1.952  -3.293  -0.385  0.00  0.00    +0.021 C 
ATOM     15  H   UNL     1      -3.237  -1.757  -0.777  0.00  0.00    -0.080 HD
ENDROOT
BRANCH  14  16
ATOM     16  C   UNL     1      -1.134  -2.981  -1.612  0.00  0.00    +0.074 A 
ATOM     17  C   UNL     1       0.213  -3.191  -1.616  0.00  0.00    +0.260 A 
ATOM     18  N   UNL     1       0.938  -2.900  -2.744  0.00  0.00    -0.274 N 
ATOM     19  C   UNL     1       0.328  -2.410  -3.839  0.00  0.00    +0.337 A 
ATOM     20  N   UNL     1      -1.000  -2.196  -3.854  0.00  0.00    -0.229 N 
ATOM     21  C   UNL     1      -1.750  -2.474  -2.769  0.00  0.00    +0.267 A 
ATOM     22  O   UNL     1      -2.954  -2.283  -2.790  0.00  0.00    -0.267 OA
ATOM     23  O   UNL     1       0.987  -2.157  -4.829  0.00  0.00    -0.246 OA
ATOM     24  O   UNL     1       0.829  -3.681  -0.520  0.00  0.00    -0.267 OA
ATOM     25  H   UNL     1       1.897  -3.047  -2.752  0.00  0.00    +0.173 HD
BRANCH  20  26
ATOM     26  C   UNL     1      -1.609  -1.684  -5.008  0.00  0.00    +0.054 A 
ATOM     27  C   UNL     1      -1.735  -0.312  -5.178  0.00  0.00    +0.026 A 
ATOM     28  C   UNL     1      -2.336   0.189  -6.316  0.00  0.00    +0.005 A 
ATOM     29  C   UNL     1      -2.811  -0.674  -7.287  0.00  0.00    -0.050 A 
ATOM     30  C   UNL     1      -2.687  -2.041  -7.120  0.00  0.00    +0.005 A 
ATOM     31  C   UNL     1      -2.083  -2.548  -5.986  0.00  0.00    +0.026 A 
ATOM     32  C   UNL     1      -3.465  -0.124  -8.528  0.00  0.00    +0.044 C 
ENDBRANCH  20  26
ENDBRANCH  14  16
BRANCH   1  34
ATOM     33  C   UNL     1      -2.569   0.220   0.777  0.00  0.00    -0.017 C 
ATOM     34  C   UNL     1      -1.789  -1.062   0.478  0.00  0.00    -0.081 C 
ENDBRANCH   1  34
TORSDOF 3
