REMARK  Name = ZINC20798042
REMARK  7 active torsions:
REMARK  status: ('A' for Active; 'I' for Inactive)
REMARK    1  A    between atoms: C_1  and  C_2
REMARK    2  A    between atoms: C_8  and  C_26
REMARK    3  A    between atoms: C_18  and  C_22
REMARK    4  A    between atoms: C_19  and  C_21
REMARK    5  A    between atoms: C_22  and  C_23
REMARK    6  A    between atoms: C_23  and  O_24
REMARK    7  A    between atoms: O_24  and  C_25
REMARK                            x       y       z     vdW  Elec       q    Type
REMARK                         _______ _______ _______ _____ _____    ______ ____
ROOT
ATOM      1  C   UNL     1       2.119  -8.334  -0.056  0.00  0.00    +0.044 C 
ATOM      2  C   UNL     1       2.171  -6.828  -0.050  0.00  0.00    -0.050 A 
ATOM      3  C   UNL     1       0.983  -6.100  -0.035  0.00  0.00    +0.005 A 
ATOM      4  C   UNL     1       0.993  -4.738  -0.029  0.00  0.00    +0.029 A 
ATOM      5  C   UNL     1       2.218  -4.054  -0.038  0.00  0.00    +0.076 A 
ATOM      6  C   UNL     1       3.427  -4.796  -0.053  0.00  0.00    +0.022 A 
ATOM      7  C   UNL     1       3.379  -6.198  -0.059  0.00  0.00    +0.015 A 
ATOM      8  C   UNL     1       4.645  -4.091  -0.061  0.00  0.00    +0.051 A 
ATOM      9  N   UNL     1       4.607  -2.775  -0.055  0.00  0.00    -0.219 NA
ATOM     10  C   UNL     1       3.454  -2.110  -0.041  0.00  0.00    +0.222 A 
ATOM     11  N   UNL     1       2.284  -2.717  -0.028  0.00  0.00    -0.214 NA
ATOM     12  N   UNL     1       3.485  -0.724  -0.034  0.00  0.00    -0.254 N 
ATOM     13  C   UNL     1       2.312  -0.011  -0.020  0.00  0.00    +0.202 A 
ATOM     14  N   UNL     1       2.355   1.349  -0.013  0.00  0.00    -0.295 N 
ATOM     15  H   UNL     1       3.325   1.867  -0.019  0.00  0.00    +0.172 HD
ATOM     16  C   UNL     1       1.206   2.056   0.002  0.00  0.00    +0.256 A 
ATOM     17  O   UNL     1       1.227   3.276   0.007  0.00  0.00    -0.267 OA
ATOM     18  C   UNL     1      -0.016   1.360   0.009  0.00  0.00    +0.040 A 
ATOM     19  C   UNL     1       0.002  -0.004   0.002  0.00  0.00    +0.050 A 
ATOM     20  N   UNL     1       1.163  -0.656  -0.012  0.00  0.00    -0.221 NA
ATOM     21  C   UNL     1      -1.293  -0.774   0.010  0.00  0.00    +0.066 C 
ATOM     22  C   UNL     1       5.961  -4.825  -0.078  0.00  0.00    +0.066 C 
ATOM     23  H   UNL     1       4.449  -0.195  -0.041  0.00  0.00    +0.158 HD
ENDROOT
BRANCH  18  24
ATOM     24  C   UNL     1      -1.324   2.109   0.020  0.00  0.00    +0.070 C 
BRANCH  24  25
ATOM     25  C   UNL     1      -1.698   2.463   1.460  0.00  0.00    +0.164 C 
BRANCH  25  26
ATOM     26  O   UNL     1      -2.938   3.173   1.470  0.00  0.00    -0.383 OA
ATOM     27  C   UNL     1      -3.380   3.553   2.775  0.00  0.00    +0.193 C 
ENDBRANCH  25  26
ENDBRANCH  24  25
ENDBRANCH  18  24
TORSDOF 3
