REMARK  Name = ZINC50653964
REMARK  5 active torsions:
REMARK  status: ('A' for Active; 'I' for Inactive)
REMARK    1  A    between atoms: C_1  and  C_2
REMARK    2  A    between atoms: C_7  and  N_10
REMARK    3  A    between atoms: N_10  and  S_11
REMARK    4  A    between atoms: S_11  and  C_14
REMARK    5  A    between atoms: C_15  and  N_23
REMARK                            x       y       z     vdW  Elec       q    Type
REMARK                         _______ _______ _______ _____ _____    ______ ____
ROOT
ATOM      1  S   UNL     1      -0.974  -3.941   2.062  0.00  0.00    +0.078 S 
ATOM      2  O   UNL     1      -2.371  -4.151   1.908  0.00  0.00    -0.151 OA
ATOM      3  O   UNL     1      -0.010  -4.907   1.666  0.00  0.00    -0.151 OA
ENDROOT
BRANCH   1   4
ATOM      4  C   UNL     1      -0.698  -3.626   3.774  0.00  0.00    +0.220 A 
ATOM      5  C   UNL     1       0.465  -3.808   4.450  0.00  0.00    +0.163 A 
ATOM      6  N   UNL     1       0.272  -3.458   5.727  0.00  0.00    -0.211 NA
ATOM      7  C   UNL     1      -0.983  -3.057   5.885  0.00  0.00    +0.141 A 
ATOM      8  N   UNL     1      -1.616  -3.146   4.672  0.00  0.00    -0.282 N 
ATOM      9  C   UNL     1      -2.926  -2.786   4.548  0.00  0.00    +0.094 A 
ATOM     10  C   UNL     1      -3.619  -2.334   5.615  0.00  0.00    +0.018 A 
ATOM     11  C   UNL     1      -2.998  -2.227   6.869  0.00  0.00    +0.005 A 
ATOM     12  C   UNL     1      -1.693  -2.591   7.008  0.00  0.00    +0.047 A 
BRANCH   5  13
ATOM     13  N   UNL     1       1.664  -4.283   3.904  0.00  0.00    -0.340 N 
ATOM     14  H   UNL     1       1.710  -4.514   2.963  0.00  0.00    +0.144 HD
ATOM     15  H   UNL     1       2.448  -4.381   4.467  0.00  0.00    +0.144 HD
ENDBRANCH   5  13
ENDBRANCH   1   4
BRANCH   1  16
ATOM     16  N   UNL     1      -0.612  -2.548   1.244  0.00  0.00    -0.185 NA
ATOM     17  H   UNL     1      -1.309  -2.067   0.771  0.00  0.00    +0.148 HD
BRANCH  16  23
ATOM     18  C   UNL     1      -0.019   1.526   0.010  0.00  0.00    +0.007 C 
ATOM     19  C   UNL     1       0.002  -0.004   0.002  0.00  0.00    -0.013 C 
ATOM     20  C   UNL     1       0.718  -0.497  -1.257  0.00  0.00    +0.003 C 
ATOM     21  C   UNL     1       0.739  -2.027  -1.265  0.00  0.00    +0.002 C 
ATOM     22  C   UNL     1       1.479  -2.534  -0.026  0.00  0.00    +0.020 C 
ATOM     23  C   UNL     1       0.763  -2.041   1.233  0.00  0.00    +0.077 C 
ATOM     24  C   UNL     1       0.742  -0.511   1.242  0.00  0.00    +0.023 C 
ENDBRANCH  16  23
ENDBRANCH   1  16
TORSDOF 4
