REMARK  Name = ZINC02704486
REMARK  6 active torsions:
REMARK  status: ('A' for Active; 'I' for Inactive)
REMARK    1  A    between atoms: C_2  and  C_3
REMARK    2  A    between atoms: C_3  and  N_4
REMARK    3  A    between atoms: N_4  and  C_5
REMARK    4  A    between atoms: C_6  and  C_21
REMARK    5  A    between atoms: C_8  and  C_10
REMARK    6  A    between atoms: C_10  and  C_11
REMARK                            x       y       z     vdW  Elec       q    Type
REMARK                         _______ _______ _______ _____ _____    ______ ____
ROOT
ATOM      1  C   UNL     1      -2.411  -2.517  -1.326  0.00  0.00    +0.225 A 
ATOM      2  C   UNL     1      -2.579  -3.440  -2.344  0.00  0.00    +0.201 A 
ATOM      3  N   UNL     1      -3.799  -4.017  -2.153  0.00  0.00    -0.200 NA
ATOM      4  C   UNL     1      -4.346  -3.493  -1.100  0.00  0.00    +0.203 A 
ATOM      5  O   UNL     1      -3.520  -2.577  -0.568  0.00  0.00    -0.425 OA
ENDROOT
BRANCH   1   6
ATOM      6  N   UNL     1      -1.318  -1.700  -1.126  0.00  0.00    -0.309 N 
ATOM      7  H   UNL     1      -0.566  -1.737  -1.737  0.00  0.00    +0.149 HD
BRANCH   6   8
ATOM      8  C   UNL     1      -1.293  -0.775   0.010  0.00  0.00    +0.131 C 
BRANCH   8  10
ATOM      9  C   UNL     1      -0.016   1.306   0.009  0.00  0.00    +0.005 C 
ATOM     10  C   UNL     1       0.002  -0.004   0.002  0.00  0.00    -0.016 C 
ENDBRANCH   8  10
ENDBRANCH   6   8
ENDBRANCH   1   6
BRANCH   2  11
ATOM     11  C   UNL     1      -1.650  -3.732  -3.395  0.00  0.00    +0.124 C 
ATOM     12  N   UNL     1      -0.914  -3.964  -4.228  0.00  0.00    -0.189 NA
ENDBRANCH   2  11
BRANCH   4  13
ATOM     13  C   UNL     1      -5.700  -3.862  -0.552  0.00  0.00    +0.131 C 
BRANCH  13  14
ATOM     14  C   UNL     1      -5.552  -4.986   0.441  0.00  0.00    -0.031 A 
ATOM     15  C   UNL     1      -5.717  -6.277   0.043  0.00  0.00    +0.005 A 
ATOM     16  C   UNL     1      -5.583  -7.329   0.946  0.00  0.00    +0.001 A 
ATOM     17  C   UNL     1      -5.284  -7.097   2.254  0.00  0.00    +0.008 A 
ATOM     18  C   UNL     1      -5.106  -5.777   2.702  0.00  0.00    -0.018 A 
ATOM     19  C   UNL     1      -5.236  -4.707   1.782  0.00  0.00    -0.014 A 
ATOM     20  C   UNL     1      -5.052  -3.387   2.229  0.00  0.00    +0.009 A 
ATOM     21  C   UNL     1      -4.747  -3.155   3.535  0.00  0.00    +0.001 A 
ATOM     22  C   UNL     1      -4.614  -4.208   4.439  0.00  0.00    +0.001 A 
ATOM     23  C   UNL     1      -4.797  -5.498   4.044  0.00  0.00    +0.008 A 
ENDBRANCH  13  14
ENDBRANCH   4  13
TORSDOF 6
