REMARK  Name = ZINC16649570
REMARK  9 active torsions:
REMARK  status: ('A' for Active; 'I' for Inactive)
REMARK    1  A    between atoms: C_1  and  C_2
REMARK    2  A    between atoms: C_2  and  C_3
REMARK    3  A    between atoms: C_2  and  C_4
REMARK    4  A    between atoms: C_4  and  C_5
REMARK    5  A    between atoms: N_15  and  C_24
REMARK    6  A    between atoms: N_17  and  C_18
REMARK    7  A    between atoms: C_24  and  C_25
REMARK    8  A    between atoms: C_30  and  C_33
REMARK    9  A    between atoms: C_33  and  C_34
REMARK                            x       y       z     vdW  Elec       q    Type
REMARK                         _______ _______ _______ _____ _____    ______ ____
ROOT
ATOM      1  C   UNL     1      -0.221   8.330  -1.674  0.00  0.00    +0.216 C 
ATOM      2  O   UNL     1      -0.019   8.689  -2.815  0.00  0.00    -0.276 OA
ATOM      3  N   UNL     1       0.722   7.630  -1.012  0.00  0.00    -0.301 N 
ATOM      4  C   UNL     1       1.998   7.296  -1.659  0.00  0.00    +0.110 C 
ATOM      5  C   UNL     1       2.215   5.781  -1.566  0.00  0.00    +0.054 C 
ATOM      6  C   UNL     1       2.101   5.340  -0.110  0.00  0.00    +0.115 C 
ATOM      7  C   UNL     1       0.720   5.674   0.447  0.00  0.00    +0.054 C 
ATOM      8  C   UNL     1       0.492   7.188   0.370  0.00  0.00    +0.110 C 
ATOM      9  C   UNL     1       3.176   5.993   0.724  0.00  0.00    +0.241 C 
ATOM     10  O   UNL     1       3.498   7.162   0.678  0.00  0.00    -0.273 OA
ATOM     11  N   UNL     1       3.719   5.055   1.528  0.00  0.00    -0.275 N 
ATOM     12  C   UNL     1       3.053   3.767   1.300  0.00  0.00    +0.217 C 
ATOM     13  N   UNL     1       2.353   3.888   0.000  0.00  0.00    -0.300 N 
ENDROOT
BRANCH  13  14
ATOM     14  C   UNL     1       1.155   3.171   0.008  0.00  0.00    +0.032 A 
ATOM     15  C   UNL     1       0.263   3.294  -1.050  0.00  0.00    +0.023 A 
ATOM     16  C   UNL     1      -0.922   2.584  -1.038  0.00  0.00    +0.002 A 
ATOM     17  C   UNL     1      -1.223   1.755   0.027  0.00  0.00    +0.000 A 
ATOM     18  C   UNL     1      -0.335   1.626   1.079  0.00  0.00    +0.002 A 
ATOM     19  C   UNL     1       0.852   2.333   1.074  0.00  0.00    +0.023 A 
ENDBRANCH  13  14
BRANCH   1  20
ATOM     20  C   UNL     1      -1.524   8.665  -0.998  0.00  0.00    +0.099 C 
BRANCH  20  22
ATOM     21  C   UNL     1      -3.780   9.691  -1.321  0.00  0.00    +0.008 C 
ATOM     22  C   UNL     1      -2.410   9.458  -1.961  0.00  0.00    -0.008 C 
ATOM     23  C   UNL     1      -1.753  10.806  -2.265  0.00  0.00    +0.008 C 
ENDBRANCH  20  22
ENDBRANCH   1  20
BRANCH  11  24
ATOM     24  C   UNL     1       4.808   5.287   2.481  0.00  0.00    +0.205 C 
BRANCH  24  25
ATOM     25  C   UNL     1       4.230   5.681   3.816  0.00  0.00    +0.233 C 
ATOM     26  O   UNL     1       3.028   5.761   3.957  0.00  0.00    -0.274 OA
ATOM     27  N   UNL     1       5.050   5.946   4.853  0.00  0.00    -0.300 N 
ATOM     28  C   UNL     1       6.508   5.848   4.699  0.00  0.00    +0.108 C 
ATOM     29  C   UNL     1       7.137   7.173   5.153  0.00  0.00    +0.023 C 
ATOM     30  C   UNL     1       6.676   7.488   6.578  0.00  0.00    -0.004 C 
ATOM     31  C   UNL     1       5.154   7.646   6.600  0.00  0.00    +0.023 C 
ATOM     32  C   UNL     1       4.502   6.331   6.160  0.00  0.00    +0.108 C 
BRANCH  30  33
ATOM     33  C   UNL     1       7.330   8.789   7.049  0.00  0.00    +0.038 C 
BRANCH  33  34
ATOM     34  C   UNL     1       8.821   8.595   7.145  0.00  0.00    -0.047 A 
ATOM     35  C   UNL     1       9.387   8.160   8.328  0.00  0.00    +0.003 A 
ATOM     36  C   UNL     1      10.755   7.978   8.415  0.00  0.00    +0.000 A 
ATOM     37  C   UNL     1      11.557   8.241   7.320  0.00  0.00    +0.000 A 
ATOM     38  C   UNL     1      10.992   8.682   6.138  0.00  0.00    +0.000 A 
ATOM     39  C   UNL     1       9.624   8.859   6.051  0.00  0.00    +0.003 A 
ENDBRANCH  33  34
ENDBRANCH  30  33
ENDBRANCH  24  25
ENDBRANCH  11  24
TORSDOF 7
