REMARK  Name = ZINC40753005
REMARK  6 active torsions:
REMARK  status: ('A' for Active; 'I' for Inactive)
REMARK    1  A    between atoms: C_1  and  C_2
REMARK    2  A    between atoms: C_2  and  O_3
REMARK    3  A    between atoms: O_3  and  C_4
REMARK    4  A    between atoms: C_4  and  C_6
REMARK    5  A    between atoms: C_14  and  N_29
REMARK    6  A    between atoms: C_15  and  N_19
REMARK                            x       y       z     vdW  Elec       q    Type
REMARK                         _______ _______ _______ _____ _____    ______ ____
ROOT
ATOM      1  C   UNL     1      -0.090  -4.118  -2.563  0.00  0.00    +0.115 C 
ATOM      2  C   UNL     1       0.090  -2.606  -2.709  0.00  0.00    +0.018 C 
ATOM      3  C   UNL     1       1.579  -2.258  -2.632  0.00  0.00    +0.020 C 
ATOM      4  C   UNL     1       2.319  -2.946  -3.783  0.00  0.00    +0.106 C 
ATOM      5  N   UNL     1       2.033  -4.386  -3.736  0.00  0.00    -0.313 N 
ATOM      6  C   UNL     1       0.631  -4.828  -3.713  0.00  0.00    +0.121 C 
ATOM      7  C   UNL     1       3.067  -5.314  -3.714  0.00  0.00    +0.147 A 
ATOM      8  C   UNL     1       3.548  -5.869  -4.902  0.00  0.00    +0.104 A 
ATOM      9  C   UNL     1       4.589  -6.795  -4.822  0.00  0.00    +0.129 A 
ATOM     10  N   UNL     1       5.079  -7.113  -3.626  0.00  0.00    -0.332 N 
ATOM     11  C   UNL     1       4.597  -6.566  -2.529  0.00  0.00    +0.200 A 
ATOM     12  N   UNL     1       3.619  -5.683  -2.561  0.00  0.00    -0.221 NA
ATOM     13  H   UNL     1       5.802  -7.756  -3.562  0.00  0.00    +0.168 HD
ENDROOT
BRANCH   9  14
ATOM     14  N   UNL     1       5.104  -7.378  -5.975  0.00  0.00    -0.285 N 
ATOM     15  C   UNL     1       6.269  -6.791  -6.652  0.00  0.00    +0.113 C 
ATOM     16  C   UNL     1       5.977  -6.776  -8.158  0.00  0.00    +0.024 C 
ATOM     17  C   UNL     1       5.827  -8.217  -8.646  0.00  0.00    +0.038 C 
ATOM     18  C   UNL     1       4.843  -8.966  -7.787  0.00  0.00    -0.026 A 
ATOM     19  C   UNL     1       4.526  -8.538  -6.506  0.00  0.00    +0.038 A 
ATOM     20  C   UNL     1       3.621  -9.257  -5.734  0.00  0.00    +0.024 A 
ATOM     21  C   UNL     1       3.038 -10.402  -6.240  0.00  0.00    +0.002 A 
ATOM     22  C   UNL     1       3.355 -10.831  -7.516  0.00  0.00    +0.000 A 
ATOM     23  C   UNL     1       4.249 -10.111  -8.290  0.00  0.00    +0.005 A 
ENDBRANCH   9  14
BRANCH   8  24
ATOM     24  N   UNL     1       3.000  -5.504  -6.142  0.00  0.00    -0.353 N 
ATOM     25  H   UNL     1       2.340  -4.795  -6.191  0.00  0.00    +0.143 HD
ATOM     26  H   UNL     1       3.281  -5.962  -6.950  0.00  0.00    +0.143 HD
ENDBRANCH   8  24
BRANCH   1  27
ATOM     27  C   UNL     1      -1.558  -4.456  -2.606  0.00  0.00    +0.312 C 
ATOM     28  O   UNL     1      -1.985  -5.190  -3.467  0.00  0.00    -0.250 OA
BRANCH  27  29
ATOM     29  O   UNL     1      -2.393  -3.942  -1.689  0.00  0.00    -0.465 OA
BRANCH  29  31
ATOM     30  C   UNL     1      -4.560  -3.627  -0.668  0.00  0.00    +0.048 C 
ATOM     31  C   UNL     1      -3.771  -4.304  -1.790  0.00  0.00    +0.229 C 
ENDBRANCH  29  31
ENDBRANCH  27  29
ENDBRANCH   1  27
TORSDOF 5
