REMARK  Name = ZINC10211391
REMARK  10 active torsions:
REMARK  status: ('A' for Active; 'I' for Inactive)
REMARK    1  A    between atoms: C_1  and  C_2
REMARK    2  A    between atoms: C_5  and  N_9
REMARK    3  A    between atoms: C_6  and  C_8
REMARK    4  A    between atoms: C_19  and  S_20
REMARK    5  A    between atoms: S_20  and  C_21
REMARK    6  A    between atoms: C_21  and  C_22
REMARK    7  A    between atoms: N_27  and  C_28
REMARK    8  A    between atoms: C_28  and  C_29
REMARK    9  A    between atoms: C_29  and  C_30
REMARK   10  A    between atoms: C_29  and  C_31
REMARK                            x       y       z     vdW  Elec       q    Type
REMARK                         _______ _______ _______ _____ _____    ______ ____
ROOT
ATOM      1  N   UNL     1       0.037  -2.767  -0.012  0.00  0.00    -0.255 N 
ATOM      2  C   UNL     1       1.239  -2.146  -0.021  0.00  0.00    +0.267 A 
ATOM      3  O   UNL     1       2.277  -2.781  -0.035  0.00  0.00    -0.267 OA
ATOM      4  C   UNL     1       1.245  -0.677  -0.013  0.00  0.00    +0.065 A 
ATOM      5  C   UNL     1       2.432   0.055  -0.021  0.00  0.00    +0.015 A 
ATOM      6  C   UNL     1       2.381   1.421  -0.013  0.00  0.00    +0.001 A 
ATOM      7  C   UNL     1       1.161   2.086   0.002  0.00  0.00    +0.002 A 
ATOM      8  C   UNL     1      -0.017   1.394   0.010  0.00  0.00    +0.028 A 
ATOM      9  C   UNL     1       0.002  -0.004   0.002  0.00  0.00    +0.079 A 
ATOM     10  N   UNL     1      -1.141  -0.729   0.009  0.00  0.00    -0.223 NA
ATOM     11  C   UNL     1      -1.121  -2.039   0.003  0.00  0.00    +0.177 A 
ENDROOT
BRANCH   1  16
ATOM     12  C   UNL     1      -0.204  -8.437  -0.036  0.00  0.00    +0.044 C 
ATOM     13  C   UNL     1      -0.140  -6.931  -0.030  0.00  0.00    -0.050 A 
ATOM     14  C   UNL     1      -0.099  -6.247   1.171  0.00  0.00    +0.005 A 
ATOM     15  C   UNL     1      -0.040  -4.867   1.181  0.00  0.00    +0.027 A 
ATOM     16  C   UNL     1      -0.022  -4.167  -0.018  0.00  0.00    +0.055 A 
ATOM     17  C   UNL     1      -0.069  -4.856  -1.222  0.00  0.00    -0.026 A 
ATOM     18  C   UNL     1      -0.123  -6.236  -1.225  0.00  0.00    +0.008 A 
ATOM     19  C   UNL     1      -0.055  -4.099  -2.526  0.00  0.00    +0.046 C 
ENDBRANCH   1  16
BRANCH  11  20
ATOM     20  S   UNL     1      -2.657  -2.903   0.013  0.00  0.00    -0.078 S 
BRANCH  20  21
ATOM     21  C   UNL     1      -3.804  -1.504   0.032  0.00  0.00    +0.173 C 
BRANCH  21  22
ATOM     22  C   UNL     1      -5.221  -2.016   0.043  0.00  0.00    +0.231 C 
ATOM     23  O   UNL     1      -5.434  -3.210   0.039  0.00  0.00    -0.274 OA
ATOM     24  N   UNL     1      -6.252  -1.148   0.057  0.00  0.00    -0.240 N 
ATOM     25  C   UNL     1      -7.519  -1.606   0.067  0.00  0.00    +0.306 C 
ATOM     26  O   UNL     1      -7.733  -2.803   0.063  0.00  0.00    -0.252 OA
ATOM     27  N   UNL     1      -8.550  -0.738   0.081  0.00  0.00    -0.299 N 
ATOM     28  H   UNL     1      -6.082  -0.193   0.060  0.00  0.00    +0.159 HD
ATOM     29  H   UNL     1      -8.380   0.217   0.085  0.00  0.00    +0.150 HD
BRANCH  27  30
ATOM     30  C   UNL     1      -9.928  -1.236   0.092  0.00  0.00    +0.108 C 
BRANCH  30  31
ATOM     31  C   UNL     1     -10.898  -0.053   0.108  0.00  0.00    -0.000 C 
ATOM     32  C   UNL     1     -10.762   0.735  -1.197  0.00  0.00    +0.009 C 
ATOM     33  C   UNL     1     -12.331  -0.571   0.245  0.00  0.00    +0.009 C 
ENDBRANCH  30  31
ENDBRANCH  27  30
ENDBRANCH  21  22
ENDBRANCH  20  21
ENDBRANCH  11  20
TORSDOF 6
