REMARK  Name = ZINC12572135
REMARK  7 active torsions:
REMARK  status: ('A' for Active; 'I' for Inactive)
REMARK    1  A    between atoms: C_8  and  C_10
REMARK    2  A    between atoms: N_12  and  N_13
REMARK    3  A    between atoms: N_13  and  C_14
REMARK    4  A    between atoms: C_14  and  N_16
REMARK    5  A    between atoms: C_17  and  C_19
REMARK    6  A    between atoms: C_19  and  O_20
REMARK    7  A    between atoms: O_20  and  C_21
REMARK                            x       y       z     vdW  Elec       q    Type
REMARK                         _______ _______ _______ _____ _____    ______ ____
ROOT
ATOM      1  N   UNL     1       3.738   8.740   0.017  0.00  0.00    -0.245 N 
ATOM      2  H   UNL     1       4.680   8.507   0.007  0.00  0.00    +0.172 HD
ENDROOT
BRANCH   1   5
ATOM      3  C   UNL     1       3.140   6.435   0.009  0.00  0.00    +0.268 C 
ATOM      4  O   UNL     1       4.322   6.143  -0.004  0.00  0.00    -0.268 OA
ATOM      5  N   UNL     1       2.767   7.730   0.021  0.00  0.00    -0.231 N 
ATOM      6  H   UNL     1       1.825   7.963   0.031  0.00  0.00    +0.173 HD
BRANCH   3  14
ATOM      7  C   UNL     1      -0.013   1.076   0.008  0.00  0.00    +0.001 A 
ATOM      8  C   UNL     1      -1.235   1.737   0.017  0.00  0.00    +0.001 A 
ATOM      9  C   UNL     1      -1.261   3.117   0.031  0.00  0.00    +0.016 A 
ATOM     10  C   UNL     1      -0.075   3.819   0.023  0.00  0.00    +0.021 A 
ATOM     11  C   UNL     1       1.184   3.173   0.008  0.00  0.00    +0.008 A 
ATOM     12  C   UNL     1       1.164   1.754   0.000  0.00  0.00    +0.010 A 
ATOM     13  C   UNL     1       2.301   4.028   0.003  0.00  0.00    +0.068 A 
ATOM     14  C   UNL     1       2.122   5.377   0.013  0.00  0.00    +0.095 A 
ATOM     15  S   UNL     1       0.346   5.544   0.030  0.00  0.00    -0.082 S 
ATOM     16 CL   UNL     1       3.905   3.364  -0.017  0.00  0.00    -0.082 Cl
ENDBRANCH   3  14
ENDBRANCH   1   5
BRANCH   1  17
ATOM     17  C   UNL     1       3.364  10.034   0.029  0.00  0.00    +0.153 C 
ATOM     18  S   UNL     1       4.551  11.268   0.025  0.00  0.00    -0.017 S 
BRANCH  17  19
ATOM     19  N   UNL     1       2.056  10.358   0.043  0.00  0.00    -0.264 N 
ATOM     20  C   UNL     1       1.682  11.653   0.055  0.00  0.00    +0.256 C 
ATOM     21  O   UNL     1       2.523  12.527   0.052  0.00  0.00    -0.272 OA
ATOM     22  H   UNL     1       1.383   9.659   0.045  0.00  0.00    +0.157 HD
BRANCH  20  23
ATOM     23  C   UNL     1       0.219  12.015   0.071  0.00  0.00    +0.324 C 
BRANCH  23  24
ATOM     24  O   UNL     1       0.081  13.437   0.081  0.00  0.00    -0.483 OA
BRANCH  24  25
ATOM     25  C   UNL     1      -1.185  13.934   0.096  0.00  0.00    +0.121 A 
ATOM     26  C   UNL     1      -2.270  13.069   0.095  0.00  0.00    +0.047 A 
ATOM     27  C   UNL     1      -3.555  13.576   0.117  0.00  0.00    +0.019 A 
ATOM     28  C   UNL     1      -3.760  14.944   0.127  0.00  0.00    +0.018 A 
ATOM     29  C   UNL     1      -2.679  15.808   0.121  0.00  0.00    +0.019 A 
ATOM     30  C   UNL     1      -1.392  15.305   0.106  0.00  0.00    +0.047 A 
ATOM     31 BR   UNL     1      -5.520  15.635   0.149  0.00  0.00    -0.050 Br
ENDBRANCH  24  25
ENDBRANCH  23  24
ENDBRANCH  20  23
ENDBRANCH  17  19
ENDBRANCH   1  17
TORSDOF 7
