REMARK  Name = ZINC63625131
REMARK  8 active torsions:
REMARK  status: ('A' for Active; 'I' for Inactive)
REMARK    1  A    between atoms: C_1  and  C_2
REMARK    2  A    between atoms: C_2  and  C_3
REMARK    3  A    between atoms: C_6  and  C_9
REMARK    4  A    between atoms: C_11  and  C_15
REMARK    5  A    between atoms: N_17  and  C_18
REMARK    6  A    between atoms: C_25  and  N_28
REMARK    7  A    between atoms: C_29  and  C_31
REMARK    8  A    between atoms: C_31  and  C_32
REMARK                            x       y       z     vdW  Elec       q    Type
REMARK                         _______ _______ _______ _____ _____    ______ ____
ROOT
ATOM      1  C   UNL     1       5.137  -1.633  -6.996  0.00  0.00    +0.248 C 
ATOM      2  O   UNL     1       4.681  -0.792  -7.741  0.00  0.00    -0.273 OA
ATOM      3  N   UNL     1       6.471  -1.738  -6.832  0.00  0.00    -0.283 N 
ATOM      4  H   UNL     1       6.832  -2.365  -6.186  0.00  0.00    +0.155 HD
ENDROOT
BRANCH   3   5
ATOM      5  C   UNL     1       7.335  -0.941  -7.595  0.00  0.00    +0.035 A 
ATOM      6  C   UNL     1       6.960   0.356  -7.922  0.00  0.00    +0.024 A 
ATOM      7  C   UNL     1       7.823   1.131  -8.676  0.00  0.00    +0.018 A 
ATOM      8  C   UNL     1       9.030   0.614  -9.089  0.00  0.00    +0.032 A 
ATOM      9  C   UNL     1       9.439  -0.687  -8.778  0.00  0.00    +0.044 A 
ATOM     10  C   UNL     1       8.549  -1.454  -8.007  0.00  0.00    +0.047 A 
ATOM     11  N   UNL     1      10.681  -1.113  -9.246  0.00  0.00    -0.316 N 
ATOM     12  C   UNL     1      11.473  -0.161 -10.034  0.00  0.00    +0.224 C 
ATOM     13  S   UNL     1      10.361   1.302 -10.048  0.00  0.00    -0.082 S 
ATOM     14  H   UNL     1      11.010  -2.006  -9.057  0.00  0.00    +0.149 HD
BRANCH  12  15
ATOM     15  N   UNL     1      12.742   0.147  -9.369  0.00  0.00    -0.288 N 
ATOM     16  C   UNL     1      13.733   0.751 -10.055  0.00  0.00    +0.215 C 
ATOM     17  O   UNL     1      13.575   1.040 -11.222  0.00  0.00    -0.276 OA
ATOM     18  H   UNL     1      12.869  -0.084  -8.436  0.00  0.00    +0.151 HD
BRANCH  16  19
ATOM     19  C   UNL     1      15.038   1.068  -9.370  0.00  0.00    +0.092 C 
ATOM     20  C   UNL     1      15.983   1.747 -10.364  0.00  0.00    +0.013 C 
ENDBRANCH  16  19
ENDBRANCH  12  15
ENDBRANCH   3   5
BRANCH   1  23
ATOM     21  C   UNL     1       2.696  -1.845  -4.738  0.00  0.00    +0.092 C 
ATOM     22  C   UNL     1       4.018  -2.092  -4.821  0.00  0.00    +0.040 C 
ATOM     23  C   UNL     1       4.212  -2.562  -6.252  0.00  0.00    +0.239 C 
ATOM     24  N   UNL     1       2.851  -2.503  -6.811  0.00  0.00    -0.170 NA
ATOM     25  N   UNL     1       2.089  -2.111  -5.925  0.00  0.00    -0.153 NA
BRANCH  21  29
ATOM     26  C   UNL     1       0.703  -0.446  -1.252  0.00  0.00    -0.048 A 
ATOM     27  C   UNL     1      -0.017  -0.683  -2.409  0.00  0.00    +0.004 A 
ATOM     28  C   UNL     1       0.625  -1.137  -3.544  0.00  0.00    +0.010 A 
ATOM     29  C   UNL     1       2.001  -1.356  -3.522  0.00  0.00    +0.002 A 
ATOM     30  C   UNL     1       2.721  -1.115  -2.354  0.00  0.00    +0.010 A 
ATOM     31  C   UNL     1       2.070  -0.656  -1.227  0.00  0.00    +0.004 A 
BRANCH  26  33
ATOM     32  C   UNL     1      -0.025   1.580  -0.021  0.00  0.00    +0.009 C 
ATOM     33  C   UNL     1      -0.003   0.050  -0.017  0.00  0.00    +0.032 C 
ENDBRANCH  26  33
ENDBRANCH  21  29
ENDBRANCH   1  23
TORSDOF 6
