REMARK  Name = ZINC02050082
REMARK  10 active torsions:
REMARK  status: ('A' for Active; 'I' for Inactive)
REMARK    1  A    between atoms: C_1  and  C_2
REMARK    2  A    between atoms: C_2  and  O_3
REMARK    3  A    between atoms: O_3  and  C_4
REMARK    4  A    between atoms: C_9  and  C_10
REMARK    5  A    between atoms: N_12  and  C_13
REMARK    6  A    between atoms: C_13  and  C_14
REMARK    7  A    between atoms: C_13  and  C_18
REMARK    8  A    between atoms: C_13  and  N_22
REMARK    9  A    between atoms: N_22  and  C_23
REMARK   10  A    between atoms: C_24  and  C_32
REMARK                            x       y       z     vdW  Elec       q    Type
REMARK                         _______ _______ _______ _____ _____    ______ ____
ROOT
ATOM      1  C   UNL     1       1.589   1.666  -0.007  0.00  0.00    +0.293 C 
ENDROOT
BRANCH   1   4
ATOM      2  C   UNL     1      -0.217   0.662   1.284  0.00  0.00    +0.250 C 
ATOM      3  O   UNL     1       0.438   0.846   2.292  0.00  0.00    -0.270 OA
ATOM      4  N   UNL     1       0.248   1.085   0.092  0.00  0.00    -0.276 N 
ATOM      5  H   UNL     1      -0.307   1.009  -0.700  0.00  0.00    +0.152 HD
BRANCH   2  11
ATOM      6  C   UNL     1      -2.008  -0.465   2.604  0.00  0.00    +0.133 A 
ATOM      7  C   UNL     1      -3.235  -1.108   2.670  0.00  0.00    +0.046 A 
ATOM      8  C   UNL     1      -3.973  -1.311   1.520  0.00  0.00    +0.004 A 
ATOM      9  C   UNL     1      -3.494  -0.876   0.295  0.00  0.00    +0.001 A 
ATOM     10  C   UNL     1      -2.279  -0.231   0.212  0.00  0.00    +0.017 A 
ATOM     11  C   UNL     1      -1.521  -0.023   1.366  0.00  0.00    +0.078 A 
BRANCH   6  12
ATOM     12  O   UNL     1      -1.283  -0.264   3.733  0.00  0.00    -0.491 OA
BRANCH  12  14
ATOM     13  C   UNL     1      -0.890  -0.426   6.112  0.00  0.00    +0.048 C 
ATOM     14  C   UNL     1      -1.843  -0.742   4.957  0.00  0.00    +0.226 C 
ENDBRANCH  12  14
ENDBRANCH   6  12
ENDBRANCH   2  11
ENDBRANCH   1   4
BRANCH   1  15
ATOM     15  C   UNL     1       2.017   1.714  -1.475  0.00  0.00    +0.436 C 
ATOM     16  F   UNL     1       1.178   2.587  -2.177  0.00  0.00    -0.166 F 
ATOM     17  F   UNL     1       3.338   2.167  -1.562  0.00  0.00    -0.166 F 
ATOM     18  F   UNL     1       1.926   0.433  -2.030  0.00  0.00    -0.166 F 
ENDBRANCH   1  15
BRANCH   1  19
ATOM     19  C   UNL     1       1.575   3.084   0.567  0.00  0.00    +0.436 C 
ATOM     20  F   UNL     1       1.113   3.048   1.887  0.00  0.00    -0.166 F 
ATOM     21  F   UNL     1       2.871   3.611   0.540  0.00  0.00    -0.166 F 
ATOM     22  F   UNL     1       0.728   3.890  -0.202  0.00  0.00    -0.166 F 
ENDBRANCH   1  19
BRANCH   1  23
ATOM     23  N   UNL     1       2.535   0.842   0.750  0.00  0.00    -0.303 N 
ATOM     24  H   UNL     1       3.191   1.263   1.327  0.00  0.00    +0.149 HD
BRANCH  23  25
ATOM     25  C   UNL     1       2.492  -0.537   0.643  0.00  0.00    +0.086 A 
ATOM     26  C   UNL     1       3.279  -1.478   1.292  0.00  0.00    +0.083 A 
ATOM     27  C   UNL     1       3.026  -2.880   1.002  0.00  0.00    -0.018 A 
ATOM     28  C   UNL     1       2.041  -3.114   0.109  0.00  0.00    -0.004 A 
ATOM     29  S   UNL     1       1.446  -1.508  -0.341  0.00  0.00    -0.077 S 
ATOM     30  C   UNL     1       1.566  -4.446  -0.384  0.00  0.00    +0.043 C 
ATOM     31  C   UNL     1       2.615  -5.503  -0.008  0.00  0.00    +0.005 C 
ATOM     32  C   UNL     1       2.995  -5.319   1.464  0.00  0.00    +0.005 C 
ATOM     33  C   UNL     1       3.800  -4.029   1.636  0.00  0.00    +0.037 C 
BRANCH  26  34
ATOM     34  C   UNL     1       4.300  -1.083   2.216  0.00  0.00    +0.102 C 
ATOM     35  N   UNL     1       5.109  -0.769   2.948  0.00  0.00    -0.191 NA
ENDBRANCH  26  34
ENDBRANCH  23  25
ENDBRANCH   1  23
TORSDOF 9
