REMARK  Name = ZINC20694431
REMARK  7 active torsions:
REMARK  status: ('A' for Active; 'I' for Inactive)
REMARK    1  A    between atoms: C_1  and  O_2
REMARK    2  A    between atoms: O_2  and  C_3
REMARK    3  A    between atoms: C_7  and  C_10
REMARK    4  A    between atoms: C_8  and  O_9
REMARK    5  A    between atoms: C_21  and  O_26
REMARK    6  A    between atoms: O_26  and  C_27
REMARK    7  A    between atoms: C_27  and  C_28
REMARK                            x       y       z     vdW  Elec       q    Type
REMARK                         _______ _______ _______ _____ _____    ______ ____
ROOT
ATOM      1  C   UNL     1      -6.294   9.704  -2.955  0.00  0.00    +0.109 C 
ATOM      2  C   UNL     1      -7.253   8.664  -2.406  0.00  0.00    +0.029 C 
ATOM      3  C   UNL     1      -8.506   9.178  -1.684  0.00  0.00    +0.033 C 
ATOM      4  C   UNL     1      -8.775   8.046  -0.690  0.00  0.00    -0.030 C 
ATOM      5  C   UNL     1      -7.646   7.402  -0.419  0.00  0.00    -0.023 C 
ATOM      6  C   UNL     1      -6.538   8.053  -1.164  0.00  0.00    +0.049 C 
ATOM      7  C   UNL     1      -5.366   7.289  -1.645  0.00  0.00    -0.016 A 
ATOM      8  C   UNL     1      -4.938   6.130  -1.036  0.00  0.00    +0.051 A 
ATOM      9  C   UNL     1      -3.818   5.463  -1.509  0.00  0.00    +0.121 A 
ATOM     10  C   UNL     1      -3.132   5.959  -2.608  0.00  0.00    +0.047 A 
ATOM     11  C   UNL     1      -3.564   7.112  -3.230  0.00  0.00    +0.027 A 
ATOM     12  C   UNL     1      -4.683   7.789  -2.760  0.00  0.00    +0.032 A 
ATOM     13  N   UNL     1      -5.112   8.949  -3.422  0.00  0.00    -0.336 N 
ATOM     14  H   UNL     1      -4.551   9.294  -4.304  0.00  0.00    +0.147 HD
ENDROOT
BRANCH   1  19
ATOM     15  C   UNL     1      -6.292  12.701  -0.641  0.00  0.00    +0.162 A 
ATOM     16  C   UNL     1      -5.163  12.452   0.124  0.00  0.00    +0.049 A 
ATOM     17  C   UNL     1      -4.407  11.318  -0.109  0.00  0.00    +0.004 A 
ATOM     18  C   UNL     1      -4.776  10.429  -1.101  0.00  0.00    +0.009 A 
ATOM     19  C   UNL     1      -5.898  10.674  -1.871  0.00  0.00    +0.018 A 
ATOM     20  C   UNL     1      -6.660  11.808  -1.643  0.00  0.00    +0.163 A 
BRANCH  15  22
ATOM     21  C   UNL     1      -6.599  14.686   0.631  0.00  0.00    +0.277 C 
ATOM     22  O   UNL     1      -7.037  13.815  -0.413  0.00  0.00    -0.491 OA
ENDBRANCH  15  22
BRANCH  20  23
ATOM     23  O   UNL     1      -7.767  12.048  -2.397  0.00  0.00    -0.503 OA
ATOM     24  H   UNL     1      -8.057  11.342  -3.188  0.00  0.00    +0.292 HD
ENDBRANCH  20  23
ENDBRANCH   1  19
BRANCH   9  25
ATOM     25  O   UNL     1      -3.396   4.323  -0.900  0.00  0.00    -0.489 OA
BRANCH  25  26
ATOM     26  C   UNL     1      -2.238   3.687  -1.445  0.00  0.00    +0.260 C 
BRANCH  26  27
ATOM     27  C   UNL     1      -1.917   2.430  -0.634  0.00  0.00    +0.156 C 
ATOM     28  C   UNL     1      -0.745   1.658  -1.280  0.00  0.00    +0.037 C 
ATOM     29  C   UNL     1       0.056   1.116  -0.075  0.00  0.00    +0.031 C 
ATOM     30  C   UNL     1      -0.723   1.625   1.157  0.00  0.00    +0.160 C 
ATOM     31  O   UNL     1      -1.443   2.785   0.683  0.00  0.00    -0.373 OA
ENDBRANCH  26  27
ENDBRANCH  25  26
ENDBRANCH   9  25
TORSDOF 6
