REMARK  Name = ZINC13714644
REMARK  8 active torsions:
REMARK  status: ('A' for Active; 'I' for Inactive)
REMARK    1  A    between atoms: C_1  and  C_2
REMARK    2  A    between atoms: C_2  and  C_3
REMARK    3  A    between atoms: C_2  and  C_4
REMARK    4  A    between atoms: C_4  and  N_5
REMARK    5  A    between atoms: N_5  and  C_6
REMARK    6  A    between atoms: C_7  and  C_17
REMARK    7  A    between atoms: N_21  and  C_25
REMARK    8  A    between atoms: C_25  and  C_26
REMARK                            x       y       z     vdW  Elec       q    Type
REMARK                         _______ _______ _______ _____ _____    ______ ____
ROOT
ATOM      1  C   UNL     1      -2.383  -4.709  -5.549  0.00  0.00    +0.134 A 
ATOM      2  C   UNL     1      -1.290  -4.341  -4.731  0.00  0.00    +0.081 A 
ATOM      3  C   UNL     1       0.016  -4.442  -5.268  0.00  0.00    +0.267 A 
ATOM      4  O   UNL     1       0.988  -4.141  -4.597  0.00  0.00    -0.267 OA
ATOM      5  N   UNL     1       0.167  -4.880  -6.537  0.00  0.00    -0.268 N 
ATOM      6  C   UNL     1       1.421  -4.981  -7.063  0.00  0.00    +0.096 A 
ATOM      7  C   UNL     1       1.607  -5.414  -8.330  0.00  0.00    +0.018 A 
ATOM      8  C   UNL     1       0.505  -5.768  -9.121  0.00  0.00    +0.005 A 
ATOM      9  C   UNL     1      -0.752  -5.671  -8.604  0.00  0.00    +0.047 A 
ATOM     10  C   UNL     1      -0.927  -5.217  -7.284  0.00  0.00    +0.142 A 
ATOM     11  N   UNL     1      -2.161  -5.126  -6.787  0.00  0.00    -0.214 NA
ENDROOT
BRANCH   2  12
ATOM     12  C   UNL     1      -1.495  -3.888  -3.407  0.00  0.00    +0.037 C 
ATOM     13  C   UNL     1      -2.310  -2.819  -3.170  0.00  0.00    +0.077 C 
ATOM     14  C   UNL     1      -2.740  -2.265  -1.930  0.00  0.00    +0.259 C 
ATOM     15  O   UNL     1      -2.382  -2.748  -0.870  0.00  0.00    -0.269 OA
ATOM     16  N   UNL     1      -3.543  -1.216  -1.962  0.00  0.00    -0.251 N 
ATOM     17  C   UNL     1      -3.936  -0.677  -3.138  0.00  0.00    +0.121 C 
ATOM     18  S   UNL     1      -4.956   0.670  -3.414  0.00  0.00    -0.027 S 
ATOM     19  S   UNL     1      -3.122  -1.729  -4.331  0.00  0.00    -0.061 S 
BRANCH  16  20
ATOM     20  C   UNL     1      -4.009  -0.624  -0.706  0.00  0.00    +0.151 C 
BRANCH  20  21
ATOM     21  C   UNL     1      -5.386  -1.146  -0.385  0.00  0.00    -0.011 A 
ATOM     22  C   UNL     1      -6.504  -0.431  -0.771  0.00  0.00    +0.006 A 
ATOM     23  C   UNL     1      -7.767  -0.909  -0.477  0.00  0.00    +0.000 A 
ATOM     24  C   UNL     1      -7.913  -2.104   0.203  0.00  0.00    +0.001 A 
ATOM     25  C   UNL     1      -6.796  -2.820   0.590  0.00  0.00    +0.020 A 
ATOM     26  C   UNL     1      -5.531  -2.341   0.296  0.00  0.00    +0.046 A 
ATOM     27 CL   UNL     1      -4.128  -3.240   0.783  0.00  0.00    -0.083 Cl
ENDBRANCH  20  21
ENDBRANCH  16  20
ENDBRANCH   2  12
BRANCH   1  28
ATOM     28  N   UNL     1      -3.670  -4.630  -5.064  0.00  0.00    -0.328 N 
ATOM     29  H   UNL     1      -3.829  -4.321  -4.159  0.00  0.00    +0.147 HD
BRANCH  28  30
ATOM     30  C   UNL     1      -4.799  -5.012  -5.916  0.00  0.00    +0.106 C 
BRANCH  30  32
ATOM     31  C   UNL     1      -7.291  -5.112  -6.069  0.00  0.00    +0.009 C 
ATOM     32  C   UNL     1      -6.106  -4.833  -5.142  0.00  0.00    -0.000 C 
ATOM     33  C   UNL     1      -6.139  -5.809  -3.964  0.00  0.00    +0.009 C 
ENDBRANCH  30  32
ENDBRANCH  28  30
ENDBRANCH   1  28
TORSDOF 6
