REMARK  Name = ZINC40923193
REMARK  10 active torsions:
REMARK  status: ('A' for Active; 'I' for Inactive)
REMARK    1  A    between atoms: C_1  and  C_2
REMARK    2  A    between atoms: C_2  and  C_3
REMARK    3  A    between atoms: C_3  and  O_4
REMARK    4  A    between atoms: O_4  and  C_5
REMARK    5  A    between atoms: C_5  and  C_7
REMARK    6  A    between atoms: C_8  and  C_32
REMARK    7  A    between atoms: C_15  and  C_17
REMARK    8  A    between atoms: C_22  and  O_23
REMARK    9  A    between atoms: O_23  and  C_24
REMARK   10  A    between atoms: C_24  and  C_25
REMARK                            x       y       z     vdW  Elec       q    Type
REMARK                         _______ _______ _______ _____ _____    ______ ____
ROOT
ATOM      1  C   UNL     1       1.274  -3.975   2.452  0.00  0.00    +0.082 C 
ATOM      2  C   UNL     1       2.143  -4.533   3.309  0.00  0.00    +0.020 C 
ATOM      3  N   UNL     1       2.409  -5.880   3.312  0.00  0.00    -0.286 N 
ATOM      4  C   UNL     1       1.566  -6.698   2.574  0.00  0.00    +0.240 A 
ATOM      5  N   UNL     1       1.435  -7.993   2.554  0.00  0.00    -0.092 NA
ATOM      6  N   UNL     1       0.518  -8.338   1.716  0.00  0.00    -0.021 NA
ATOM      7  N   UNL     1       0.010  -7.292   1.149  0.00  0.00    -0.042 NA
ATOM      8  N   UNL     1       0.674  -6.189   1.684  0.00  0.00    -0.201 N 
ATOM      9  C   UNL     1       0.519  -4.766   1.416  0.00  0.00    +0.184 C 
ATOM     10  C   UNL     1       2.852  -3.650   4.304  0.00  0.00    +0.061 C 
ATOM     11  H   UNL     1       3.157  -6.245   3.810  0.00  0.00    +0.155 HD
ENDROOT
BRANCH   9  12
ATOM     12  C   UNL     1       1.068  -4.455   0.047  0.00  0.00    +0.023 A 
ATOM     13  C   UNL     1       2.394  -4.716  -0.242  0.00  0.00    +0.009 A 
ATOM     14  C   UNL     1       2.898  -4.430  -1.496  0.00  0.00    +0.001 A 
ATOM     15  C   UNL     1       2.078  -3.882  -2.466  0.00  0.00    +0.004 A 
ATOM     16  C   UNL     1       0.752  -3.620  -2.182  0.00  0.00    +0.046 A 
ATOM     17  C   UNL     1       0.242  -3.910  -0.925  0.00  0.00    +0.127 A 
BRANCH  17  18
ATOM     18  O   UNL     1      -1.064  -3.658  -0.645  0.00  0.00    -0.487 OA
BRANCH  18  19
ATOM     19  C   UNL     1      -1.855  -3.097  -1.694  0.00  0.00    +0.266 C 
BRANCH  19  20
ATOM     20  C   UNL     1      -3.265  -2.888  -1.203  0.00  0.00    +0.008 A 
ATOM     21  C   UNL     1      -3.602  -3.226   0.094  0.00  0.00    +0.008 A 
ATOM     22  C   UNL     1      -4.894  -3.034   0.545  0.00  0.00    +0.000 A 
ATOM     23  C   UNL     1      -5.851  -2.504  -0.301  0.00  0.00    +0.001 A 
ATOM     24  C   UNL     1      -5.515  -2.166  -1.599  0.00  0.00    +0.020 A 
ATOM     25  C   UNL     1      -4.220  -2.352  -2.048  0.00  0.00    +0.047 A 
ATOM     26 CL   UNL     1      -3.795  -1.921  -3.676  0.00  0.00    -0.083 Cl
ENDBRANCH  19  20
ENDBRANCH  18  19
ENDBRANCH  17  18
ENDBRANCH   9  12
BRANCH   1  27
ATOM     27  C   UNL     1       1.053  -2.582   2.528  0.00  0.00    +0.339 C 
ATOM     28  O   UNL     1       0.077  -2.152   3.114  0.00  0.00    -0.245 OA
BRANCH  27  29
ATOM     29  O   UNL     1       1.925  -1.728   1.951  0.00  0.00    -0.461 OA
BRANCH  29  30
ATOM     30  C   UNL     1       1.639  -0.333   2.068  0.00  0.00    +0.232 C 
BRANCH  30  32
ATOM     31  C   UNL     1       2.424   1.966   1.482  0.00  0.00    +0.007 C 
ATOM     32  C   UNL     1       2.729   0.472   1.358  0.00  0.00    +0.038 C 
ENDBRANCH  30  32
ENDBRANCH  29  30
ENDBRANCH  27  29
ENDBRANCH   1  27
TORSDOF 8
