REMARK  Name = ZINC23617000
REMARK  3 active torsions:
REMARK  status: ('A' for Active; 'I' for Inactive)
REMARK    1  A    between atoms: C_4  and  C_7
REMARK    2  A    between atoms: C_7  and  C_9
REMARK    3  A    between atoms: C_7  and  N_12
REMARK                            x       y       z     vdW  Elec       q    Type
REMARK                         _______ _______ _______ _____ _____    ______ ____
ROOT
ATOM      1  N   UNL     1       2.271   4.101  -0.792  0.00  0.00    +0.392 N 
ATOM      2  C   UNL     1       3.552   3.572  -0.304  0.00  0.00    -0.058 C 
ATOM      3  C   UNL     1       4.682   4.061  -1.212  0.00  0.00    +0.088 C 
ATOM      4  N   UNL     1       4.694   5.531  -1.227  0.00  0.00    -0.316 N 
ATOM      5  C   UNL     1       3.413   6.060  -1.716  0.00  0.00    +0.088 C 
ATOM      6  C   UNL     1       2.283   5.571  -0.808  0.00  0.00    -0.058 C 
ATOM      7  C   UNL     1       5.752   6.011  -1.985  0.00  0.00    +0.168 A 
ATOM      8  C   UNL     1       7.069   5.638  -1.689  0.00  0.00    +0.194 A 
ATOM      9  C   UNL     1       8.091   6.152  -2.494  0.00  0.00    +0.122 A 
ATOM     10  C   UNL     1       9.341   5.589  -1.958  0.00  0.00    +0.046 A 
ATOM     11  C   UNL     1      10.684   5.711  -2.302  0.00  0.00    +0.014 A 
ATOM     12  C   UNL     1      11.640   5.032  -1.577  0.00  0.00    +0.001 A 
ATOM     13  C   UNL     1      11.266   4.230  -0.510  0.00  0.00    +0.004 A 
ATOM     14  C   UNL     1       9.939   4.101  -0.160  0.00  0.00    +0.047 A 
ATOM     15  C   UNL     1       8.960   4.778  -0.878  0.00  0.00    +0.138 A 
ATOM     16  O   UNL     1       7.616   4.832  -0.756  0.00  0.00    -0.450 OA
ATOM     17  N   UNL     1       7.785   6.976  -3.493  0.00  0.00    -0.231 NA
ATOM     18  C   UNL     1       6.532   7.304  -3.731  0.00  0.00    +0.224 A 
ATOM     19  N   UNL     1       5.535   6.839  -3.001  0.00  0.00    -0.217 NA
ATOM     20  H   UNL     1       2.131   3.752  -1.826  0.00  0.00    -0.080 HD
ENDROOT
BRANCH   1  21
ATOM     21  C   UNL     1       1.151   3.592   0.010  0.00  0.00    +0.050 C 
BRANCH  21  25
ATOM     22  C   UNL     1       1.061  -0.673  -0.212  0.00  0.00    +0.000 A 
ATOM     23  C   UNL     1       2.008  -0.041   0.572  0.00  0.00    +0.000 A 
ATOM     24  C   UNL     1       2.037   1.339   0.644  0.00  0.00    +0.002 A 
ATOM     25  C   UNL     1       1.119   2.088  -0.069  0.00  0.00    -0.052 A 
ATOM     26  C   UNL     1       0.172   1.456  -0.853  0.00  0.00    +0.002 A 
ATOM     27  C   UNL     1       0.143   0.076  -0.924  0.00  0.00    +0.000 A 
ENDBRANCH  21  25
BRANCH  21  28
ATOM     28  C   UNL     1       1.327   4.017   1.445  0.00  0.00    +0.201 C 
ATOM     29  O   UNL     1       2.291   4.678   1.768  0.00  0.00    -0.277 OA
ATOM     30  N   UNL     1       0.413   3.661   2.370  0.00  0.00    -0.330 N 
ATOM     31  H   UNL     1       0.542   3.971   3.418  0.00  0.00    +0.145 HD
ATOM     32  H   UNL     1      -0.461   3.061   2.077  0.00  0.00    +0.145 HD
ENDBRANCH  21  28
ENDBRANCH   1  21
TORSDOF 3
