REMARK  Name = ZINC40447352
REMARK  12 active torsions:
REMARK  status: ('A' for Active; 'I' for Inactive)
REMARK    1  A    between atoms: C_1  and  C_2
REMARK    2  A    between atoms: C_2  and  C_3
REMARK    3  A    between atoms: C_8  and  C_11
REMARK    4  A    between atoms: N_13  and  C_14
REMARK    5  A    between atoms: C_14  and  C_16
REMARK    6  A    between atoms: C_14  and  C_32
REMARK    7  A    between atoms: C_18  and  O_31
REMARK    8  A    between atoms: C_20  and  O_30
REMARK    9  A    between atoms: C_22  and  O_29
REMARK   10  A    between atoms: C_24  and  S_27
REMARK   11  A    between atoms: S_27  and  C_28
REMARK   12  A    between atoms: C_32  and  C_34
REMARK                            x       y       z     vdW  Elec       q    Type
REMARK                         _______ _______ _______ _____ _____    ______ ____
ROOT
ATOM      1  C   UNL     1       0.230  -6.110   3.130  0.00  0.00    +0.122 C 
ENDROOT
BRANCH   1   2
ATOM      2  C   UNL     1      -0.793  -6.230   4.261  0.00  0.00    +0.172 C 
ATOM      3  C   UNL     1      -1.012  -7.708   4.597  0.00  0.00    +0.176 C 
ATOM      4  C   UNL     1       0.306  -8.311   5.094  0.00  0.00    +0.177 C 
ATOM      5  C   UNL     1       0.799  -7.507   6.302  0.00  0.00    +0.184 C 
ATOM      6  C   UNL     1       0.947  -6.037   5.901  0.00  0.00    +0.207 C 
ATOM      7  O   UNL     1      -0.306  -5.547   5.418  0.00  0.00    -0.356 OA
BRANCH   6   8
ATOM      8  S   UNL     1       1.463  -5.066   7.343  0.00  0.00    -0.131 S 
ATOM      9  C   UNL     1       1.739  -3.402   6.675  0.00  0.00    +0.087 C 
ENDBRANCH   6   8
BRANCH   5  10
ATOM     10  O   UNL     1      -0.146  -7.619   7.368  0.00  0.00    -0.386 OA
ATOM     11  H   UNL     1       0.102  -7.134   8.166  0.00  0.00    +0.210 HD
ENDBRANCH   5  10
BRANCH   4  12
ATOM     12  O   UNL     1       0.094  -9.671   5.477  0.00  0.00    -0.386 OA
ATOM     13  H   UNL     1       0.888 -10.116   5.803  0.00  0.00    +0.210 HD
ENDBRANCH   4  12
BRANCH   3  14
ATOM     14  O   UNL     1      -2.006  -7.824   5.616  0.00  0.00    -0.387 OA
ATOM     15  H   UNL     1      -2.196  -8.735   5.879  0.00  0.00    +0.210 HD
ENDBRANCH   3  14
ENDBRANCH   1   2
BRANCH   1  18
ATOM     16  C   UNL     1       1.885  -4.344   2.850  0.00  0.00    +0.199 C 
ATOM     17  O   UNL     1       2.753  -5.187   2.920  0.00  0.00    -0.278 OA
ATOM     18  N   UNL     1       0.589  -4.702   2.944  0.00  0.00    -0.310 N 
ATOM     19  H   UNL     1      -0.106  -4.027   2.888  0.00  0.00    +0.149 HD
BRANCH  16  24
ATOM     20  C   UNL     1       2.456  -1.043   0.998  0.00  0.00    -0.014 C 
ATOM     21  C   UNL     1       3.891  -0.827   1.486  0.00  0.00    -0.016 C 
ATOM     22  C   UNL     1       4.000  -1.269   2.946  0.00  0.00    -0.081 C 
ATOM     23  N   UNL     1       3.653  -2.691   3.058  0.00  0.00    +0.387 N 
ATOM     24  C   UNL     1       2.255  -2.895   2.659  0.00  0.00    +0.016 C 
ATOM     25  C   UNL     1       2.077  -2.514   1.188  0.00  0.00    -0.003 C 
ATOM     26  H   UNL     1       4.255  -3.232   2.455  0.00  0.00    -0.085 HD
ATOM     27  H   UNL     1       3.777  -2.993   4.013  0.00  0.00    -0.085 HD
BRANCH  20  29
ATOM     28  C   UNL     1       2.620   0.821  -0.658  0.00  0.00    +0.004 C 
ATOM     29  C   UNL     1       2.359  -0.677  -0.485  0.00  0.00    -0.000 C 
ENDBRANCH  20  29
ENDBRANCH  16  24
ENDBRANCH   1  18
BRANCH   1  30
ATOM     30  C   UNL     1      -0.376  -6.656   1.835  0.00  0.00    +0.100 C 
ATOM     31  C   UNL     1       0.555  -6.341   0.663  0.00  0.00    +0.026 C 
ATOM     32 CL   UNL     1      -0.582  -8.442   1.975  0.00  0.00    -0.120 Cl
ENDBRANCH   1  30
TORSDOF 9
