REMARK  Name = ZINC64774542
REMARK  13 active torsions:
REMARK  status: ('A' for Active; 'I' for Inactive)
REMARK    1  A    between atoms: C_1  and  C_2
REMARK    2  A    between atoms: C_4  and  C_35
REMARK    3  A    between atoms: C_5  and  N_9
REMARK    4  A    between atoms: C_6  and  C_8
REMARK    5  A    between atoms: C_10  and  C_12
REMARK    6  A    between atoms: C_12  and  C_14
REMARK    7  A    between atoms: C_12  and  S_15
REMARK    8  A    between atoms: S_15  and  C_16
REMARK    9  A    between atoms: C_20  and  C_23
REMARK   10  A    between atoms: C_25  and  C_34
REMARK   11  A    between atoms: C_27  and  C_33
REMARK   12  A    between atoms: C_28  and  N_29
REMARK   13  A    between atoms: C_30  and  C_32
REMARK                            x       y       z     vdW  Elec       q    Type
REMARK                         _______ _______ _______ _____ _____    ______ ____
ROOT
ATOM      1  C   UNL     1      -2.683  -9.355   0.762  0.00  0.00    +0.213 A 
ATOM      2  N   UNL     1      -3.187  -9.696   1.943  0.00  0.00    -0.180 NA
ATOM      3  C   UNL     1      -3.119 -10.960   2.341  0.00  0.00    +0.300 A 
ATOM      4  O   UNL     1      -3.626 -11.336   3.540  0.00  0.00    -0.263 OA
ATOM      5  C   UNL     1      -2.511 -11.902   1.491  0.00  0.00    +0.161 A 
ATOM      6  N   UNL     1      -2.026 -11.496   0.323  0.00  0.00    -0.141 NA
ATOM      7  N   UNL     1      -2.117 -10.260  -0.027  0.00  0.00    -0.122 NA
ENDROOT
BRANCH   5   8
ATOM      8  C   UNL     1      -2.411 -13.324   1.893  0.00  0.00    +0.029 A 
ATOM      9  C   UNL     1      -3.522 -13.983   2.417  0.00  0.00    +0.015 A 
ATOM     10  C   UNL     1      -3.424 -15.308   2.790  0.00  0.00    -0.049 A 
ATOM     11  C   UNL     1      -2.227 -15.986   2.647  0.00  0.00    +0.008 A 
ATOM     12  C   UNL     1      -1.118 -15.344   2.129  0.00  0.00    -0.028 A 
ATOM     13  C   UNL     1      -1.203 -14.015   1.743  0.00  0.00    +0.046 A 
ATOM     14  C   UNL     1       0.182 -16.091   1.977  0.00  0.00    +0.046 C 
ATOM     15  C   UNL     1      -4.627 -16.018   3.356  0.00  0.00    +0.044 C 
BRANCH  13  16
ATOM     16  N   UNL     1      -0.085 -13.365   1.214  0.00  0.00    -0.285 N 
ATOM     17  C   UNL     1       0.327 -12.195   1.740  0.00  0.00    +0.214 C 
ATOM     18  O   UNL     1      -0.234 -11.736   2.713  0.00  0.00    -0.276 OA
ATOM     19  C   UNL     1       1.485 -11.456   1.121  0.00  0.00    +0.109 C 
ATOM     20  H   UNL     1       0.396 -13.757   0.467  0.00  0.00    +0.155 HD
ENDBRANCH  13  16
ENDBRANCH   5   8
BRANCH   1  21
ATOM     21  S   UNL     1      -2.772  -7.677   0.233  0.00  0.00    -0.072 S 
BRANCH  21  22
ATOM     22  C   UNL     1      -1.976  -7.688  -1.397  0.00  0.00    +0.137 C 
ATOM     23  C   UNL     1      -0.498  -8.051  -1.241  0.00  0.00    +0.029 C 
BRANCH  22  25
ATOM     24  N   UNL     1      -2.053  -6.190  -3.364  0.00  0.00    -0.284 N 
ATOM     25  C   UNL     1      -2.094  -6.322  -2.024  0.00  0.00    +0.230 C 
ATOM     26  O   UNL     1      -2.227  -5.343  -1.321  0.00  0.00    -0.274 OA
ATOM     27  H   UNL     1      -1.901  -6.968  -3.924  0.00  0.00    +0.155 HD
BRANCH  24  32
ATOM     28  C   UNL     1      -2.763  -1.085  -5.734  0.00  0.00    +0.044 C 
ATOM     29  C   UNL     1      -2.575  -2.441  -5.105  0.00  0.00    -0.050 A 
ATOM     30  C   UNL     1      -1.476  -2.681  -4.300  0.00  0.00    +0.008 A 
ATOM     31  C   UNL     1      -1.300  -3.923  -3.722  0.00  0.00    -0.029 A 
ATOM     32  C   UNL     1      -2.228  -4.931  -3.948  0.00  0.00    +0.039 A 
ATOM     33  C   UNL     1      -3.331  -4.686  -4.756  0.00  0.00    -0.029 A 
ATOM     34  C   UNL     1      -3.504  -3.441  -5.328  0.00  0.00    +0.008 A 
ATOM     35  C   UNL     1      -4.341  -5.777  -5.005  0.00  0.00    +0.045 C 
ATOM     36  C   UNL     1      -0.102  -4.184  -2.846  0.00  0.00    +0.045 C 
ENDBRANCH  24  32
ENDBRANCH  22  25
ENDBRANCH  21  22
ENDBRANCH   1  21
TORSDOF 6
