REMARK  Name = ZINC62348514
REMARK  12 active torsions:
REMARK  status: ('A' for Active; 'I' for Inactive)
REMARK    1  A    between atoms: C_1  and  C_2
REMARK    2  A    between atoms: C_2  and  C_4
REMARK    3  A    between atoms: C_2  and  N_25
REMARK    4  A    between atoms: C_4  and  N_5
REMARK    5  A    between atoms: C_6  and  C_8
REMARK    6  A    between atoms: C_8  and  C_9
REMARK    7  A    between atoms: C_9  and  C_10
REMARK    8  A    between atoms: C_18  and  O_20
REMARK    9  A    between atoms: O_20  and  C_21
REMARK   10  A    between atoms: C_21  and  C_22
REMARK   11  A    between atoms: C_21  and  C_23
REMARK   12  A    between atoms: C_21  and  C_24
REMARK                            x       y       z     vdW  Elec       q    Type
REMARK                         _______ _______ _______ _____ _____    ______ ____
ROOT
ATOM      1  C   UNL     1      -3.798  -4.873   0.264  0.00  0.00    +0.105 C 
ENDROOT
BRANCH   1   2
ATOM      2  C   UNL     1      -3.721  -6.378   0.257  0.00  0.00    +0.216 C 
ATOM      3  O   UNL     1      -2.641  -6.930   0.213  0.00  0.00    -0.276 OA
ATOM      4  N   UNL     1      -4.851  -7.112   0.299  0.00  0.00    -0.298 N 
ATOM      5  C   UNL     1      -6.166  -6.457   0.346  0.00  0.00    +0.127 C 
ATOM      6  C   UNL     1      -7.016  -6.982  -0.817  0.00  0.00    +0.130 C 
ATOM      7  N   UNL     1      -6.956  -8.451  -0.818  0.00  0.00    -0.264 N 
ATOM      8  C   UNL     1      -5.641  -9.105  -0.865  0.00  0.00    +0.130 C 
ATOM      9  C   UNL     1      -4.790  -8.580   0.293  0.00  0.00    +0.127 C 
ATOM     10  C   UNL     1      -8.086  -9.184  -0.775  0.00  0.00    +0.403 C 
ATOM     11  O   UNL     1      -9.167  -8.632  -0.736  0.00  0.00    -0.226 OA
BRANCH  10  12
ATOM     12  O   UNL     1      -8.016 -10.529  -0.776  0.00  0.00    -0.445 OA
BRANCH  12  13
ATOM     13  C   UNL     1      -9.253 -11.242  -0.730  0.00  0.00    +0.107 C 
ATOM     14  C   UNL     1     -10.101 -10.874  -1.949  0.00  0.00    +0.055 C 
ATOM     15  C   UNL     1      -8.975 -12.747  -0.738  0.00  0.00    +0.055 C 
ATOM     16  C   UNL     1     -10.009 -10.871   0.547  0.00  0.00    +0.055 C 
ENDBRANCH  12  13
ENDBRANCH  10  12
ENDBRANCH   1   2
BRANCH   1  17
ATOM     17  C   UNL     1      -2.385  -4.290   0.210  0.00  0.00    +0.105 C 
BRANCH  17  19
ATOM     18  N   UNL     1      -1.333  -2.051   0.174  0.00  0.00    -0.317 N 
ATOM     19  C   UNL     1      -2.463  -2.785   0.216  0.00  0.00    +0.213 C 
ATOM     20  O   UNL     1      -3.542  -2.233   0.260  0.00  0.00    -0.276 OA
ATOM     21  H   UNL     1      -0.469  -2.492   0.139  0.00  0.00    +0.149 HD
BRANCH  18  22
ATOM     22  C   UNL     1      -1.408  -0.588   0.181  0.00  0.00    +0.088 C 
BRANCH  22  24
ATOM     23  C   UNL     1       0.517  -0.368  -1.396  0.00  0.00    -0.012 C 
ATOM     24  C   UNL     1      -0.006  -0.004  -0.005  0.00  0.00    -0.054 C 
BRANCH  24  25
ATOM     25  N   UNL     1      -0.063   1.457   0.130  0.00  0.00    +0.382 N 
ATOM     26  C   UNL     1      -0.521   1.829   1.493  0.00  0.00    -0.078 C 
ATOM     27  C   UNL     1       0.001   3.278   1.659  0.00  0.00    -0.020 C 
ATOM     28  C   UNL     1       1.373   3.236   0.949  0.00  0.00    -0.020 C 
ATOM     29  C   UNL     1       1.291   2.035  -0.013  0.00  0.00    -0.078 C 
ATOM     30  H   UNL     1      -0.682   1.848  -0.565  0.00  0.00    -0.081 HD
ENDBRANCH  24  25
ENDBRANCH  22  24
ENDBRANCH  18  22
ENDBRANCH  17  19
ENDBRANCH   1  17
TORSDOF 8
