REMARK  Name = ZINC39604919
REMARK  7 active torsions:
REMARK  status: ('A' for Active; 'I' for Inactive)
REMARK    1  A    between atoms: C_4  and  C_7
REMARK    2  A    between atoms: C_7  and  O_8
REMARK    3  A    between atoms: O_8  and  C_9
REMARK    4  A    between atoms: C_14  and  C_17
REMARK    5  A    between atoms: C_21  and  C_30
REMARK    6  A    between atoms: N_32  and  C_33
REMARK    7  A    between atoms: C_33  and  C_34
REMARK                            x       y       z     vdW  Elec       q    Type
REMARK                         _______ _______ _______ _____ _____    ______ ____
ROOT
ATOM      1  C   UNL     1       8.141  -0.501   6.077  0.00  0.00    +0.219 C 
ATOM      2  O   UNL     1       7.896   0.647   6.382  0.00  0.00    -0.275 OA
ATOM      3  N   UNL     1       9.247  -1.104   6.558  0.00  0.00    -0.300 N 
ATOM      4  C   UNL     1       9.773  -2.445   6.211  0.00  0.00    +0.121 C 
ATOM      5  C   UNL     1      11.306  -2.260   6.152  0.00  0.00    +0.100 C 
ATOM      6  C   UNL     1      11.587  -1.032   7.036  0.00  0.00    -0.004 C 
ATOM      7  C   UNL     1      10.214  -0.573   7.548  0.00  0.00    +0.115 C 
ATOM      8  C   UNL     1      12.486  -1.419   8.207  0.00  0.00    -0.010 C 
ATOM      9  C   UNL     1      12.798  -0.171   9.037  0.00  0.00    -0.082 C 
ATOM     10  N   UNL     1      13.463   0.828   8.193  0.00  0.00    +0.379 N 
ATOM     11  C   UNL     1      12.557   1.263   7.123  0.00  0.00    -0.082 C 
ATOM     12  C   UNL     1      12.234   0.076   6.211  0.00  0.00    -0.010 C 
ATOM     13  H   UNL     1      13.722   1.624   8.756  0.00  0.00    -0.086 HD
ATOM     14  H   UNL     1      14.293   0.424   7.785  0.00  0.00    -0.086 HD
ENDROOT
BRANCH   1  20
ATOM     15  C   UNL     1       3.330  -1.873   3.966  0.00  0.00    +0.403 C 
ATOM     16  O   UNL     1       2.829  -1.102   3.173  0.00  0.00    -0.226 OA
ATOM     17  N   UNL     1       4.669  -1.915   4.111  0.00  0.00    -0.267 N 
ATOM     18  C   UNL     1       5.290  -2.847   5.062  0.00  0.00    +0.112 C 
ATOM     19  C   UNL     1       6.212  -2.057   5.996  0.00  0.00    +0.032 C 
ATOM     20  C   UNL     1       7.211  -1.253   5.161  0.00  0.00    +0.078 C 
ATOM     21  C   UNL     1       6.455  -0.260   4.275  0.00  0.00    +0.032 C 
ATOM     22  C   UNL     1       5.536  -1.034   3.317  0.00  0.00    +0.112 C 
BRANCH  15  23
ATOM     23  O   UNL     1       2.547  -2.687   4.700  0.00  0.00    -0.445 OA
BRANCH  23  24
ATOM     24  C   UNL     1       1.137  -2.589   4.495  0.00  0.00    +0.269 C 
BRANCH  24  28
ATOM     25  C   UNL     1      -0.872  -5.361   7.050  0.00  0.00    +0.000 A 
ATOM     26  C   UNL     1      -0.613  -4.077   7.491  0.00  0.00    +0.000 A 
ATOM     27  C   UNL     1       0.038  -3.180   6.665  0.00  0.00    +0.007 A 
ATOM     28  C   UNL     1       0.429  -3.567   5.396  0.00  0.00    -0.010 A 
ATOM     29  C   UNL     1       0.170  -4.851   4.955  0.00  0.00    +0.007 A 
ATOM     30  C   UNL     1      -0.481  -5.748   5.781  0.00  0.00    +0.000 A 
ENDBRANCH  24  28
ENDBRANCH  23  24
ENDBRANCH  15  23
ENDBRANCH   1  20
BRANCH   5  31
ATOM     31  C   UNL     1      11.750  -2.001   4.736  0.00  0.00    +0.218 C 
ATOM     32  O   UNL     1      11.024  -1.397   3.974  0.00  0.00    -0.275 OA
ATOM     33  N   UNL     1      12.952  -2.442   4.315  0.00  0.00    -0.313 N 
ATOM     34  H   UNL     1      13.532  -2.925   4.924  0.00  0.00    +0.149 HD
BRANCH  33  35
ATOM     35  C   UNL     1      13.383  -2.190   2.938  0.00  0.00    +0.135 C 
BRANCH  35  36
ATOM     36  C   UNL     1      14.774  -2.790   2.721  0.00  0.00    +0.135 C 
ATOM     37  C   UNL     1      15.287  -2.426   1.311  0.00  0.00    +0.035 C 
ATOM     38  C   UNL     1      15.996  -3.736   0.871  0.00  0.00    +0.031 C 
ATOM     39  C   UNL     1      15.095  -4.800   1.547  0.00  0.00    +0.160 C 
ATOM     40  O   UNL     1      14.706  -4.218   2.804  0.00  0.00    -0.375 OA
ENDBRANCH  35  36
ENDBRANCH  33  35
ENDBRANCH   5  31
TORSDOF 7
