REMARK  Name = ZINC32111915
REMARK  10 active torsions:
REMARK  status: ('A' for Active; 'I' for Inactive)
REMARK    1  A    between atoms: C_1  and  C_2
REMARK    2  A    between atoms: C_2  and  O_3
REMARK    3  A    between atoms: O_3  and  C_4
REMARK    4  A    between atoms: C_8  and  C_11
REMARK    5  A    between atoms: C_9  and  O_10
REMARK    6  A    between atoms: N_12  and  C_13
REMARK    7  A    between atoms: C_17  and  N_19
REMARK    8  A    between atoms: C_20  and  C_22
REMARK    9  A    between atoms: C_22  and  C_23
REMARK   10  A    between atoms: C_22  and  C_24
REMARK                            x       y       z     vdW  Elec       q    Type
REMARK                         _______ _______ _______ _____ _____    ______ ____
ROOT
ATOM      1  C   UNL     1      -6.995   1.542  -0.519  0.00  0.00    +0.124 C 
ATOM      2  N   UNL     1      -5.993   1.943   0.213  0.00  0.00    -0.255 NA
ENDROOT
BRANCH   1   7
ATOM      3  C   UNL     1     -10.524   2.589  -1.291  0.00  0.00    +0.163 A 
ATOM      4  C   UNL     1     -10.639   3.725  -0.505  0.00  0.00    +0.065 A 
ATOM      5  C   UNL     1      -9.574   4.150   0.272  0.00  0.00    +0.036 A 
ATOM      6  C   UNL     1      -8.389   3.442   0.277  0.00  0.00    +0.044 A 
ATOM      7  C   UNL     1      -8.257   2.296  -0.516  0.00  0.00    +0.053 A 
ATOM      8  C   UNL     1      -9.336   1.868  -1.302  0.00  0.00    +0.168 A 
ATOM      9 BR   UNL     1      -6.943   4.025   1.347  0.00  0.00    -0.048 Br
ATOM     10 BR   UNL     1      -9.747   5.702   1.337  0.00  0.00    -0.049 Br
BRANCH   8  11
ATOM     11  O   UNL     1      -9.221   0.754  -2.070  0.00  0.00    -0.503 OA
ATOM     12  H   UNL     1      -8.280   0.185  -2.077  0.00  0.00    +0.292 HD
ENDBRANCH   8  11
BRANCH   3  13
ATOM     13  O   UNL     1     -11.575   2.179  -2.051  0.00  0.00    -0.489 OA
BRANCH  13  15
ATOM     14  C   UNL     1     -13.829   2.356  -2.905  0.00  0.00    +0.048 C 
ATOM     15  C   UNL     1     -12.765   2.968  -1.991  0.00  0.00    +0.226 C 
ENDBRANCH  13  15
ENDBRANCH   3  13
ENDBRANCH   1   7
BRANCH   2  16
ATOM     16  C   UNL     1      -4.819   1.240   0.209  0.00  0.00    +0.066 A 
ATOM     17  C   UNL     1      -4.835  -0.154   0.302  0.00  0.00    +0.028 A 
ATOM     18  C   UNL     1      -3.649  -0.859   0.299  0.00  0.00    +0.004 A 
ATOM     19  C   UNL     1      -2.442  -0.191   0.205  0.00  0.00    +0.023 A 
ATOM     20  C   UNL     1      -2.415   1.196   0.113  0.00  0.00    +0.035 A 
ATOM     21  C   UNL     1      -3.600   1.914   0.120  0.00  0.00    +0.051 A 
BRANCH  20  22
ATOM     22  N   UNL     1      -1.191   1.867   0.018  0.00  0.00    -0.285 N 
ATOM     23  C   UNL     1      -1.098   3.002  -0.703  0.00  0.00    +0.220 C 
ATOM     24  O   UNL     1      -2.050   3.391  -1.346  0.00  0.00    -0.275 OA
ATOM     25  H   UNL     1      -0.303   1.467   0.531  0.00  0.00    +0.155 HD
BRANCH  23  26
ATOM     26  C   UNL     1       0.185   3.792  -0.703  0.00  0.00    +0.069 C 
ATOM     27  C   UNL     1       0.022   5.029  -1.588  0.00  0.00    +0.017 C 
ATOM     28  C   UNL     1       0.518   4.226   0.726  0.00  0.00    +0.017 C 
ENDBRANCH  23  26
ENDBRANCH  20  22
ENDBRANCH   2  16
TORSDOF 7
