REMARK  Name = ZINC12644205
REMARK  11 active torsions:
REMARK  status: ('A' for Active; 'I' for Inactive)
REMARK    1  A    between atoms: C_1  and  C_2
REMARK    2  A    between atoms: C_2  and  C_4
REMARK    3  A    between atoms: C_2  and  N_53
REMARK    4  A    between atoms: C_7  and  S_16
REMARK    5  A    between atoms: N_8  and  C_9
REMARK    6  A    between atoms: S_16  and  C_17
REMARK    7  A    between atoms: C_17  and  C_19
REMARK    8  A    between atoms: C_17  and  C_20
REMARK    9  A    between atoms: N_22  and  C_23
REMARK   10  A    between atoms: C_31  and  N_53
REMARK   11  A    between atoms: C_32  and  N_53
REMARK                            x       y       z     vdW  Elec       q    Type
REMARK                         _______ _______ _______ _____ _____    ______ ____
ROOT
ATOM      1  C   UNL     1      -1.496   3.502   2.481  0.00  0.00    +0.125 A 
ATOM      2  N   UNL     1      -2.607   3.015   2.958  0.00  0.00    -0.135 NA
ATOM      3  N   UNL     1      -2.925   3.621   4.046  0.00  0.00    -0.122 NA
ATOM      4  C   UNL     1      -2.027   4.537   4.327  0.00  0.00    +0.197 A 
ATOM      5  N   UNL     1      -1.082   4.487   3.338  0.00  0.00    -0.275 N 
ENDROOT
BRANCH   5   6
ATOM      6  C   UNL     1       0.069   5.280   3.225  0.00  0.00    +0.050 A 
ATOM      7  C   UNL     1       1.326   4.699   3.317  0.00  0.00    +0.028 A 
ATOM      8  C   UNL     1       2.458   5.482   3.201  0.00  0.00    +0.022 A 
ATOM      9  C   UNL     1       2.340   6.846   3.003  0.00  0.00    +0.041 A 
ATOM     10  C   UNL     1       1.088   7.429   2.916  0.00  0.00    +0.022 A 
ATOM     11  C   UNL     1      -0.047   6.649   3.027  0.00  0.00    +0.028 A 
ATOM     12 CL   UNL     1       3.765   7.828   2.863  0.00  0.00    -0.084 Cl
ENDBRANCH   5   6
BRANCH   1  14
ATOM     13  C   UNL     1      -1.549   3.592   0.004  0.00  0.00    -0.005 C 
ATOM     14  C   UNL     1      -0.794   3.060   1.223  0.00  0.00    -0.003 C 
BRANCH  14  17
ATOM     15  C   UNL     1      -0.078   1.123  -0.042  0.00  0.00    -0.096 C 
ATOM     16  C   UNL     1      -0.121   1.040   2.377  0.00  0.00    -0.096 C 
ATOM     17  N   UNL     1      -0.784   1.582   1.173  0.00  0.00    +0.382 N 
ATOM     18  H   UNL     1      -1.753   1.243   1.144  0.00  0.00    -0.082 HD
ENDBRANCH  14  17
ENDBRANCH   1  14
BRANCH   4  19
ATOM     19  S   UNL     1      -2.033   5.620   5.717  0.00  0.00    -0.073 S 
BRANCH  19  20
ATOM     20  C   UNL     1      -3.556   5.077   6.530  0.00  0.00    +0.137 C 
ATOM     21  C   UNL     1      -4.754   5.391   5.632  0.00  0.00    +0.029 C 
BRANCH  20  22
ATOM     22  C   UNL     1      -3.709   5.801   7.843  0.00  0.00    +0.230 C 
ATOM     23  O   UNL     1      -3.180   6.881   8.006  0.00  0.00    -0.274 OA
ATOM     24  N   UNL     1      -4.434   5.250   8.836  0.00  0.00    -0.282 N 
ATOM     25  H   UNL     1      -4.910   4.418   8.685  0.00  0.00    +0.155 HD
BRANCH  24  26
ATOM     26  C   UNL     1      -4.500   5.877  10.087  0.00  0.00    +0.069 A 
ATOM     27  C   UNL     1      -4.494   7.263  10.171  0.00  0.00    +0.027 A 
ATOM     28  C   UNL     1      -4.559   7.879  11.406  0.00  0.00    +0.022 A 
ATOM     29  C   UNL     1      -4.631   7.118  12.559  0.00  0.00    +0.044 A 
ATOM     30  C   UNL     1      -4.637   5.736  12.480  0.00  0.00    +0.060 A 
ATOM     31  C   UNL     1      -4.578   5.113  11.246  0.00  0.00    +0.146 A 
ATOM     32  F   UNL     1      -4.590   3.765  11.168  0.00  0.00    -0.203 F 
ATOM     33 CL   UNL     1      -4.713   7.897  14.108  0.00  0.00    -0.083 Cl
ENDBRANCH  24  26
ENDBRANCH  20  22
ENDBRANCH  19  20
ENDBRANCH   4  19
TORSDOF 7
