REMARK  Name = ZINC60359812
REMARK  7 active torsions:
REMARK  status: ('A' for Active; 'I' for Inactive)
REMARK    1  A    between atoms: C_1  and  N_2
REMARK    2  A    between atoms: N_2  and  C_3
REMARK    3  A    between atoms: N_2  and  C_26
REMARK    4  A    between atoms: C_3  and  C_4
REMARK    5  A    between atoms: C_9  and  N_10
REMARK    6  A    between atoms: N_13  and  C_14
REMARK    7  A    between atoms: C_23  and  O_25
REMARK                            x       y       z     vdW  Elec       q    Type
REMARK                         _______ _______ _______ _____ _____    ______ ____
ROOT
ATOM      1  N   UNL     1      -1.552  -1.973   2.069  0.00  0.00    -0.269 N 
ATOM      2  C   UNL     1      -2.830  -2.399   2.114  0.00  0.00    +0.304 C 
ATOM      3  O   UNL     1      -3.661  -1.765   2.735  0.00  0.00    -0.252 OA
ATOM      4  N   UNL     1      -3.187  -3.529   1.470  0.00  0.00    -0.290 N 
ATOM      5  H   UNL     1      -0.907  -2.432   1.508  0.00  0.00    +0.156 HD
ATOM      6  H   UNL     1      -2.524  -4.035   0.975  0.00  0.00    +0.151 HD
ENDROOT
BRANCH   4   7
ATOM      7  C   UNL     1      -4.576  -3.992   1.519  0.00  0.00    +0.134 C 
ATOM      8  C   UNL     1      -4.794  -4.871   2.732  0.00  0.00    -0.021 A 
ATOM      9  C   UNL     1      -4.975  -4.534   4.063  0.00  0.00    +0.006 A 
ATOM     10  C   UNL     1      -5.158  -5.521   5.011  0.00  0.00    +0.000 A 
ATOM     11  C   UNL     1      -5.161  -6.851   4.631  0.00  0.00    +0.000 A 
ATOM     12  C   UNL     1      -4.981  -7.188   3.304  0.00  0.00    +0.004 A 
ATOM     13  C   UNL     1      -4.797  -6.199   2.352  0.00  0.00    -0.040 A 
ATOM     14  C   UNL     1      -4.581  -6.305   0.857  0.00  0.00    +0.069 C 
ATOM     15  C   UNL     1      -4.883  -4.893   0.304  0.00  0.00    +0.143 C 
BRANCH  15  16
ATOM     16  O   UNL     1      -4.021  -4.580  -0.792  0.00  0.00    -0.389 OA
ATOM     17  H   UNL     1      -4.174  -5.119  -1.579  0.00  0.00    +0.210 HD
ENDBRANCH  15  16
ENDBRANCH   4   7
BRANCH   1  23
ATOM     18  C   UNL     1      -0.055  -0.116   2.445  0.00  0.00    -0.043 A 
ATOM     19  C   UNL     1       0.330   0.977   3.197  0.00  0.00    +0.003 A 
ATOM     20  C   UNL     1      -0.376   1.319   4.335  0.00  0.00    +0.000 A 
ATOM     21  C   UNL     1      -1.469   0.567   4.726  0.00  0.00    +0.002 A 
ATOM     22  C   UNL     1      -1.859  -0.527   3.979  0.00  0.00    +0.023 A 
ATOM     23  C   UNL     1      -1.156  -0.869   2.831  0.00  0.00    +0.036 A 
BRANCH  18  24
ATOM     24  C   UNL     1       0.715  -0.487   1.204  0.00  0.00    -0.041 C 
BRANCH  24  26
ATOM     25  C   UNL     1      -0.012   1.481   0.041  0.00  0.00    -0.095 C 
ATOM     26  N   UNL     1       0.005   0.012   0.019  0.00  0.00    +0.382 N 
ATOM     27  H   UNL     1      -0.943  -0.335   0.024  0.00  0.00    -0.081 HD
BRANCH  26  28
ATOM     28  C   UNL     1       0.690  -0.452  -1.194  0.00  0.00    -0.069 C 
ATOM     29  C   UNL     1      -0.050   0.068  -2.428  0.00  0.00    -0.015 C 
ATOM     30  C   UNL     1       0.664  -0.415  -3.692  0.00  0.00    -0.002 C 
ATOM     31  C   UNL     1       0.682  -1.945  -3.715  0.00  0.00    -0.000 C 
ATOM     32  C   UNL     1       1.422  -2.465  -2.481  0.00  0.00    -0.002 C 
ATOM     33  C   UNL     1       0.708  -1.982  -1.217  0.00  0.00    -0.015 C 
ENDBRANCH  26  28
ENDBRANCH  24  26
ENDBRANCH  18  24
ENDBRANCH   1  23
TORSDOF 6
