REMARK  Name = ZINC57773567
REMARK  13 active torsions:
REMARK  status: ('A' for Active; 'I' for Inactive)
REMARK    1  A    between atoms: C_1  and  C_2
REMARK    2  A    between atoms: C_2  and  C_3
REMARK    3  A    between atoms: C_2  and  N_4
REMARK    4  A    between atoms: N_4  and  C_5
REMARK    5  A    between atoms: N_4  and  C_28
REMARK    6  A    between atoms: C_5  and  C_6
REMARK    7  A    between atoms: C_6  and  N_7
REMARK    8  A    between atoms: C_8  and  C_10
REMARK    9  A    between atoms: C_10  and  C_16
REMARK   10  A    between atoms: C_16  and  C_17
REMARK   11  A    between atoms: C_19  and  C_22
REMARK   12  A    between atoms: C_28  and  C_29
REMARK   13  A    between atoms: C_28  and  C_30
REMARK                            x       y       z     vdW  Elec       q    Type
REMARK                         _______ _______ _______ _____ _____    ______ ____
ROOT
ATOM      1  C   UNL     1       2.477   3.550   6.684  0.00  0.00    +0.039 C 
ATOM      2  C   UNL     1       1.092   4.203   6.658  0.00  0.00    +0.013 C 
ATOM      3  C   UNL     1       1.121   5.400   5.703  0.00  0.00    -0.018 C 
ATOM      4  C   UNL     1       2.214   6.375   6.148  0.00  0.00    -0.083 C 
ATOM      5  N   UNL     1       3.516   5.698   6.127  0.00  0.00    +0.380 N 
ATOM      6  C   UNL     1       3.519   4.593   7.094  0.00  0.00    -0.066 C 
ATOM      7  H   UNL     1       3.691   5.335   5.202  0.00  0.00    -0.086 HD
ATOM      8  H   UNL     1       4.240   6.358   6.370  0.00  0.00    -0.086 HD
ENDROOT
BRANCH   1  10
ATOM      9  N   UNL     1       1.960   2.175   4.694  0.00  0.00    -0.317 N 
ATOM     10  C   UNL     1       2.809   3.018   5.314  0.00  0.00    +0.218 C 
ATOM     11  O   UNL     1       3.841   3.348   4.769  0.00  0.00    -0.275 OA
ATOM     12  H   UNL     1       1.102   1.969   5.097  0.00  0.00    +0.149 HD
BRANCH   9  13
ATOM     13  C   UNL     1       2.332   1.571   3.413  0.00  0.00    +0.086 C 
BRANCH  13  14
ATOM     14  C   UNL     1       1.153   0.760   2.870  0.00  0.00    -0.059 C 
BRANCH  14  15
ATOM     15  N   UNL     1       1.538   0.126   1.602  0.00  0.00    +0.384 N 
ATOM     16  H   UNL     1       1.821   0.836   0.943  0.00  0.00    -0.081 HD
BRANCH  15  18
ATOM     17  C   UNL     1      -0.827   0.303   0.992  0.00  0.00    -0.014 C 
ATOM     18  C   UNL     1       0.393  -0.618   1.059  0.00  0.00    -0.074 C 
ATOM     19  C   UNL     1       0.731  -1.120  -0.346  0.00  0.00    -0.014 C 
ENDBRANCH  15  18
BRANCH  15  20
ATOM     20  C   UNL     1       2.656  -0.798   1.835  0.00  0.00    -0.074 C 
ATOM     21  C   UNL     1       2.116  -2.130   2.361  0.00  0.00    -0.014 C 
ATOM     22  C   UNL     1       3.405  -1.034   0.522  0.00  0.00    -0.014 C 
ENDBRANCH  15  20
ENDBRANCH  14  15
ENDBRANCH  13  14
ENDBRANCH   9  13
ENDBRANCH   1  10
BRANCH   1  23
ATOM     23  C   UNL     1       2.482   2.400   7.694  0.00  0.00    +0.091 C 
BRANCH  23  24
ATOM     24  C   UNL     1       3.864   1.806   7.772  0.00  0.00    +0.138 A 
ATOM     25  C   UNL     1       4.810   2.119   8.679  0.00  0.00    +0.071 A 
ATOM     26  C   UNL     1       5.951   1.344   8.406  0.00  0.00    +0.089 A 
ATOM     27  N   UNL     1       5.693   0.594   7.372  0.00  0.00    -0.083 NA
ATOM     28  O   UNL     1       4.367   0.868   6.956  0.00  0.00    -0.359 OA
BRANCH  26  29
ATOM     29  C   UNL     1       7.247   1.375   9.175  0.00  0.00    +0.069 C 
ATOM     30  C   UNL     1       7.130   0.529  10.467  0.00  0.00    +0.040 C 
ATOM     31  C   UNL     1       7.886   1.406  11.498  0.00  0.00    +0.160 C 
ATOM     32  O   UNL     1       7.532   2.753  11.119  0.00  0.00    -0.379 OA
ATOM     33  C   UNL     1       7.541   2.801   9.679  0.00  0.00    +0.169 C 
ENDBRANCH  26  29
ENDBRANCH  23  24
ENDBRANCH   1  23
TORSDOF 9
