REMARK  Name = ZINC11881793
REMARK  9 active torsions:
REMARK  status: ('A' for Active; 'I' for Inactive)
REMARK    1  A    between atoms: C_1  and  C_2
REMARK    2  A    between atoms: C_2  and  C_3
REMARK    3  A    between atoms: C_3  and  C_4
REMARK    4  A    between atoms: C_4  and  C_18
REMARK    5  A    between atoms: N_7  and  C_11
REMARK    6  A    between atoms: C_11  and  C_12
REMARK    7  A    between atoms: C_23  and  C_24
REMARK    8  A    between atoms: C_23  and  N_69
REMARK    9  A    between atoms: C_25  and  C_34
REMARK                            x       y       z     vdW  Elec       q    Type
REMARK                         _______ _______ _______ _____ _____    ______ ____
ROOT
ATOM      1  C   UNL     1      -0.764   3.110   1.262  0.00  0.00    +0.018 C 
ATOM      2  C   UNL     1      -0.729   1.579   1.267  0.00  0.00    -0.013 C 
ATOM      3  C   UNL     1      -0.013   1.086   0.008  0.00  0.00    -0.078 C 
ATOM      4  C   UNL     1      -0.729   3.040  -1.234  0.00  0.00    -0.078 C 
ATOM      5  C   UNL     1      -1.466   3.591  -0.011  0.00  0.00    -0.013 C 
ATOM      6  N   UNL     1      -0.751   1.562  -1.181  0.00  0.00    +0.383 N 
ATOM      7  H   UNL     1      -1.726   1.246  -1.117  0.00  0.00    -0.081 HD
ENDROOT
BRANCH   1   8
ATOM      8  C   UNL     1      -1.532   3.608   2.488  0.00  0.00    +0.115 C 
ATOM      9  C   UNL     1      -1.649   5.119   2.466  0.00  0.00    +0.247 C 
ATOM     10  O   UNL     1      -0.743   5.924   2.490  0.00  0.00    -0.273 OA
ATOM     11  N   UNL     1      -2.970   5.381   2.417  0.00  0.00    -0.222 N 
ATOM     12  C   UNL     1      -3.696   4.258   2.404  0.00  0.00    +0.309 C 
ATOM     13  O   UNL     1      -4.911   4.239   2.361  0.00  0.00    -0.252 OA
ATOM     14  N   UNL     1      -2.931   3.148   2.446  0.00  0.00    -0.285 N 
ATOM     15  H   UNL     1      -3.239   2.228   2.447  0.00  0.00    +0.151 HD
BRANCH   8  16
ATOM     16  C   UNL     1      -0.850   3.139   3.775  0.00  0.00    +0.035 C 
BRANCH  16  18
ATOM     17  C   UNL     1      -1.020   3.074   6.267  0.00  0.00    +0.004 C 
ATOM     18  C   UNL     1      -1.702   3.543   4.980  0.00  0.00    -0.001 C 
ENDBRANCH  16  18
ENDBRANCH   8  16
BRANCH  11  19
ATOM     19  C   UNL     1      -3.541   6.730   2.380  0.00  0.00    +0.149 C 
BRANCH  19  20
ATOM     20  C   UNL     1      -3.688   7.182   0.926  0.00  0.00    +0.136 C 
ATOM     21  C   UNL     1      -4.281   8.604   0.877  0.00  0.00    +0.035 C 
ATOM     22  C   UNL     1      -3.217   9.432   0.115  0.00  0.00    +0.031 C 
ATOM     23  C   UNL     1      -2.430   8.332  -0.642  0.00  0.00    +0.160 C 
ATOM     24  O   UNL     1      -2.397   7.232   0.296  0.00  0.00    -0.375 OA
ENDBRANCH  19  20
ENDBRANCH  11  19
ENDBRANCH   1   8
BRANCH   6  25
ATOM     25  C   UNL     1      -0.145   1.005  -2.408  0.00  0.00    -0.021 C 
BRANCH  25  26
ATOM     26  C   UNL     1      -1.039   1.323  -3.578  0.00  0.00    +0.047 A 
ATOM     27  C   UNL     1      -2.059   0.437  -3.931  0.00  0.00    +0.058 A 
ATOM     28  N   UNL     1      -2.853   0.696  -4.944  0.00  0.00    -0.249 NA
ATOM     29  C   UNL     1      -2.678   1.816  -5.653  0.00  0.00    +0.089 A 
ATOM     30  C   UNL     1      -3.507   2.120  -6.747  0.00  0.00    +0.030 A 
ATOM     31  C   UNL     1      -3.304   3.267  -7.450  0.00  0.00    +0.002 A 
ATOM     32  C   UNL     1      -2.283   4.150  -7.101  0.00  0.00    +0.002 A 
ATOM     33  C   UNL     1      -1.460   3.889  -6.049  0.00  0.00    +0.030 A 
ATOM     34  C   UNL     1      -1.640   2.714  -5.299  0.00  0.00    +0.089 A 
ATOM     35  N   UNL     1      -0.847   2.430  -4.260  0.00  0.00    -0.250 NA
ATOM     36  C   UNL     1      -2.254  -0.829  -3.136  0.00  0.00    +0.067 C 
ENDBRANCH  25  26
ENDBRANCH   6  25
TORSDOF 7
