REMARK  Name = ZINC08916747
REMARK  9 active torsions:
REMARK  status: ('A' for Active; 'I' for Inactive)
REMARK    1  A    between atoms: C_1  and  C_2
REMARK    2  A    between atoms: C_2  and  O_3
REMARK    3  A    between atoms: O_3  and  C_4
REMARK    4  A    between atoms: C_4  and  C_5
REMARK    5  A    between atoms: C_5  and  C_6
REMARK    6  A    between atoms: C_6  and  N_7
REMARK    7  A    between atoms: C_8  and  C_10
REMARK    8  A    between atoms: C_14  and  N_15
REMARK    9  A    between atoms: C_16  and  C_18
REMARK                            x       y       z     vdW  Elec       q    Type
REMARK                         _______ _______ _______ _____ _____    ______ ____
ROOT
ATOM      1  C   UNL     1      -2.719  -4.134   0.000  0.00  0.00    +0.069 A 
ATOM      2  C   UNL     1      -4.095  -4.598   0.016  0.00  0.00    -0.023 A 
ATOM      3  C   UNL     1      -5.031  -3.623   0.030  0.00  0.00    -0.004 A 
ATOM      4  S   UNL     1      -4.109  -2.111   0.029  0.00  0.00    -0.077 S 
ATOM      5  C   UNL     1      -2.503  -2.763   0.011  0.00  0.00    +0.085 A 
ATOM      6  C   UNL     1      -6.518  -3.799   0.041  0.00  0.00    +0.043 C 
ATOM      7  C   UNL     1      -6.837  -5.251  -0.342  0.00  0.00    +0.005 C 
ATOM      8  C   UNL     1      -5.946  -6.186   0.482  0.00  0.00    +0.005 C 
ATOM      9  C   UNL     1      -4.495  -6.069   0.012  0.00  0.00    +0.037 C 
ENDROOT
BRANCH   1  11
ATOM     10  N   UNL     1      -1.097  -5.502  -1.200  0.00  0.00    -0.311 N 
ATOM     11  C   UNL     1      -1.598  -5.080  -0.023  0.00  0.00    +0.247 C 
ATOM     12  O   UNL     1      -1.121  -5.483   1.022  0.00  0.00    -0.270 OA
ATOM     13  H   UNL     1      -1.477  -5.181  -2.033  0.00  0.00    +0.149 HD
BRANCH  10  14
ATOM     14  C   UNL     1       0.023  -6.447  -1.223  0.00  0.00    +0.107 C 
BRANCH  14  15
ATOM     15  C   UNL     1       0.396  -6.761  -2.673  0.00  0.00    +0.047 C 
BRANCH  15  16
ATOM     16  C   UNL     1       1.565  -7.748  -2.697  0.00  0.00    +0.161 C 
BRANCH  16  17
ATOM     17  O   UNL     1       1.913  -8.041  -4.051  0.00  0.00    -0.380 OA
BRANCH  17  19
ATOM     18  C   UNL     1       3.285  -9.198  -5.670  0.00  0.00    +0.034 C 
ATOM     19  C   UNL     1       3.001  -8.958  -4.186  0.00  0.00    +0.156 C 
ENDBRANCH  17  19
ENDBRANCH  16  17
ENDBRANCH  15  16
ENDBRANCH  14  15
ENDBRANCH  10  14
ENDBRANCH   1  11
BRANCH   5  20
ATOM     20  N   UNL     1      -1.299  -2.081   0.003  0.00  0.00    -0.273 N 
ATOM     21  C   UNL     1      -1.287  -0.733   0.010  0.00  0.00    +0.284 C 
ATOM     22  O   UNL     1      -2.334  -0.117   0.024  0.00  0.00    -0.266 OA
ATOM     23  H   UNL     1      -0.463  -2.573  -0.007  0.00  0.00    +0.156 HD
BRANCH  21  24
ATOM     24  C   UNL     1       0.002  -0.004   0.002  0.00  0.00    +0.194 A 
ATOM     25  C   UNL     1      -0.016   1.351   0.009  0.00  0.00    +0.103 A 
ATOM     26  C   UNL     1       1.263   2.076   0.001  0.00  0.00    +0.193 A 
ATOM     27  O   UNL     1       1.306   3.294   0.008  0.00  0.00    -0.287 OA
ATOM     28  C   UNL     1       2.491   1.259  -0.015  0.00  0.00    +0.065 A 
ATOM     29  C   UNL     1       3.754   1.850  -0.024  0.00  0.00    +0.035 A 
ATOM     30  C   UNL     1       4.878   1.052  -0.039  0.00  0.00    +0.042 A 
ATOM     31  C   UNL     1       4.753  -0.332  -0.045  0.00  0.00    +0.023 A 
ATOM     32  C   UNL     1       3.511  -0.927  -0.036  0.00  0.00    +0.048 A 
ATOM     33  C   UNL     1       2.363  -0.140  -0.021  0.00  0.00    +0.140 A 
ATOM     34  O   UNL     1       1.142  -0.710  -0.012  0.00  0.00    -0.450 OA
ATOM     35 CL   UNL     1       6.455   1.778  -0.050  0.00  0.00    -0.084 Cl
ENDBRANCH  21  24
ENDBRANCH   5  20
TORSDOF 8
