REMARK  Name = ZINC38651964
REMARK  7 active torsions:
REMARK  status: ('A' for Active; 'I' for Inactive)
REMARK    1  A    between atoms: C_5  and  C_7
REMARK    2  A    between atoms: C_12  and  O_21
REMARK    3  A    between atoms: C_16  and  N_20
REMARK    4  A    between atoms: C_17  and  C_18
REMARK    5  A    between atoms: O_21  and  C_22
REMARK    6  A    between atoms: C_22  and  C_24
REMARK    7  A    between atoms: C_27  and  N_30
REMARK                            x       y       z     vdW  Elec       q    Type
REMARK                         _______ _______ _______ _____ _____    ______ ____
ROOT
ATOM      1  C   UNL     1       1.286  -2.200   0.005  0.00  0.00    +0.101 C 
ATOM      2  C   UNL     1       0.586  -2.710   1.236  0.00  0.00    +0.008 A 
ATOM      3  C   UNL     1       1.270  -2.761   2.437  0.00  0.00    +0.012 A 
ATOM      4  C   UNL     1       0.644  -3.226   3.576  0.00  0.00    +0.047 A 
ATOM      5  C   UNL     1      -0.678  -3.645   3.518  0.00  0.00    +0.135 A 
ATOM      6  C   UNL     1      -1.366  -3.596   2.317  0.00  0.00    +0.093 A 
ATOM      7  C   UNL     1      -0.735  -3.127   1.173  0.00  0.00    +0.138 A 
ATOM      8  O   UNL     1      -1.422  -3.085   0.005  0.00  0.00    -0.441 OA
ATOM      9  C   UNL     1      -0.759  -3.015  -1.161  0.00  0.00    +0.199 C 
ATOM     10  C   UNL     1       0.526  -2.603  -1.227  0.00  0.00    +0.098 C 
ENDROOT
BRANCH   1  15
ATOM     11  C   UNL     1       0.301   1.440   0.186  0.00  0.00    +0.000 A 
ATOM     12  C   UNL     1       1.535   2.063   0.182  0.00  0.00    +0.003 A 
ATOM     13  C   UNL     1       2.691   1.307   0.121  0.00  0.00    +0.038 A 
ATOM     14  C   UNL     1       2.611  -0.074   0.064  0.00  0.00    +0.127 A 
ATOM     15  C   UNL     1       1.375  -0.697   0.068  0.00  0.00    +0.000 A 
ATOM     16  C   UNL     1       0.220   0.062   0.129  0.00  0.00    +0.007 A 
ATOM     17  F   UNL     1       3.740  -0.815   0.004  0.00  0.00    -0.205 F 
ENDBRANCH   1  15
BRANCH   9  18
ATOM     18  N   UNL     1      -1.406  -3.372  -2.318  0.00  0.00    -0.328 N 
ATOM     19  H   UNL     1      -2.329  -3.669  -2.286  0.00  0.00    +0.145 HD
ATOM     20  H   UNL     1      -0.941  -3.327  -3.168  0.00  0.00    +0.145 HD
ENDBRANCH   9  18
BRANCH  10  21
ATOM     21  C   UNL     1       1.176  -2.549  -2.502  0.00  0.00    +0.101 C 
ATOM     22  N   UNL     1       1.692  -2.506  -3.513  0.00  0.00    -0.191 NA
ENDBRANCH  10  21
BRANCH   5  23
ATOM     23  O   UNL     1      -1.296  -4.104   4.639  0.00  0.00    -0.422 OA
BRANCH  23  24
ATOM     24  C   UNL     1      -1.569  -3.219   5.617  0.00  0.00    +0.344 C 
ATOM     25  O   UNL     1      -1.361  -2.036   5.442  0.00  0.00    -0.245 OA
BRANCH  24  26
ATOM     26  C   UNL     1      -2.123  -3.689   6.904  0.00  0.00    +0.060 A 
ATOM     27  C   UNL     1      -2.359  -5.050   7.111  0.00  0.00    +0.017 A 
ATOM     28  C   UNL     1      -2.877  -5.481   8.315  0.00  0.00    +0.033 A 
ATOM     29  C   UNL     1      -3.162  -4.569   9.315  0.00  0.00    +0.126 A 
ATOM     30  C   UNL     1      -2.931  -3.220   9.117  0.00  0.00    +0.033 A 
ATOM     31  C   UNL     1      -2.408  -2.775   7.920  0.00  0.00    +0.017 A 
BRANCH  29  32
ATOM     32  N   UNL     1      -3.718  -5.040  10.604  0.00  0.00    +0.056 N 
ATOM     33  O   UNL     1      -3.922  -6.218  10.780  0.00  0.00    -0.126 OA
ATOM     34  O   UNL     1      -3.969  -4.245  11.480  0.00  0.00    -0.126 OA
ENDBRANCH  29  32
ENDBRANCH  24  26
ENDBRANCH  23  24
ENDBRANCH   5  23
TORSDOF 7
