REMARK  Name = ZINC05399679
REMARK  6 active torsions:
REMARK  status: ('A' for Active; 'I' for Inactive)
REMARK    1  A    between atoms: C_4  and  C_7
REMARK    2  A    between atoms: C_10  and  C_13
REMARK    3  A    between atoms: N_19  and  C_20
REMARK    4  A    between atoms: C_30  and  N_61
REMARK    5  A    between atoms: C_32  and  C_33
REMARK    6  A    between atoms: C_32  and  N_61
REMARK                            x       y       z     vdW  Elec       q    Type
REMARK                         _______ _______ _______ _____ _____    ______ ____
ROOT
ATOM      1  C   UNL     1       5.604   1.677  -3.339  0.00  0.00    +0.076 A 
ATOM      2  C   UNL     1       6.258   2.524  -2.439  0.00  0.00    +0.048 A 
ATOM      3  C   UNL     1       5.719   2.687  -1.176  0.00  0.00    +0.116 A 
ATOM      4  N   UNL     1       4.604   2.046  -0.861  0.00  0.00    -0.223 NA
ATOM      5  C   UNL     1       4.007   1.246  -1.732  0.00  0.00    +0.216 A 
ATOM      6  N   UNL     1       4.490   1.061  -2.950  0.00  0.00    -0.214 NA
ATOM      7  N   UNL     1       2.847   0.590  -1.359  0.00  0.00    -0.306 N 
ATOM      8  H   UNL     1       2.397   0.004  -1.989  0.00  0.00    +0.149 HD
ENDROOT
BRANCH   7   9
ATOM      9  C   UNL     1       2.296   0.781  -0.015  0.00  0.00    +0.130 C 
ATOM     10  C   UNL     1       1.307   1.958   0.000  0.00  0.00    +0.185 C 
ATOM     11  O   UNL     1      -0.017   1.426   0.010  0.00  0.00    -0.374 OA
ATOM     12  C   UNL     1       0.002  -0.004   0.002  0.00  0.00    +0.137 C 
ATOM     13  C   UNL     1       1.441  -0.434   0.396  0.00  0.00    +0.168 C 
ATOM     14  O   UNL     1       1.393  -0.535   1.847  0.00  0.00    -0.374 OA
ATOM     15  C   UNL     1       0.129  -1.169   2.142  0.00  0.00    +0.147 C 
ATOM     16  C   UNL     1      -0.876  -0.517   1.167  0.00  0.00    -0.013 C 
BRANCH  16  17
ATOM     17  N   UNL     1      -1.841  -1.518   0.674  0.00  0.00    +0.388 N 
ATOM     18  H   UNL     1      -1.391  -2.440   0.654  0.00  0.00    -0.085 HD
ATOM     19  H   UNL     1      -2.141  -1.262  -0.274  0.00  0.00    -0.085 HD
BRANCH  17  20
ATOM     20  C   UNL     1      -3.021  -1.571   1.559  0.00  0.00    -0.026 C 
BRANCH  20  21
ATOM     21  C   UNL     1      -3.987  -2.600   1.032  0.00  0.00    +0.024 A 
ATOM     22  C   UNL     1      -3.956  -3.888   1.534  0.00  0.00    +0.021 A 
ATOM     23  C   UNL     1      -4.849  -4.827   1.043  0.00  0.00    +0.003 A 
ATOM     24  C   UNL     1      -5.745  -4.434   0.060  0.00  0.00    +0.020 A 
ATOM     25  C   UNL     1      -5.718  -3.129  -0.394  0.00  0.00    +0.111 A 
ATOM     26  N   UNL     1      -4.856  -2.261   0.100  0.00  0.00    -0.262 NA
ENDBRANCH  20  21
ENDBRANCH  17  20
ENDBRANCH  16  17
ENDBRANCH   7   9
BRANCH   1  30
ATOM     27  C   UNL     1       7.149   1.080  -7.258  0.00  0.00    -0.018 A 
ATOM     28  C   UNL     1       5.981   0.428  -6.862  0.00  0.00    +0.009 A 
ATOM     29  C   UNL     1       5.481   0.622  -5.593  0.00  0.00    +0.010 A 
ATOM     30  C   UNL     1       6.142   1.469  -4.704  0.00  0.00    +0.001 A 
ATOM     31  C   UNL     1       7.307   2.125  -5.102  0.00  0.00    +0.010 A 
ATOM     32  C   UNL     1       7.811   1.927  -6.369  0.00  0.00    +0.009 A 
BRANCH  27  36
ATOM     33  C   UNL     1       8.692   0.483 -11.174  0.00  0.00    +0.000 A 
ATOM     34  C   UNL     1       9.351   1.324 -10.295  0.00  0.00    +0.001 A 
ATOM     35  C   UNL     1       8.854   1.521  -9.022  0.00  0.00    +0.008 A 
ATOM     36  C   UNL     1       7.687   0.872  -8.624  0.00  0.00    -0.018 A 
ATOM     37  C   UNL     1       7.031   0.021  -9.512  0.00  0.00    +0.008 A 
ATOM     38  C   UNL     1       7.534  -0.165 -10.784  0.00  0.00    +0.001 A 
ENDBRANCH  27  36
ENDBRANCH   1  30
TORSDOF 6
