REMARK  Name = ZINC37616469
REMARK  7 active torsions:
REMARK  status: ('A' for Active; 'I' for Inactive)
REMARK    1  A    between atoms: C_1  and  C_2
REMARK    2  A    between atoms: C_2  and  C_4
REMARK    3  A    between atoms: C_2  and  N_12
REMARK    4  A    between atoms: C_7  and  S_10
REMARK    5  A    between atoms: S_10  and  C_11
REMARK    6  A    between atoms: C_13  and  C_15
REMARK    7  A    between atoms: C_15  and  N_20
REMARK                            x       y       z     vdW  Elec       q    Type
REMARK                         _______ _______ _______ _____ _____    ______ ____
ROOT
ATOM      1  N   UNL     1      -1.372  -0.511   0.012  0.00  0.00    -0.310 N 
ATOM      2  C   UNL     1      -2.051  -0.643  -1.145  0.00  0.00    +0.202 C 
ATOM      3  O   UNL     1      -1.524  -0.341  -2.194  0.00  0.00    -0.277 OA
ATOM      4  H   UNL     1      -1.794  -0.752   0.852  0.00  0.00    +0.149 HD
ENDROOT
BRANCH   2   5
ATOM      5  C   UNL     1      -3.465  -1.164  -1.134  0.00  0.00    +0.007 C 
ATOM      6  C   UNL     1      -3.474  -2.707  -1.274  0.00  0.00    -0.004 C 
ATOM      7  C   UNL     1      -3.295  -2.913  -2.799  0.00  0.00    -0.001 C 
ATOM      8  C   UNL     1      -4.125  -1.778  -3.434  0.00  0.00    -0.001 C 
ATOM      9  C   UNL     1      -4.233  -0.667  -2.376  0.00  0.00    -0.004 C 
BRANCH   5  10
ATOM     10  N   UNL     1      -4.154  -0.753   0.096  0.00  0.00    +0.388 N 
ATOM     11  H   UNL     1      -4.185   0.255   0.143  0.00  0.00    -0.089 HD
ATOM     12  H   UNL     1      -5.094  -1.119   0.094  0.00  0.00    -0.089 HD
ATOM     13  H   UNL     1      -3.655  -1.112   0.897  0.00  0.00    -0.089 HD
ENDBRANCH   5  10
ENDBRANCH   2   5
BRANCH   1  15
ATOM     14  C   UNL     1      -0.019   1.526   0.010  0.00  0.00    +0.033 C 
ATOM     15  C   UNL     1       0.002  -0.004   0.002  0.00  0.00    +0.100 C 
BRANCH  15  16
ATOM     16  C   UNL     1       0.731  -0.503   1.223  0.00  0.00    -0.027 A 
ATOM     17  C   UNL     1       0.079  -0.558   2.441  0.00  0.00    +0.006 A 
ATOM     18  C   UNL     1       0.744  -1.014   3.562  0.00  0.00    +0.015 A 
ATOM     19  C   UNL     1       2.069  -1.419   3.465  0.00  0.00    +0.008 A 
ATOM     20  C   UNL     1       2.721  -1.364   2.239  0.00  0.00    +0.015 A 
ATOM     21  C   UNL     1       2.049  -0.911   1.121  0.00  0.00    +0.006 A 
BRANCH  19  22
ATOM     22  S   UNL     1       2.922  -2.002   4.893  0.00  0.00    -0.129 S 
ATOM     23  C   UNL     1       4.581  -2.403   4.279  0.00  0.00    +0.090 C 
ENDBRANCH  19  22
ENDBRANCH  15  16
ENDBRANCH   1  15
TORSDOF 5
