REMARK  Name = ZINC39404382
REMARK  11 active torsions:
REMARK  status: ('A' for Active; 'I' for Inactive)
REMARK    1  A    between atoms: C_1  and  O_2
REMARK    2  A    between atoms: O_2  and  C_3
REMARK    3  A    between atoms: C_7  and  C_10
REMARK    4  A    between atoms: C_8  and  O_9
REMARK    5  A    between atoms: N_11  and  N_12
REMARK    6  A    between atoms: C_15  and  S_19
REMARK    7  A    between atoms: S_19  and  C_20
REMARK    8  A    between atoms: C_20  and  C_21
REMARK    9  A    between atoms: C_27  and  S_29
REMARK   10  A    between atoms: S_29  and  C_30
REMARK   11  A    between atoms: C_30  and  C_31
REMARK                            x       y       z     vdW  Elec       q    Type
REMARK                         _______ _______ _______ _____ _____    ______ ____
ROOT
ATOM      1  N   UNL     1      -1.540  -6.245   0.007  0.00  0.00    -0.206 N 
ATOM      2  C   UNL     1      -0.380  -6.989  -0.002  0.00  0.00    +0.231 C 
ATOM      3  N   UNL     1      -0.340  -8.293  -0.008  0.00  0.00    -0.324 N 
ATOM      4  C   UNL     1       1.094  -8.633  -0.018  0.00  0.00    +0.283 C 
ATOM      5  N   UNL     1       1.763  -7.321  -0.015  0.00  0.00    -0.148 NA
ATOM      6  N   UNL     1       0.877  -6.460  -0.011  0.00  0.00    -0.116 NA
ATOM      7  H   UNL     1      -2.402  -6.690   0.014  0.00  0.00    +0.177 HD
ATOM      8  H   UNL     1      -1.091  -8.906  -0.007  0.00  0.00    +0.165 HD
ENDROOT
BRANCH   1  10
ATOM      9  C   UNL     1      -2.567  -4.144   0.017  0.00  0.00    +0.142 C 
ATOM     10  N   UNL     1      -1.474  -4.846   0.008  0.00  0.00    -0.187 NA
BRANCH   9  15
ATOM     11  C   UNL     1      -1.201  -0.638   0.010  0.00  0.00    +0.162 A 
ATOM     12  C   UNL     1      -2.374   0.101   0.019  0.00  0.00    +0.049 A 
ATOM     13  C   UNL     1      -3.602  -0.537   0.028  0.00  0.00    +0.004 A 
ATOM     14  C   UNL     1      -3.671  -1.914   0.027  0.00  0.00    +0.013 A 
ATOM     15  C   UNL     1      -2.497  -2.672   0.018  0.00  0.00    +0.040 A 
ATOM     16  C   UNL     1      -1.255  -2.026   0.003  0.00  0.00    +0.167 A 
BRANCH  11  18
ATOM     17  C   UNL     1      -0.017   1.425   0.010  0.00  0.00    +0.277 C 
ATOM     18  O   UNL     1       0.002  -0.004   0.002  0.00  0.00    -0.491 OA
ENDBRANCH  11  18
BRANCH  16  19
ATOM     19  O   UNL     1      -0.107  -2.754  -0.012  0.00  0.00    -0.503 OA
ATOM     20  H   UNL     1       0.233  -2.969   0.867  0.00  0.00    +0.292 HD
ENDBRANCH  16  19
ENDBRANCH   9  15
ENDBRANCH   1  10
BRANCH   4  21
ATOM     21  S   UNL     1       1.518  -9.566  -1.515  0.00  0.00    -0.102 S 
BRANCH  21  22
ATOM     22  C   UNL     1       1.088  -8.440  -2.870  0.00  0.00    +0.169 C 
BRANCH  22  23
ATOM     23  C   UNL     1       1.395  -9.102  -4.189  0.00  0.00    +0.229 C 
ATOM     24  O   UNL     1       1.859 -10.222  -4.212  0.00  0.00    -0.275 OA
ATOM     25  N   UNL     1       1.155  -8.448  -5.343  0.00  0.00    -0.263 N 
ATOM     26  C   UNL     1       1.438  -9.060  -6.562  0.00  0.00    +0.189 A 
ATOM     27  N   UNL     1       1.935 -10.260  -6.816  0.00  0.00    -0.125 NA
ATOM     28  N   UNL     1       2.133 -10.665  -7.994  0.00  0.00    -0.133 NA
ATOM     29  C   UNL     1       1.857  -9.914  -9.050  0.00  0.00    +0.160 A 
ATOM     30  S   UNL     1       1.229  -8.449  -8.232  0.00  0.00    -0.024 S 
ATOM     31  H   UNL     1       0.784  -7.552  -5.325  0.00  0.00    +0.157 HD
BRANCH  29  32
ATOM     32  S   UNL     1       2.046 -10.259 -10.767  0.00  0.00    -0.093 S 
BRANCH  32  33
ATOM     33  C   UNL     1       2.732 -11.938 -10.804  0.00  0.00    +0.103 C 
BRANCH  33  34
ATOM     34  C   UNL     1       2.946 -12.362 -12.234  0.00  0.00    -0.023 C 
ATOM     35  C   UNL     1       4.159 -12.581 -12.678  0.00  0.00    +0.005 C 
ENDBRANCH  33  34
ENDBRANCH  32  33
ENDBRANCH  29  32
ENDBRANCH  22  23
ENDBRANCH  21  22
ENDBRANCH   4  21
TORSDOF 10
