REMARK  Name = ZINC39153070
REMARK  11 active torsions:
REMARK  status: ('A' for Active; 'I' for Inactive)
REMARK    1  A    between atoms: C_1  and  C_2
REMARK    2  A    between atoms: C_2  and  O_3
REMARK    3  A    between atoms: O_3  and  C_4
REMARK    4  A    between atoms: C_4  and  C_6
REMARK    5  A    between atoms: C_7  and  C_34
REMARK    6  A    between atoms: C_8  and  C_31
REMARK    7  A    between atoms: C_10  and  N_11
REMARK    8  A    between atoms: C_12  and  C_14
REMARK    9  A    between atoms: C_14  and  S_15
REMARK   10  A    between atoms: S_15  and  C_16
REMARK   11  A    between atoms: C_31  and  C_33
REMARK                            x       y       z     vdW  Elec       q    Type
REMARK                         _______ _______ _______ _____ _____    ______ ____
ROOT
ATOM      1  N   UNL     1       3.747  -2.424   1.389  0.00  0.00    -0.279 N 
ATOM      2  C   UNL     1       5.052  -2.732   1.532  0.00  0.00    +0.228 C 
ATOM      3  O   UNL     1       5.455  -3.191   2.579  0.00  0.00    -0.275 OA
ATOM      4  H   UNL     1       3.425  -2.057   0.551  0.00  0.00    +0.155 HD
ENDROOT
BRANCH   1   9
ATOM      5  C   UNL     1       1.498  -2.372   2.470  0.00  0.00    +0.091 A 
ATOM      6  C   UNL     1       0.816  -2.666   3.639  0.00  0.00    -0.017 A 
ATOM      7  C   UNL     1       1.577  -3.188   4.670  0.00  0.00    +0.060 A 
ATOM      8  S   UNL     1       3.210  -3.244   3.961  0.00  0.00    -0.070 S 
ATOM      9  C   UNL     1       2.871  -2.630   2.435  0.00  0.00    +0.087 A 
ATOM     10  C   UNL     1      -0.666  -2.431   3.780  0.00  0.00    +0.046 C 
BRANCH   7  11
ATOM     11  C   UNL     1       1.163  -3.578   5.961  0.00  0.00    +0.167 C 
ATOM     12  O   UNL     1      -0.003  -3.470   6.284  0.00  0.00    -0.292 OA
ATOM     13  C   UNL     1       2.168  -4.128   6.940  0.00  0.00    +0.092 C 
ENDBRANCH   7  11
BRANCH   5  14
ATOM     14  C   UNL     1       0.801  -1.814   1.304  0.00  0.00    +0.342 C 
ATOM     15  O   UNL     1       0.321  -2.556   0.470  0.00  0.00    -0.245 OA
BRANCH  14  16
ATOM     16  O   UNL     1       0.693  -0.477   1.160  0.00  0.00    -0.461 OA
BRANCH  16  18
ATOM     17  C   UNL     1      -0.019   1.526   0.010  0.00  0.00    +0.048 C 
ATOM     18  C   UNL     1       0.002  -0.004   0.002  0.00  0.00    +0.229 C 
ENDBRANCH  16  18
ENDBRANCH  14  16
ENDBRANCH   5  14
ENDBRANCH   1   9
BRANCH   2  19
ATOM     19  C   UNL     1       6.008  -2.507   0.389  0.00  0.00    +0.173 C 
BRANCH  19  20
ATOM     20  S   UNL     1       7.676  -3.017   0.889  0.00  0.00    -0.079 S 
BRANCH  20  21
ATOM     21  C   UNL     1       8.664  -2.696  -0.535  0.00  0.00    +0.182 C 
ATOM     22  N   UNL     1       8.079  -2.188  -1.605  0.00  0.00    -0.151 NA
ATOM     23  C   UNL     1       8.744  -1.907  -2.725  0.00  0.00    +0.272 C 
ATOM     24  O   UNL     1       8.172  -1.440  -3.696  0.00  0.00    -0.268 OA
ATOM     25  C   UNL     1      10.218  -2.182  -2.756  0.00  0.00    +0.071 C 
ATOM     26  C   UNL     1      11.083  -1.919  -3.749  0.00  0.00    -0.042 C 
ATOM     27  C   UNL     1      10.727  -1.116  -4.998  0.00  0.00    +0.033 C 
ATOM     28  C   UNL     1      11.737   0.035  -5.086  0.00  0.00    +0.004 C 
ATOM     29  C   UNL     1      13.163  -0.507  -5.020  0.00  0.00    +0.002 C 
ATOM     30  C   UNL     1      13.427  -1.184  -3.672  0.00  0.00    +0.019 C 
ATOM     31  C   UNL     1      12.514  -2.408  -3.554  0.00  0.00    +0.079 C 
ATOM     32  S   UNL     1      12.482  -3.001  -1.821  0.00  0.00    -0.097 S 
ATOM     33  C   UNL     1      10.752  -2.759  -1.504  0.00  0.00    +0.112 C 
ATOM     34  N   UNL     1       9.967  -2.973  -0.479  0.00  0.00    -0.217 NA
ENDBRANCH  20  21
ENDBRANCH  19  20
ENDBRANCH   2  19
TORSDOF 8
