REMARK  Name = ZINC64705011
REMARK  7 active torsions:
REMARK  status: ('A' for Active; 'I' for Inactive)
REMARK    1  A    between atoms: C_1  and  C_2
REMARK    2  A    between atoms: C_2  and  C_3
REMARK    3  A    between atoms: C_3  and  N_4
REMARK    4  A    between atoms: C_5  and  C_9
REMARK    5  A    between atoms: C_9  and  N_10
REMARK    6  A    between atoms: C_13  and  C_18
REMARK    7  A    between atoms: C_18  and  C_19
REMARK                            x       y       z     vdW  Elec       q    Type
REMARK                         _______ _______ _______ _____ _____    ______ ____
ROOT
ATOM      1  N   UNL     1      -1.377  -3.510   3.448  0.00  0.00    -0.217 N 
ATOM      2  C   UNL     1      -2.481  -4.127   3.912  0.00  0.00    +0.244 C 
ATOM      3  O   UNL     1      -3.635  -3.838   3.677  0.00  0.00    -0.273 OA
ATOM      4  C   UNL     1      -1.982  -5.258   4.789  0.00  0.00    +0.165 C 
ATOM      5  N   UNL     1      -0.516  -5.135   4.710  0.00  0.00    -0.287 N 
ATOM      6  C   UNL     1      -0.260  -4.091   3.902  0.00  0.00    +0.310 C 
ATOM      7  O   UNL     1       0.860  -3.716   3.617  0.00  0.00    -0.252 OA
ATOM      8  H   UNL     1       0.138  -5.699   5.153  0.00  0.00    +0.151 HD
ENDROOT
BRANCH   1   9
ATOM      9  C   UNL     1      -1.396  -2.351   2.553  0.00  0.00    +0.192 C 
BRANCH   9  11
ATOM     10  N   UNL     1      -1.413  -1.998   0.005  0.00  0.00    -0.235 N 
ATOM     11  C   UNL     1      -1.397  -2.821   1.121  0.00  0.00    +0.150 C 
ATOM     12  N   UNL     1      -1.383  -4.053   0.740  0.00  0.00    -0.157 NA
ATOM     13  N   UNL     1      -1.389  -4.092  -0.661  0.00  0.00    -0.184 N 
ATOM     14  N   UNL     1      -1.414  -2.798  -1.105  0.00  0.00    -0.144 NA
ATOM     15  H   UNL     1      -1.381  -4.889  -1.213  0.00  0.00    +0.191 HD
ATOM     16  H   UNL     1      -2.228  -2.625  -1.675  0.00  0.00    +0.169 HD
BRANCH  10  17
ATOM     17  C   UNL     1      -1.433  -0.534   0.013  0.00  0.00    +0.127 C 
BRANCH  17  19
ATOM     18  C   UNL     1      -0.019   1.526   0.010  0.00  0.00    +0.005 C 
ATOM     19  C   UNL     1       0.002  -0.004   0.002  0.00  0.00    +0.017 C 
ENDBRANCH  17  19
ENDBRANCH  10  17
ENDBRANCH   9  11
ENDBRANCH   1   9
BRANCH   4  20
ATOM     20  C   UNL     1      -2.443  -6.609   4.240  0.00  0.00    +0.065 C 
BRANCH  20  21
ATOM     21  C   UNL     1      -2.038  -7.704   5.194  0.00  0.00    -0.039 C 
ATOM     22  C   UNL     1      -2.797  -8.254   6.169  0.00  0.00    -0.001 A 
ATOM     23  C   UNL     1      -4.173  -8.008   6.616  0.00  0.00    +0.010 A 
ATOM     24  C   UNL     1      -4.669  -8.734   7.644  0.00  0.00    +0.001 A 
ATOM     25  C   UNL     1      -3.904  -9.714   8.290  0.00  0.00    +0.002 A 
ATOM     26  C   UNL     1      -2.632  -9.998   7.936  0.00  0.00    +0.026 A 
ATOM     27  C   UNL     1      -2.010  -9.295   6.868  0.00  0.00    +0.043 A 
ATOM     28  N   UNL     1      -0.811  -9.384   6.345  0.00  0.00    -0.380 N 
ATOM     29  C   UNL     1      -0.704  -8.413   5.250  0.00  0.00    +0.144 C 
ATOM     30  H   UNL     1      -0.112  -9.993   6.632  0.00  0.00    +0.160 HD
ENDBRANCH  20  21
ENDBRANCH   4  20
TORSDOF 6
