REMARK  Name = ZINC49152258
REMARK  3 active torsions:
REMARK  status: ('A' for Active; 'I' for Inactive)
REMARK    1  A    between atoms: C_3  and  N_9
REMARK    2  A    between atoms: N_9  and  C_10
REMARK    3  A    between atoms: C_15  and  N_16
REMARK                            x       y       z     vdW  Elec       q    Type
REMARK                         _______ _______ _______ _____ _____    ______ ____
ROOT
ATOM      1  C   UNL     1       3.512   3.523  -0.106  0.00  0.00    +0.056 A 
ATOM      2  C   UNL     1       2.281   4.159  -0.077  0.00  0.00    +0.074 A 
ATOM      3  C   UNL     1       2.210   5.542  -0.161  0.00  0.00    +0.164 A 
ATOM      4  C   UNL     1       3.375   6.292  -0.271  0.00  0.00    +0.164 A 
ATOM      5  C   UNL     1       4.608   5.656  -0.302  0.00  0.00    +0.074 A 
ATOM      6  C   UNL     1       4.681   4.275  -0.214  0.00  0.00    +0.050 A 
ATOM      7  O   UNL     1       3.324   7.651  -0.346  0.00  0.00    -0.485 OA
ATOM      8  C   UNL     1       2.060   8.230  -0.689  0.00  0.00    +0.270 C 
ATOM      9  C   UNL     1       0.975   7.550   0.158  0.00  0.00    +0.270 C 
ATOM     10  O   UNL     1       0.991   6.149  -0.135  0.00  0.00    -0.485 OA
ENDROOT
BRANCH   6  11
ATOM     11  N   UNL     1       5.928   3.635  -0.238  0.00  0.00    -0.356 N 
ATOM     12  H   UNL     1       5.978   2.668  -0.180  0.00  0.00    +0.142 HD
ATOM     13  H   UNL     1       6.741   4.159  -0.313  0.00  0.00    +0.142 HD
ENDBRANCH   6  11
BRANCH   1  14
ATOM     14  N   UNL     1       3.583   2.124  -0.021  0.00  0.00    -0.312 N 
ATOM     15  H   UNL     1       4.436   1.675  -0.124  0.00  0.00    +0.152 HD
BRANCH  14  18
ATOM     16  C   UNL     1       0.359   1.064   1.391  0.00  0.00    +0.017 A 
ATOM     17  C   UNL     1       1.504   1.802   1.163  0.00  0.00    +0.025 A 
ATOM     18  C   UNL     1       2.423   1.380   0.212  0.00  0.00    +0.046 A 
ATOM     19  C   UNL     1       2.188   0.214  -0.508  0.00  0.00    +0.040 A 
ATOM     20  C   UNL     1       1.040  -0.520  -0.275  0.00  0.00    +0.032 A 
ATOM     21  C   UNL     1       0.127  -0.095   0.673  0.00  0.00    +0.019 A 
ATOM     22 BR   UNL     1      -1.442  -1.102   0.989  0.00  0.00    -0.050 Br
ATOM     23 BR   UNL     1       3.436  -0.366  -1.805  0.00  0.00    -0.048 Br
ENDBRANCH  14  18
ENDBRANCH   1  14
TORSDOF 3
