REMARK  Name = ZINC59170887
REMARK  8 active torsions:
REMARK  status: ('A' for Active; 'I' for Inactive)
REMARK    1  A    between atoms: C_1  and  C_2
REMARK    2  A    between atoms: C_2  and  C_3
REMARK    3  A    between atoms: C_2  and  C_4
REMARK    4  A    between atoms: C_2  and  C_5
REMARK    5  A    between atoms: C_9  and  C_24
REMARK    6  A    between atoms: N_11  and  C_12
REMARK    7  A    between atoms: C_21  and  O_23
REMARK    8  A    between atoms: C_24  and  N_26
REMARK                            x       y       z     vdW  Elec       q    Type
REMARK                         _______ _______ _______ _____ _____    ______ ____
ROOT
ATOM      1  C   UNL     1       0.528  -1.238  -0.861  0.00  0.00    -0.038 A 
ATOM      2  C   UNL     1       0.700  -2.495  -1.395  0.00  0.00    +0.016 A 
ATOM      3  C   UNL     1       1.417  -2.650  -2.588  0.00  0.00    +0.022 A 
ATOM      4  C   UNL     1       1.622  -3.978  -3.172  0.00  0.00    +0.027 A 
ATOM      5  C   UNL     1       2.560  -4.089  -4.190  0.00  0.00    +0.064 A 
ATOM      6  C   UNL     1       3.266  -2.856  -4.593  0.00  0.00    +0.209 A 
ATOM      7  N   UNL     1       4.468  -2.905  -5.126  0.00  0.00    -0.325 N 
ATOM      8  O   UNL     1       2.637  -1.669  -4.396  0.00  0.00    -0.435 OA
ATOM      9  C   UNL     1       1.951  -1.521  -3.236  0.00  0.00    +0.179 A 
ATOM     10  C   UNL     1       1.766  -0.260  -2.679  0.00  0.00    +0.160 A 
ATOM     11  C   UNL     1       1.053  -0.124  -1.500  0.00  0.00    +0.053 A 
ATOM     12  H   UNL     1       4.942  -3.750  -5.175  0.00  0.00    +0.169 HD
ENDROOT
BRANCH   7  13
ATOM     13  C   UNL     1       5.049  -1.766  -5.610  0.00  0.00    +0.043 A 
ATOM     14  C   UNL     1       4.307  -0.880  -6.396  0.00  0.00    +0.026 A 
ATOM     15  C   UNL     1       4.899   0.267  -6.882  0.00  0.00    +0.003 A 
ATOM     16  C   UNL     1       6.224   0.542  -6.593  0.00  0.00    +0.020 A 
ATOM     17  C   UNL     1       6.965  -0.331  -5.815  0.00  0.00    +0.043 A 
ATOM     18  C   UNL     1       6.384  -1.480  -5.317  0.00  0.00    +0.045 A 
ATOM     19 CL   UNL     1       8.627   0.023  -5.459  0.00  0.00    -0.083 Cl
ENDBRANCH   7  13
BRANCH   1  21
ATOM     20  C   UNL     1      -0.296   0.413   0.795  0.00  0.00    +0.015 C 
ATOM     21  C   UNL     1      -0.243  -1.070   0.423  0.00  0.00    -0.013 C 
ATOM     22  C   UNL     1       0.451  -1.852   1.540  0.00  0.00    +0.015 C 
ATOM     23  C   UNL     1      -1.666  -1.600   0.237  0.00  0.00    +0.015 C 
ENDBRANCH   1  21
BRANCH  10  24
ATOM     24  O   UNL     1       2.281   0.839  -3.293  0.00  0.00    -0.503 OA
ATOM     25  H   UNL     1       1.682   1.250  -3.931  0.00  0.00    +0.292 HD
ENDBRANCH  10  24
BRANCH   5  26
ATOM     26  C   UNL     1       2.839  -5.380  -4.839  0.00  0.00    +0.082 C 
ATOM     27  S   UNL     1       3.885  -5.449  -6.192  0.00  0.00    -0.035 S 
BRANCH  26  28
ATOM     28  N   UNL     1       2.270  -6.507  -4.369  0.00  0.00    -0.352 N 
ATOM     29  H   UNL     1       1.677  -6.468  -3.602  0.00  0.00    +0.143 HD
ATOM     30  H   UNL     1       2.454  -7.358  -4.797  0.00  0.00    +0.143 HD
ENDBRANCH  26  28
ENDBRANCH   5  26
TORSDOF 5
