REMARK  Name = ZINC39946747
REMARK  7 active torsions:
REMARK  status: ('A' for Active; 'I' for Inactive)
REMARK    1  A    between atoms: C_4  and  C_7
REMARK    2  A    between atoms: C_9  and  C_17
REMARK    3  A    between atoms: N_18  and  N_19
REMARK    4  A    between atoms: N_19  and  C_20
REMARK    5  A    between atoms: C_20  and  N_22
REMARK    6  A    between atoms: N_22  and  C_23
REMARK    7  A    between atoms: C_28  and  C_29
REMARK                            x       y       z     vdW  Elec       q    Type
REMARK                         _______ _______ _______ _____ _____    ______ ____
ROOT
ATOM      1  C   UNL     1       4.278  -0.327   2.548  0.00  0.00    +0.137 C 
ATOM      2  N   UNL     1       4.561  -0.941   3.670  0.00  0.00    -0.189 NA
ENDROOT
BRANCH   1   4
ATOM      3  C   UNL     1       4.210  -0.425  -0.059  0.00  0.00    +0.142 C 
ATOM      4  C   UNL     1       4.479  -0.976   1.324  0.00  0.00    +0.008 C 
ATOM      5  C   UNL     1       4.970  -2.266   1.125  0.00  0.00    +0.005 A 
ATOM      6  C   UNL     1       5.397  -3.272   2.018  0.00  0.00    +0.010 A 
ATOM      7  C   UNL     1       5.838  -4.460   1.532  0.00  0.00    +0.001 A 
ATOM      8  C   UNL     1       5.882  -4.719   0.159  0.00  0.00    +0.002 A 
ATOM      9  C   UNL     1       5.488  -3.800  -0.755  0.00  0.00    +0.026 A 
ATOM     10  C   UNL     1       5.015  -2.533  -0.323  0.00  0.00    +0.044 A 
ATOM     11  N   UNL     1       4.584  -1.486  -0.999  0.00  0.00    -0.373 N 
ATOM     12  H   UNL     1       4.523  -1.427  -1.966  0.00  0.00    +0.161 HD
BRANCH   3  16
ATOM     13  C   UNL     1       0.067   0.523  -0.486  0.00  0.00    +0.000 A 
ATOM     14  C   UNL     1       0.984   1.528  -0.236  0.00  0.00    +0.000 A 
ATOM     15  C   UNL     1       2.324   1.220  -0.098  0.00  0.00    +0.006 A 
ATOM     16  C   UNL     1       2.748  -0.091  -0.209  0.00  0.00    -0.021 A 
ATOM     17  C   UNL     1       1.831  -1.095  -0.457  0.00  0.00    +0.006 A 
ATOM     18  C   UNL     1       0.491  -0.788  -0.597  0.00  0.00    +0.000 A 
ENDBRANCH   3  16
ENDBRANCH   1   4
BRANCH   2  19
ATOM     19  N   UNL     1       4.359  -0.291   4.895  0.00  0.00    -0.218 N 
ATOM     20  H   UNL     1       4.010   0.614   4.912  0.00  0.00    +0.176 HD
BRANCH  19  21
ATOM     21  C   UNL     1       4.651  -0.923   6.049  0.00  0.00    +0.154 C 
ATOM     22  S   UNL     1       4.404  -0.129   7.546  0.00  0.00    -0.017 S 
BRANCH  21  23
ATOM     23  N   UNL     1       5.136  -2.180   6.025  0.00  0.00    -0.295 N 
ATOM     24  H   UNL     1       5.201  -2.659   5.184  0.00  0.00    +0.154 HD
BRANCH  23  25
ATOM     25  C   UNL     1       5.546  -2.794   7.213  0.00  0.00    +0.044 A 
ATOM     26  C   UNL     1       6.319  -2.092   8.129  0.00  0.00    +0.024 A 
ATOM     27  C   UNL     1       6.722  -2.701   9.301  0.00  0.00    +0.002 A 
ATOM     28  C   UNL     1       6.357  -4.009   9.563  0.00  0.00    +0.001 A 
ATOM     29  C   UNL     1       5.588  -4.711   8.653  0.00  0.00    +0.014 A 
ATOM     30  C   UNL     1       5.176  -4.105   7.482  0.00  0.00    +0.076 A 
BRANCH  30  31
ATOM     31  C   UNL     1       4.333  -4.869   6.494  0.00  0.00    +0.419 C 
ATOM     32  F   UNL     1       4.093  -6.158   6.984  0.00  0.00    -0.166 F 
ATOM     33  F   UNL     1       3.115  -4.206   6.311  0.00  0.00    -0.166 F 
ATOM     34  F   UNL     1       5.007  -4.953   5.271  0.00  0.00    -0.166 F 
ENDBRANCH  30  31
ENDBRANCH  23  25
ENDBRANCH  21  23
ENDBRANCH  19  21
ENDBRANCH   2  19
TORSDOF 7
