REMARK  Name = ZINC04682074
REMARK  8 active torsions:
REMARK  status: ('A' for Active; 'I' for Inactive)
REMARK    1  A    between atoms: C_1  and  C_2
REMARK    2  A    between atoms: C_5  and  O_9
REMARK    3  A    between atoms: C_7  and  C_8
REMARK    4  A    between atoms: O_9  and  C_10
REMARK    5  A    between atoms: C_10  and  C_11
REMARK    6  A    between atoms: C_11  and  O_13
REMARK    7  A    between atoms: O_13  and  N_14
REMARK    8  A    between atoms: C_15  and  C_16
REMARK                            x       y       z     vdW  Elec       q    Type
REMARK                         _______ _______ _______ _____ _____    ______ ____
ROOT
ATOM      1  O   UNL     1       0.084  -7.077  -2.176  0.00  0.00    -0.312 OA
ENDROOT
BRANCH   1   2
ATOM      2  N   UNL     1       0.103  -8.455  -1.853  0.00  0.00    -0.059 NA
ATOM      3  C   UNL     1       0.110  -9.347  -2.801  0.00  0.00    +0.163 C 
ATOM      4  N   UNL     1       0.098  -8.947  -4.125  0.00  0.00    -0.340 N 
ATOM      5  H   UNL     1       0.085  -8.003  -4.347  0.00  0.00    +0.144 HD
ATOM      6  H   UNL     1       0.103  -9.611  -4.832  0.00  0.00    +0.144 HD
BRANCH   3   7
ATOM      7  C   UNL     1       0.130 -10.787  -2.463  0.00  0.00    +0.018 A 
ATOM      8  C   UNL     1       0.137 -11.193  -1.128  0.00  0.00    +0.012 A 
ATOM      9  C   UNL     1       0.155 -12.537  -0.819  0.00  0.00    +0.016 A 
ATOM     10  C   UNL     1       0.167 -13.483  -1.830  0.00  0.00    +0.018 A 
ATOM     11  C   UNL     1       0.161 -13.086  -3.156  0.00  0.00    +0.016 A 
ATOM     12  C   UNL     1       0.138 -11.745  -3.478  0.00  0.00    +0.012 A 
ATOM     13 BR   UNL     1       0.193 -15.324  -1.398  0.00  0.00    -0.050 Br
ENDBRANCH   3   7
ENDBRANCH   1   2
BRANCH   1  14
ATOM     14  C   UNL     1       0.079  -6.266  -1.108  0.00  0.00    +0.373 C 
ATOM     15  O   UNL     1       0.090  -6.735   0.009  0.00  0.00    -0.244 OA
BRANCH  14  16
ATOM     16  C   UNL     1       0.058  -4.771  -1.298  0.00  0.00    +0.351 C 
BRANCH  16  17
ATOM     17  O   UNL     1       0.057  -4.129  -0.021  0.00  0.00    -0.481 OA
BRANCH  17  22
ATOM     18  C   UNL     1      -0.018   1.503   0.010  0.00  0.00    +0.044 C 
ATOM     19  C   UNL     1       0.002  -0.004   0.002  0.00  0.00    -0.047 A 
ATOM     20  C   UNL     1       0.006  -0.688  -1.200  0.00  0.00    +0.007 A 
ATOM     21  C   UNL     1       0.024  -2.069  -1.210  0.00  0.00    +0.046 A 
ATOM     22  C   UNL     1       0.039  -2.770  -0.013  0.00  0.00    +0.122 A 
ATOM     23  C   UNL     1       0.036  -2.082   1.191  0.00  0.00    +0.049 A 
ATOM     24  C   UNL     1       0.023  -0.701   1.196  0.00  0.00    -0.044 A 
ATOM     25  C   UNL     1       0.025   0.048   2.504  0.00  0.00    +0.044 C 
ENDBRANCH  17  22
ENDBRANCH  16  17
ENDBRANCH  14  16
ENDBRANCH   1  14
TORSDOF 6
