REMARK  Name = ZINC02276623
REMARK  5 active torsions:
REMARK  status: ('A' for Active; 'I' for Inactive)
REMARK    1  A    between atoms: C_14  and  C_15
REMARK    2  A    between atoms: N_16  and  N_17
REMARK    3  A    between atoms: C_18  and  C_20
REMARK    4  A    between atoms: C_21  and  C_31
REMARK    5  A    between atoms: C_31  and  N_62
REMARK                            x       y       z     vdW  Elec       q    Type
REMARK                         _______ _______ _______ _____ _____    ______ ____
ROOT
ATOM      1  C   UNL     1       5.343  -0.885   1.250  0.00  0.00    +0.170 A 
ATOM      2  C   UNL     1       4.424  -0.163   1.956  0.00  0.00    +0.063 A 
ATOM      3  N   UNL     1       5.062   0.936   2.417  0.00  0.00    -0.194 N 
ATOM      4  N   UNL     1       6.390   0.847   1.977  0.00  0.00    -0.058 NA
ATOM      5  N   UNL     1       6.519  -0.234   1.290  0.00  0.00    -0.124 NA
ATOM      6  C   UNL     1       4.505   1.962   3.189  0.00  0.00    +0.240 A 
ATOM      7  C   UNL     1       5.214   3.147   3.681  0.00  0.00    +0.206 A 
ATOM      8  N   UNL     1       4.372   3.877   4.360  0.00  0.00    -0.032 NA
ATOM      9  O   UNL     1       3.117   3.220   4.342  0.00  0.00    -0.239 OA
ATOM     10  N   UNL     1       3.267   2.030   3.588  0.00  0.00    -0.027 NA
ATOM     11  N   UNL     1       6.555   3.443   3.461  0.00  0.00    -0.337 N 
ATOM     12  H   UNL     1       7.106   2.837   2.941  0.00  0.00    +0.144 HD
ATOM     13  H   UNL     1       6.939   4.255   3.828  0.00  0.00    +0.144 HD
ENDROOT
BRANCH   1  15
ATOM     14  N   UNL     1       6.086  -2.780  -0.106  0.00  0.00    -0.202 N 
ATOM     15  C   UNL     1       5.089  -2.163   0.559  0.00  0.00    +0.285 C 
ATOM     16  O   UNL     1       3.980  -2.661   0.590  0.00  0.00    -0.267 OA
ATOM     17  H   UNL     1       6.971  -2.382  -0.131  0.00  0.00    +0.178 HD
BRANCH  14  19
ATOM     18  C   UNL     1       6.807  -4.589  -1.405  0.00  0.00    +0.139 C 
ATOM     19  N   UNL     1       5.844  -3.994  -0.762  0.00  0.00    -0.187 NA
BRANCH  18  33
ATOM     20  C   UNL     1       9.511  -7.644  -4.476  0.00  0.00    +0.001 A 
ATOM     21  C   UNL     1       9.756  -6.436  -3.824  0.00  0.00    +0.001 A 
ATOM     22  C   UNL     1       8.813  -5.840  -3.047  0.00  0.00    +0.009 A 
ATOM     23  C   UNL     1       7.554  -6.447  -2.894  0.00  0.00    -0.009 A 
ATOM     24  C   UNL     1       7.296  -7.718  -3.573  0.00  0.00    -0.017 A 
ATOM     25  C   UNL     1       8.318  -8.284  -4.365  0.00  0.00    +0.008 A 
ATOM     26  C   UNL     1       6.059  -8.350  -3.439  0.00  0.00    +0.017 A 
ATOM     27  C   UNL     1       5.063  -7.773  -2.651  0.00  0.00    -0.017 A 
ATOM     28  C   UNL     1       3.804  -8.394  -2.500  0.00  0.00    +0.008 A 
ATOM     29  C   UNL     1       2.856  -7.806  -1.726  0.00  0.00    +0.001 A 
ATOM     30  C   UNL     1       3.091  -6.599  -1.070  0.00  0.00    +0.001 A 
ATOM     31  C   UNL     1       4.282  -5.951  -1.175  0.00  0.00    +0.009 A 
ATOM     32  C   UNL     1       5.308  -6.504  -1.962  0.00  0.00    -0.009 A 
ATOM     33  C   UNL     1       6.555  -5.859  -2.092  0.00  0.00    +0.010 A 
ENDBRANCH  18  33
ENDBRANCH  14  19
ENDBRANCH   1  15
BRANCH   2  34
ATOM     34  C   UNL     1       2.975  -0.519   2.173  0.00  0.00    -0.020 C 
BRANCH  34  40
ATOM     35  C   UNL     1       0.789  -0.463   1.135  0.00  0.00    -0.078 C 
ATOM     36  C   UNL     1       0.015   0.041  -0.085  0.00  0.00    -0.019 C 
ATOM     37  C   UNL     1       0.003   1.572  -0.080  0.00  0.00    -0.004 C 
ATOM     38  C   UNL     1       1.446   2.085  -0.076  0.00  0.00    -0.019 C 
ATOM     39  C   UNL     1       2.179   1.522   1.144  0.00  0.00    -0.078 C 
ATOM     40  N   UNL     1       2.176   0.046   1.067  0.00  0.00    +0.383 N 
ATOM     41  H   UNL     1       2.592  -0.242   0.174  0.00  0.00    -0.081 HD
ENDBRANCH  34  40
ENDBRANCH   2  34
TORSDOF 5
