REMARK  Name = ZINC55531137
REMARK  4 active torsions:
REMARK  status: ('A' for Active; 'I' for Inactive)
REMARK    1  A    between atoms: C_9  and  C_10
REMARK    2  A    between atoms: C_11  and  C_12
REMARK    3  A    between atoms: N_14  and  C_15
REMARK    4  A    between atoms: C_21  and  C_23
REMARK                            x       y       z     vdW  Elec       q    Type
REMARK                         _______ _______ _______ _____ _____    ______ ____
ROOT
ATOM      1  C   UNL     1       6.814  -2.030   0.836  0.00  0.00    +0.237 C 
ATOM      2  O   UNL     1       7.090  -1.065   0.146  0.00  0.00    -0.271 OA
ATOM      3  N   UNL     1       7.738  -2.551   1.667  0.00  0.00    -0.309 N 
ATOM      4  H   UNL     1       7.518  -3.319   2.216  0.00  0.00    +0.149 HD
ENDROOT
BRANCH   3   5
ATOM      5  C   UNL     1       9.075  -1.956   1.740  0.00  0.00    +0.076 C 
ATOM      6  C   UNL     1       9.954  -2.540   0.632  0.00  0.00    +0.041 C 
ATOM      7  C   UNL     1      11.341  -1.891   0.690  0.00  0.00    +0.110 C 
ATOM      8  N   UNL     1      11.885  -2.060   2.044  0.00  0.00    -0.295 N 
ATOM      9  C   UNL     1      11.081  -1.615   3.190  0.00  0.00    +0.110 C 
ATOM     10  C   UNL     1       9.697  -2.268   3.104  0.00  0.00    +0.041 C 
ATOM     11  C   UNL     1      13.100  -2.613   2.231  0.00  0.00    +0.282 C 
ATOM     12  O   UNL     1      13.700  -3.097   1.289  0.00  0.00    -0.267 OA
BRANCH  11  13
ATOM     13  C   UNL     1      13.698  -2.633   3.570  0.00  0.00    +0.189 A 
ATOM     14  C   UNL     1      14.844  -3.284   3.927  0.00  0.00    +0.054 A 
ATOM     15  C   UNL     1      15.042  -3.032   5.294  0.00  0.00    +0.042 A 
ATOM     16  C   UNL     1      14.021  -2.248   5.706  0.00  0.00    +0.196 A 
ATOM     17  O   UNL     1      13.216  -2.006   4.663  0.00  0.00    -0.458 OA
ENDBRANCH  11  13
ENDBRANCH   3   5
BRANCH   1  19
ATOM     18  C   UNL     1       4.593  -2.075  -0.074  0.00  0.00    +0.034 C 
ATOM     19  C   UNL     1       5.527  -2.602   0.765  0.00  0.00    +0.069 C 
BRANCH  18  28
ATOM     20  C   UNL     1      -0.540  -1.212   0.051  0.00  0.00    +0.005 A 
ATOM     21  C   UNL     1       0.492  -0.271   0.172  0.00  0.00    +0.018 A 
ATOM     22  C   UNL     1       1.784  -0.669   0.117  0.00  0.00    +0.093 A 
ATOM     23  N   UNL     1       2.098  -1.981  -0.055  0.00  0.00    -0.298 N 
ATOM     24  C   UNL     1       1.115  -2.923  -0.175  0.00  0.00    +0.140 A 
ATOM     25  C   UNL     1      -0.234  -2.529  -0.121  0.00  0.00    +0.047 A 
ATOM     26  N   UNL     1       1.684  -4.118  -0.333  0.00  0.00    -0.216 NA
ATOM     27  C   UNL     1       3.002  -3.993  -0.320  0.00  0.00    +0.155 A 
ATOM     28  C   UNL     1       3.308  -2.647  -0.145  0.00  0.00    +0.085 A 
ATOM     29 CL   UNL     1       4.149  -5.285  -0.492  0.00  0.00    -0.060 Cl
ENDBRANCH  18  28
ENDBRANCH   1  19
TORSDOF 4
