REMARK  Name = ZINC46934929
REMARK  10 active torsions:
REMARK  status: ('A' for Active; 'I' for Inactive)
REMARK    1  A    between atoms: C_1  and  C_2
REMARK    2  A    between atoms: C_3  and  N_28
REMARK    3  A    between atoms: C_4  and  C_27
REMARK    4  A    between atoms: N_5  and  C_7
REMARK    5  A    between atoms: C_7  and  C_8
REMARK    6  A    between atoms: N_10  and  C_11
REMARK    7  A    between atoms: C_11  and  C_12
REMARK    8  A    between atoms: C_15  and  C_18
REMARK    9  A    between atoms: C_18  and  N_19
REMARK   10  A    between atoms: C_24  and  C_26
REMARK                            x       y       z     vdW  Elec       q    Type
REMARK                         _______ _______ _______ _____ _____    ______ ____
ROOT
ATOM      1  C   UNL     1       3.133  -5.128   2.830  0.00  0.00    +0.139 C 
ENDROOT
BRANCH   1   2
ATOM      2  C   UNL     1       3.154  -6.348   3.715  0.00  0.00    -0.030 A 
ATOM      3  C   UNL     1       3.152  -6.204   5.090  0.00  0.00    +0.005 A 
ATOM      4  C   UNL     1       3.171  -7.323   5.902  0.00  0.00    +0.002 A 
ATOM      5  C   UNL     1       3.191  -8.585   5.339  0.00  0.00    -0.064 A 
ATOM      6  C   UNL     1       3.191  -8.729   3.964  0.00  0.00    +0.002 A 
ATOM      7  C   UNL     1       3.168  -7.610   3.152  0.00  0.00    +0.005 A 
BRANCH   5   8
ATOM      8  C   UNL     1       3.212  -9.805   6.223  0.00  0.00    -0.043 C 
BRANCH   8   9
ATOM      9  N   UNL     1       1.835 -10.224   6.513  0.00  0.00    +0.384 N 
ATOM     10  C   UNL     1       1.182 -10.648   5.269  0.00  0.00    -0.078 C 
ATOM     11  C   UNL     1      -0.278 -11.009   5.552  0.00  0.00    -0.019 C 
ATOM     12  C   UNL     1      -0.328 -12.151   6.571  0.00  0.00    -0.003 C 
ATOM     13  C   UNL     1       0.420 -11.724   7.837  0.00  0.00    -0.016 C 
ATOM     14  C   UNL     1       1.854 -11.337   7.470  0.00  0.00    -0.071 C 
ATOM     15  C   UNL     1       2.606 -10.911   8.732  0.00  0.00    -0.013 C 
ATOM     16  H   UNL     1       1.325  -9.449   6.911  0.00  0.00    -0.081 HD
ENDBRANCH   8   9
ENDBRANCH   5   8
ENDBRANCH   1   2
BRANCH   1  19
ATOM     17  C   UNL     1       1.481  -3.682   1.773  0.00  0.00    +0.235 C 
ATOM     18  O   UNL     1       2.392  -3.032   1.306  0.00  0.00    -0.274 OA
ATOM     19  N   UNL     1       1.745  -4.751   2.550  0.00  0.00    -0.310 N 
ATOM     20  H   UNL     1       1.017  -5.271   2.924  0.00  0.00    +0.149 HD
BRANCH  17  21
ATOM     21  C   UNL     1       0.053  -3.295   1.485  0.00  0.00    +0.239 C 
BRANCH  21  26
ATOM     22  C   UNL     1      -0.018   1.503   0.010  0.00  0.00    +0.070 C 
ATOM     23  C   UNL     1       0.002  -0.004   0.002  0.00  0.00    +0.090 A 
ATOM     24  C   UNL     1       0.008  -0.818  -1.135  0.00  0.00    +0.169 A 
ATOM     25  C   UNL     1       0.027  -2.107  -0.725  0.00  0.00    +0.067 A 
ATOM     26  N   UNL     1       0.034  -2.109   0.625  0.00  0.00    -0.257 N 
ATOM     27  N   UNL     1       0.023  -0.777   1.058  0.00  0.00    -0.173 NA
ATOM     28  C   UNL     1       0.039  -3.323  -1.615  0.00  0.00    +0.068 C 
BRANCH  24  29
ATOM     29  N   UNL     1      -0.005  -0.351  -2.540  0.00  0.00    +0.060 N 
ATOM     30  O   UNL     1       1.036  -0.147  -3.119  0.00  0.00    -0.126 OA
ATOM     31  O   UNL     1      -1.058  -0.175  -3.109  0.00  0.00    -0.126 OA
ENDBRANCH  24  29
ENDBRANCH  21  26
ENDBRANCH  17  21
ENDBRANCH   1  19
TORSDOF 7
