REMARK  Name = ZINC38705084
REMARK  9 active torsions:
REMARK  status: ('A' for Active; 'I' for Inactive)
REMARK    1  A    between atoms: C_1  and  C_2
REMARK    2  A    between atoms: C_2  and  C_3
REMARK    3  A    between atoms: C_6  and  C_9
REMARK    4  A    between atoms: C_12  and  C_28
REMARK    5  A    between atoms: N_19  and  C_20
REMARK    6  A    between atoms: C_20  and  C_21
REMARK    7  A    between atoms: C_29  and  C_36
REMARK    8  A    between atoms: C_31  and  C_35
REMARK    9  A    between atoms: C_33  and  O_34
REMARK                            x       y       z     vdW  Elec       q    Type
REMARK                         _______ _______ _______ _____ _____    ______ ____
ROOT
ATOM      1  C   UNL     1      -5.444  -2.009   0.060  0.00  0.00    +0.142 C 
ATOM      2  C   UNL     1      -5.447  -3.459  -0.340  0.00  0.00    +0.035 A 
ATOM      3  C   UNL     1      -5.018  -4.761  -0.059  0.00  0.00    +0.102 A 
ATOM      4  N   UNL     1      -5.508  -5.548  -0.998  0.00  0.00    -0.173 NA
ATOM      5  N   UNL     1      -6.203  -4.872  -1.842  0.00  0.00    -0.272 N 
ATOM      6  H   UNL     1      -6.657  -5.244  -2.614  0.00  0.00    +0.189 HD
ATOM      7  C   UNL     1      -6.207  -3.552  -1.490  0.00  0.00    +0.126 A 
ATOM      8  C   UNL     1      -6.691  -2.212  -1.839  0.00  0.00    +0.266 C 
ATOM      9  O   UNL     1      -7.388  -1.954  -2.802  0.00  0.00    -0.268 OA
ATOM     10  N   UNL     1      -6.253  -1.306  -0.944  0.00  0.00    -0.281 N 
ENDROOT
BRANCH   3  11
ATOM     11  C   UNL     1      -4.168  -5.179   1.083  0.00  0.00    +0.047 A 
ATOM     12  C   UNL     1      -3.048  -5.977   0.866  0.00  0.00    -0.037 A 
ATOM     13  C   UNL     1      -2.261  -6.364   1.932  0.00  0.00    +0.007 A 
ATOM     14  C   UNL     1      -2.581  -5.961   3.216  0.00  0.00    -0.047 A 
ATOM     15  C   UNL     1      -3.690  -5.169   3.443  0.00  0.00    +0.049 A 
ATOM     16  C   UNL     1      -4.486  -4.768   2.381  0.00  0.00    +0.127 A 
ATOM     17  C   UNL     1      -1.715  -6.388   4.374  0.00  0.00    +0.044 C 
ATOM     18  C   UNL     1      -2.696  -6.419  -0.531  0.00  0.00    +0.044 C 
BRANCH  16  19
ATOM     19  O   UNL     1      -5.573  -3.984   2.601  0.00  0.00    -0.506 OA
ATOM     20  H   UNL     1      -6.369  -4.476   2.847  0.00  0.00    +0.292 HD
ENDBRANCH  16  19
ENDBRANCH   3  11
BRANCH   1  24
ATOM     21  C   UNL     1      -1.450  -0.494   0.054  0.00  0.00    -0.048 A 
ATOM     22  C   UNL     1      -2.146  -0.601   1.243  0.00  0.00    +0.004 A 
ATOM     23  C   UNL     1      -3.439  -1.091   1.245  0.00  0.00    +0.006 A 
ATOM     24  C   UNL     1      -4.035  -1.474   0.058  0.00  0.00    -0.022 A 
ATOM     25  C   UNL     1      -3.338  -1.366  -1.131  0.00  0.00    +0.006 A 
ATOM     26  C   UNL     1      -2.047  -0.872  -1.134  0.00  0.00    +0.004 A 
BRANCH  21  28
ATOM     27  C   UNL     1      -0.071   1.560  -0.119  0.00  0.00    +0.009 C 
ATOM     28  C   UNL     1      -0.040   0.040   0.052  0.00  0.00    +0.032 C 
ENDBRANCH  21  28
ENDBRANCH   1  24
BRANCH  10  29
ATOM     29  C   UNL     1      -6.534   0.131  -0.967  0.00  0.00    +0.144 C 
BRANCH  29  30
ATOM     30  C   UNL     1      -5.467   0.839  -1.762  0.00  0.00    -0.030 A 
ATOM     31  C   UNL     1      -4.328   1.301  -1.130  0.00  0.00    +0.008 A 
ATOM     32  C   UNL     1      -3.348   1.950  -1.858  0.00  0.00    +0.038 A 
ATOM     33  C   UNL     1      -3.509   2.138  -3.220  0.00  0.00    +0.123 A 
ATOM     34  C   UNL     1      -4.651   1.674  -3.852  0.00  0.00    +0.038 A 
ATOM     35  C   UNL     1      -5.626   1.021  -3.123  0.00  0.00    +0.008 A 
ATOM     36  F   UNL     1      -2.553   2.772  -3.933  0.00  0.00    -0.205 F 
ENDBRANCH  29  30
ENDBRANCH  10  29
TORSDOF 6
