REMARK  Name = ZINC15053754
REMARK  5 active torsions:
REMARK  status: ('A' for Active; 'I' for Inactive)
REMARK    1  A    between atoms: C_4  and  O_25
REMARK    2  A    between atoms: C_5  and  C_7
REMARK    3  A    between atoms: N_11  and  C_15
REMARK    4  A    between atoms: C_18  and  S_21
REMARK    5  A    between atoms: S_21  and  N_24
REMARK                            x       y       z     vdW  Elec       q    Type
REMARK                         _______ _______ _______ _____ _____    ______ ____
ROOT
ATOM      1  C   UNL     1       1.117  -2.182  -0.672  0.00  0.00    +0.032 C 
ATOM      2  C   UNL     1       0.027  -2.869  -0.248  0.00  0.00    +0.079 C 
ATOM      3  C   UNL     1      -0.179  -4.327  -0.150  0.00  0.00    +0.263 C 
ATOM      4  O   UNL     1       0.691  -5.115  -0.470  0.00  0.00    -0.269 OA
ATOM      5  N   UNL     1      -1.352  -4.738   0.301  0.00  0.00    -0.215 N 
ATOM      6  C   UNL     1      -2.326  -3.825   0.660  0.00  0.00    +0.165 C 
ATOM      7  N   UNL     1      -3.525  -4.056   1.119  0.00  0.00    -0.279 NA
ATOM      8  S   UNL     1      -1.540  -2.252   0.348  0.00  0.00    -0.049 S 
ATOM      9  H   UNL     1      -4.113  -3.315   1.333  0.00  0.00    +0.189 HD
ENDROOT
BRANCH   1  14
ATOM     10  C   UNL     1      -0.272   1.267  -1.147  0.00  0.00    +0.001 A 
ATOM     11  C   UNL     1       0.889   2.017  -1.233  0.00  0.00    +0.004 A 
ATOM     12  C   UNL     1       2.126   1.407  -1.138  0.00  0.00    +0.046 A 
ATOM     13  C   UNL     1       2.213   0.037  -0.955  0.00  0.00    +0.124 A 
ATOM     14  C   UNL     1       1.039  -0.729  -0.866  0.00  0.00    +0.018 A 
ATOM     15  C   UNL     1      -0.206  -0.097  -0.964  0.00  0.00    +0.011 A 
BRANCH  13  16
ATOM     16  O   UNL     1       3.427  -0.563  -0.863  0.00  0.00    -0.506 OA
ATOM     17  H   UNL     1       3.770  -0.620   0.040  0.00  0.00    +0.292 HD
ENDBRANCH  13  16
ENDBRANCH   1  14
BRANCH   5  18
ATOM     18  C   UNL     1      -1.610  -6.111   0.417  0.00  0.00    +0.044 A 
ATOM     19  C   UNL     1      -1.190  -6.804   1.544  0.00  0.00    +0.026 A 
ATOM     20  C   UNL     1      -1.446  -8.157   1.656  0.00  0.00    +0.030 A 
ATOM     21  C   UNL     1      -2.118  -8.820   0.646  0.00  0.00    +0.105 A 
ATOM     22  C   UNL     1      -2.537  -8.132  -0.478  0.00  0.00    +0.030 A 
ATOM     23  C   UNL     1      -2.290  -6.778  -0.592  0.00  0.00    +0.026 A 
BRANCH  21  24
ATOM     24  S   UNL     1      -2.442 -10.546   0.792  0.00  0.00    +0.056 S 
ATOM     25  O   UNL     1      -2.604 -11.042  -0.530  0.00  0.00    -0.153 OA
ATOM     26  O   UNL     1      -1.470 -11.068   1.687  0.00  0.00    -0.153 OA
BRANCH  24  27
ATOM     27  N   UNL     1      -3.910 -10.708   1.541  0.00  0.00    -0.204 NA
ATOM     28  H   UNL     1      -4.409  -9.919   1.806  0.00  0.00    +0.144 HD
ATOM     29  H   UNL     1      -4.271 -11.591   1.716  0.00  0.00    +0.144 HD
ENDBRANCH  24  27
ENDBRANCH  21  24
ENDBRANCH   5  18
TORSDOF 5
