REMARK  Name = ZINC56912430
REMARK  7 active torsions:
REMARK  status: ('A' for Active; 'I' for Inactive)
REMARK    1  A    between atoms: C_1  and  C_2
REMARK    2  A    between atoms: C_7  and  N_8
REMARK    3  A    between atoms: C_9  and  N_27
REMARK    4  A    between atoms: C_16  and  C_18
REMARK    5  A    between atoms: C_18  and  O_19
REMARK    6  A    between atoms: O_19  and  C_20
REMARK    7  A    between atoms: C_25  and  C_26
REMARK                            x       y       z     vdW  Elec       q    Type
REMARK                         _______ _______ _______ _____ _____    ______ ____
ROOT
ATOM      1  N   UNL     1       0.418   0.150   2.331  0.00  0.00    -0.215 N 
ATOM      2  C   UNL     1       0.379  -0.368   3.589  0.00  0.00    +0.146 A 
ATOM      3  C   UNL     1       0.131   0.661   4.446  0.00  0.00    +0.037 A 
ATOM      4  C   UNL     1       0.017   1.831   3.692  0.00  0.00    +0.087 A 
ATOM      5  N   UNL     1       0.194   1.528   2.429  0.00  0.00    -0.168 NA
ATOM      6  C   UNL     1      -0.258   2.981   4.629  0.00  0.00    +0.165 C 
ATOM      7  N   UNL     1      -0.304   2.446   5.993  0.00  0.00    -0.288 N 
ATOM      8  C   UNL     1      -0.064   1.002   5.901  0.00  0.00    +0.149 C 
ATOM      9  C   UNL     1      -0.526   3.150   7.121  0.00  0.00    +0.254 C 
ATOM     10  O   UNL     1      -0.539   2.586   8.194  0.00  0.00    -0.272 OA
ENDROOT
BRANCH   1  17
ATOM     11  C   UNL     1      -1.334   0.584   0.131  0.00  0.00    +0.046 C 
ATOM     12  C   UNL     1      -0.183  -0.386   0.053  0.00  0.00    -0.025 A 
ATOM     13  C   UNL     1       0.049  -1.091  -1.113  0.00  0.00    +0.005 A 
ATOM     14  C   UNL     1       1.104  -1.981  -1.185  0.00  0.00    +0.000 A 
ATOM     15  C   UNL     1       1.931  -2.169  -0.092  0.00  0.00    +0.002 A 
ATOM     16  C   UNL     1       1.703  -1.467   1.076  0.00  0.00    +0.028 A 
ATOM     17  C   UNL     1       0.648  -0.568   1.150  0.00  0.00    +0.071 A 
ENDBRANCH   1  17
BRANCH   2  18
ATOM     18  N   UNL     1       0.560  -1.709   3.937  0.00  0.00    -0.308 N 
ATOM     19  C   UNL     1       1.445  -2.178   4.866  0.00  0.00    +0.092 A 
ATOM     20  C   UNL     1       1.325  -3.520   4.921  0.00  0.00    +0.019 A 
ATOM     21  C   UNL     1       0.332  -3.895   3.994  0.00  0.00    +0.019 A 
ATOM     22  C   UNL     1      -0.123  -2.768   3.410  0.00  0.00    +0.092 A 
ENDBRANCH   2  18
BRANCH   9  23
ATOM     23  C   UNL     1      -0.757   4.637   7.048  0.00  0.00    +0.324 C 
BRANCH  23  24
ATOM     24  O   UNL     1      -0.967   5.152   8.364  0.00  0.00    -0.483 OA
BRANCH  24  25
ATOM     25  C   UNL     1      -1.192   6.487   8.476  0.00  0.00    +0.124 A 
ATOM     26  C   UNL     1      -1.216   7.285   7.341  0.00  0.00    +0.046 A 
ATOM     27  C   UNL     1      -1.446   8.642   7.457  0.00  0.00    +0.004 A 
ATOM     28  C   UNL     1      -1.651   9.206   8.704  0.00  0.00    +0.000 A 
ATOM     29  C   UNL     1      -1.627   8.413   9.836  0.00  0.00    +0.007 A 
ATOM     30  C   UNL     1      -1.404   7.054   9.724  0.00  0.00    -0.009 A 
ATOM     31  C   UNL     1      -1.384   6.189  10.958  0.00  0.00    +0.047 C 
ENDBRANCH  24  25
ENDBRANCH  23  24
ENDBRANCH   9  23
TORSDOF 5
