REMARK  Name = ZINC08856855
REMARK  10 active torsions:
REMARK  status: ('A' for Active; 'I' for Inactive)
REMARK    1  A    between atoms: C_1  and  C_2
REMARK    2  A    between atoms: C_7  and  N_8
REMARK    3  A    between atoms: C_9  and  C_11
REMARK    4  A    between atoms: C_12  and  C_36
REMARK    5  A    between atoms: C_14  and  S_25
REMARK    6  A    between atoms: C_15  and  C_23
REMARK    7  A    between atoms: C_16  and  C_18
REMARK    8  A    between atoms: S_25  and  C_26
REMARK    9  A    between atoms: C_26  and  C_27
REMARK   10  A    between atoms: C_27  and  C_29
REMARK                            x       y       z     vdW  Elec       q    Type
REMARK                         _______ _______ _______ _____ _____    ______ ____
ROOT
ATOM      1  C   UNL     1      -0.774  -5.053   0.341  0.00  0.00    +0.047 C 
ATOM      2  C   UNL     1       0.193  -4.122   0.320  0.00  0.00    +0.015 C 
ATOM      3  N   UNL     1      -0.080  -2.830  -0.039  0.00  0.00    -0.312 N 
ATOM      4  C   UNL     1      -1.378  -2.370  -0.033  0.00  0.00    +0.080 C 
ATOM      5  C   UNL     1      -2.420  -3.244  -0.020  0.00  0.00    +0.072 C 
ATOM      6  C   UNL     1      -2.191  -4.729  -0.033  0.00  0.00    +0.134 C 
ATOM      7  C   UNL     1       1.601  -4.505   0.696  0.00  0.00    +0.061 C 
ATOM      8  H   UNL     1       0.738  -2.156  -0.334  0.00  0.00    +0.152 HD
ENDROOT
BRANCH   6   9
ATOM      9  C   UNL     1      -2.475  -5.267  -1.412  0.00  0.00    +0.118 A 
ATOM     10  C   UNL     1      -3.420  -6.172  -1.724  0.00  0.00    +0.045 A 
ATOM     11  C   UNL     1      -3.337  -6.386  -3.119  0.00  0.00    +0.041 A 
ATOM     12  C   UNL     1      -2.347  -5.599  -3.576  0.00  0.00    +0.195 A 
ATOM     13  O   UNL     1      -1.832  -4.919  -2.538  0.00  0.00    -0.467 OA
ENDBRANCH   6   9
BRANCH   1  15
ATOM     14  N   UNL     1      -1.405  -7.325   0.756  0.00  0.00    -0.281 N 
ATOM     15  C   UNL     1      -0.448  -6.376   0.728  0.00  0.00    +0.247 C 
ATOM     16  O   UNL     1       0.697  -6.656   1.035  0.00  0.00    -0.270 OA
ATOM     17  H   UNL     1      -2.454  -7.053   0.567  0.00  0.00    +0.155 HD
BRANCH  14  24
ATOM     18  C   UNL     1      -3.407  -9.033   1.836  0.00  0.00    +0.045 C 
ATOM     19  C   UNL     1      -2.010  -9.522   1.552  0.00  0.00    -0.029 A 
ATOM     20  C   UNL     1      -1.670 -10.835   1.816  0.00  0.00    +0.005 A 
ATOM     21  C   UNL     1      -0.389 -11.284   1.556  0.00  0.00    +0.000 A 
ATOM     22  C   UNL     1       0.556 -10.422   1.031  0.00  0.00    +0.002 A 
ATOM     23  C   UNL     1       0.221  -9.110   0.759  0.00  0.00    +0.023 A 
ATOM     24  C   UNL     1      -1.064  -8.654   1.024  0.00  0.00    +0.037 A 
ENDBRANCH  14  24
ENDBRANCH   1  15
BRANCH   5  25
ATOM     25  C   UNL     1      -3.760  -2.739   0.001  0.00  0.00    +0.098 C 
ATOM     26  N   UNL     1      -4.823  -2.339   0.017  0.00  0.00    -0.191 NA
ENDBRANCH   5  25
BRANCH   4  27
ATOM     27  S   UNL     1      -1.691  -0.636  -0.034  0.00  0.00    -0.101 S 
BRANCH  27  28
ATOM     28  C   UNL     1       0.007  -0.010  -0.045  0.00  0.00    +0.155 C 
BRANCH  28  29
ATOM     29  C   UNL     1      -0.013   1.497  -0.047  0.00  0.00    +0.173 C 
ATOM     30  O   UNL     1      -1.071   2.089  -0.048  0.00  0.00    -0.291 OA
BRANCH  29  31
ATOM     31  C   UNL     1       1.251   2.249  -0.056  0.00  0.00    +0.018 A 
ATOM     32  C   UNL     1       2.474   1.568  -0.055  0.00  0.00    +0.014 A 
ATOM     33  C   UNL     1       3.654   2.279  -0.069  0.00  0.00    +0.039 A 
ATOM     34  C   UNL     1       3.632   3.666  -0.072  0.00  0.00    +0.123 A 
ATOM     35  C   UNL     1       2.423   4.346  -0.066  0.00  0.00    +0.039 A 
ATOM     36  C   UNL     1       1.236   3.648  -0.058  0.00  0.00    +0.014 A 
ATOM     37  F   UNL     1       4.793   4.357  -0.079  0.00  0.00    -0.205 F 
ENDBRANCH  29  31
ENDBRANCH  28  29
ENDBRANCH  27  28
ENDBRANCH   4  27
TORSDOF 8
