REMARK  Name = ZINC09608310
REMARK  10 active torsions:
REMARK  status: ('A' for Active; 'I' for Inactive)
REMARK    1  A    between atoms: C_1  and  C_2
REMARK    2  A    between atoms: N_7  and  C_9
REMARK    3  A    between atoms: C_9  and  C_10
REMARK    4  A    between atoms: C_10  and  C_11
REMARK    5  A    between atoms: C_11  and  N_12
REMARK    6  A    between atoms: C_13  and  C_15
REMARK    7  A    between atoms: C_18  and  C_21
REMARK    8  A    between atoms: C_21  and  N_22
REMARK    9  A    between atoms: N_22  and  S_23
REMARK   10  A    between atoms: S_23  and  C_26
REMARK                            x       y       z     vdW  Elec       q    Type
REMARK                         _______ _______ _______ _____ _____    ______ ____
ROOT
ATOM      1  C   UNL     1       2.337  -8.125   4.956  0.00  0.00    +0.075 C 
ATOM      2  C   UNL     1       0.866  -8.546   4.953  0.00  0.00    +0.013 C 
ATOM      3  C   UNL     1       0.772 -10.072   5.012  0.00  0.00    +0.005 C 
ATOM      4  C   UNL     1       1.444 -10.576   6.290  0.00  0.00    +0.005 C 
ATOM      5  C   UNL     1       2.915 -10.155   6.294  0.00  0.00    +0.005 C 
ATOM      6  C   UNL     1       3.009  -8.629   6.235  0.00  0.00    +0.013 C 
ENDROOT
BRANCH   1   8
ATOM      7  N   UNL     1       1.902  -5.954   3.854  0.00  0.00    -0.315 N 
ATOM      8  C   UNL     1       2.430  -6.622   4.899  0.00  0.00    +0.216 C 
ATOM      9  O   UNL     1       2.979  -6.014   5.793  0.00  0.00    -0.276 OA
ATOM     10  H   UNL     1       1.463  -6.441   3.139  0.00  0.00    +0.149 HD
BRANCH   7  11
ATOM     11  C   UNL     1       1.992  -4.493   3.798  0.00  0.00    +0.102 C 
BRANCH  11  12
ATOM     12  C   UNL     1       1.320  -3.989   2.519  0.00  0.00    +0.000 C 
BRANCH  12  13
ATOM     13  C   UNL     1       1.413  -2.463   2.461  0.00  0.00    -0.077 C 
BRANCH  13  19
ATOM     14  C   UNL     1      -0.019   1.526   0.010  0.00  0.00    +0.005 C 
ATOM     15  C   UNL     1       0.002  -0.004   0.002  0.00  0.00    -0.031 C 
ATOM     16  C   UNL     1       0.721  -0.499  -1.257  0.00  0.00    -0.001 C 
ATOM     17  C   UNL     1       0.805  -2.027  -1.217  0.00  0.00    -0.018 C 
ATOM     18  C   UNL     1       1.518  -2.460   0.066  0.00  0.00    -0.079 C 
ATOM     19  N   UNL     1       0.768  -1.979   1.233  0.00  0.00    +0.380 N 
ATOM     20  C   UNL     1       0.744  -0.512   1.240  0.00  0.00    -0.076 C 
ATOM     21  H   UNL     1      -0.177  -2.330   1.192  0.00  0.00    -0.082 HD
ENDBRANCH  13  19
ENDBRANCH  12  13
ENDBRANCH  11  12
ENDBRANCH   7  11
ENDBRANCH   1   8
BRANCH   4  22
ATOM     22  C   UNL     1       1.351 -12.102   6.349  0.00  0.00    +0.109 C 
BRANCH  22  23
ATOM     23  N   UNL     1       1.887 -12.576   7.627  0.00  0.00    -0.190 NA
ATOM     24  H   UNL     1       2.420 -11.982   8.180  0.00  0.00    +0.148 HD
BRANCH  23  25
ATOM     25  S   UNL     1       1.583 -14.124   8.130  0.00  0.00    +0.061 S 
ATOM     26  O   UNL     1       2.250 -14.285   9.374  0.00  0.00    -0.153 OA
ATOM     27  O   UNL     1       0.184 -14.331   7.983  0.00  0.00    -0.153 OA
BRANCH  25  28
ATOM     28  C   UNL     1       2.375 -15.207   6.989  0.00  0.00    +0.133 A 
ATOM     29  C   UNL     1       3.393 -15.998   7.403  0.00  0.00    +0.031 A 
ATOM     30  C   UNL     1       4.043 -16.868   6.528  0.00  0.00    +0.004 A 
ATOM     31  C   UNL     1       3.685 -16.959   5.226  0.00  0.00    +0.031 A 
ATOM     32  C   UNL     1       2.625 -16.159   4.720  0.00  0.00    +0.102 A 
ATOM     33  C   UNL     1       1.941 -15.254   5.636  0.00  0.00    +0.126 A 
ATOM     34  N   UNL     1       0.963 -14.559   5.055  0.00  0.00    -0.189 NA
ATOM     35  S   UNL     1       0.944 -15.038   3.519  0.00  0.00    +0.117 S 
ATOM     36  N   UNL     1       2.139 -16.114   3.479  0.00  0.00    -0.191 NA
ENDBRANCH  25  28
ENDBRANCH  23  25
ENDBRANCH  22  23
ENDBRANCH   4  22
TORSDOF 9
