REMARK  Name = ZINC33141238
REMARK  7 active torsions:
REMARK  status: ('A' for Active; 'I' for Inactive)
REMARK    1  A    between atoms: C_1  and  C_2
REMARK    2  A    between atoms: C_2  and  N_3
REMARK    3  A    between atoms: C_4  and  C_6
REMARK    4  A    between atoms: N_20  and  C_23
REMARK    5  A    between atoms: C_23  and  C_24
REMARK    6  A    between atoms: N_26  and  C_27
REMARK    7  A    between atoms: C_32  and  C_33
REMARK                            x       y       z     vdW  Elec       q    Type
REMARK                         _______ _______ _______ _____ _____    ______ ____
ROOT
ATOM      1  C   UNL     1       6.876   4.710   0.108  0.00  0.00    +0.092 C 
ATOM      2  C   UNL     1       6.789   5.704  -1.054  0.00  0.00    +0.016 C 
ATOM      3  C   UNL     1       5.404   6.358  -1.053  0.00  0.00    +0.020 C 
ATOM      4  C   UNL     1       4.332   5.271  -1.159  0.00  0.00    +0.107 C 
ATOM      5  N   UNL     1       4.457   4.346  -0.025  0.00  0.00    -0.309 N 
ATOM      6  C   UNL     1       5.761   3.671  -0.032  0.00  0.00    +0.119 C 
ATOM      7  C   UNL     1       3.427   3.431  -0.019  0.00  0.00    +0.164 A 
ATOM      8  N   UNL     1       3.499   2.115  -0.018  0.00  0.00    -0.205 NA
ATOM      9  C   UNL     1       2.414   1.340  -0.012  0.00  0.00    +0.176 A 
ATOM     10  C   UNL     1       1.190   2.035  -0.006  0.00  0.00    +0.124 A 
ATOM     11  S   UNL     1       1.716   3.728  -0.010  0.00  0.00    -0.045 S 
ATOM     12  C   UNL     1      -0.026   1.365   0.001  0.00  0.00    +0.270 A 
ATOM     13  O   UNL     1      -1.081   1.979   0.001  0.00  0.00    -0.266 OA
ATOM     14  N   UNL     1      -0.007   0.010   0.003  0.00  0.00    -0.289 N 
ATOM     15  C   UNL     1       1.187  -0.637  -0.003  0.00  0.00    +0.204 A 
ATOM     16  N   UNL     1       2.328  -0.021  -0.010  0.00  0.00    -0.217 NA
ENDROOT
BRANCH   1  18
ATOM     17  N   UNL     1       8.514   3.094   1.014  0.00  0.00    -0.315 N 
ATOM     18  C   UNL     1       8.215   4.019   0.081  0.00  0.00    +0.218 C 
ATOM     19  O   UNL     1       9.023   4.296  -0.780  0.00  0.00    -0.275 OA
ATOM     20  H   UNL     1       7.782   2.843   1.795  0.00  0.00    +0.149 HD
BRANCH  17  22
ATOM     21  C   UNL     1       9.899   1.426   2.146  0.00  0.00    +0.024 C 
ATOM     22  C   UNL     1       9.816   2.422   0.988  0.00  0.00    +0.101 C 
ENDBRANCH  17  22
ENDBRANCH   1  18
BRANCH  14  23
ATOM     23  C   UNL     1      -1.260  -0.749   0.010  0.00  0.00    +0.222 C 
BRANCH  23  24
ATOM     24  C   UNL     1      -1.696  -1.011  -1.409  0.00  0.00    +0.237 C 
ATOM     25  O   UNL     1      -1.027  -0.604  -2.334  0.00  0.00    -0.274 OA
ATOM     26  N   UNL     1      -2.831  -1.698  -1.648  0.00  0.00    -0.284 N 
ATOM     27  H   UNL     1      -3.390  -2.145  -0.813  0.00  0.00    +0.155 HD
BRANCH  26  28
ATOM     28  C   UNL     1      -3.297  -1.843  -2.959  0.00  0.00    +0.039 A 
ATOM     29  C   UNL     1      -2.947  -0.912  -3.929  0.00  0.00    +0.062 A 
ATOM     30  C   UNL     1      -3.406  -1.060  -5.225  0.00  0.00    +0.125 A 
ATOM     31  C   UNL     1      -4.223  -2.130  -5.553  0.00  0.00    +0.039 A 
ATOM     32  C   UNL     1      -4.577  -3.054  -4.588  0.00  0.00    +0.008 A 
ATOM     33  C   UNL     1      -4.117  -2.913  -3.292  0.00  0.00    -0.029 A 
ATOM     34  C   UNL     1      -4.503  -3.922  -2.242  0.00  0.00    +0.045 C 
ATOM     35  F   UNL     1      -3.062  -0.159  -6.171  0.00  0.00    -0.205 F 
ENDBRANCH  26  28
ENDBRANCH  23  24
ENDBRANCH  14  23
TORSDOF 5
