REMARK  Name = ZINC53721698
REMARK  4 active torsions:
REMARK  status: ('A' for Active; 'I' for Inactive)
REMARK    1  A    between atoms: C_1  and  C_2
REMARK    2  A    between atoms: C_2  and  C_4
REMARK    3  A    between atoms: C_2  and  N_19
REMARK    4  A    between atoms: N_6  and  C_7
REMARK                            x       y       z     vdW  Elec       q    Type
REMARK                         _______ _______ _______ _____ _____    ______ ____
ROOT
ATOM      1  C   UNL     1       0.269  -0.899  -1.327  0.00  0.00    +0.237 C 
ATOM      2  O   UNL     1       0.863  -1.956  -1.311  0.00  0.00    -0.273 OA
ATOM      3  N   UNL     1       0.231  -0.164  -2.456  0.00  0.00    -0.283 N 
ATOM      4  H   UNL     1      -0.310   0.640  -2.493  0.00  0.00    +0.155 HD
ENDROOT
BRANCH   3   5
ATOM      5  C   UNL     1       0.969  -0.561  -3.572  0.00  0.00    +0.041 A 
ATOM      6  C   UNL     1       2.096  -1.349  -3.430  0.00  0.00    +0.024 A 
ATOM      7  C   UNL     1       2.854  -1.762  -4.525  0.00  0.00    +0.006 A 
ATOM      8  C   UNL     1       2.501  -1.393  -5.788  0.00  0.00    -0.039 A 
ATOM      9  C   UNL     1       1.370  -0.600  -5.950  0.00  0.00    -0.010 A 
ATOM     10  C   UNL     1       0.579  -0.171  -4.870  0.00  0.00    +0.004 A 
ATOM     11  C   UNL     1      -0.545   0.621  -5.152  0.00  0.00    +0.010 A 
ATOM     12  C   UNL     1      -0.822   0.932  -6.452  0.00  0.00    +0.001 A 
ATOM     13  C   UNL     1      -0.025   0.490  -7.511  0.00  0.00    +0.004 A 
ATOM     14  C   UNL     1       1.079  -0.269  -7.270  0.00  0.00    -0.039 A 
ATOM     15  C   UNL     1       2.135  -0.908  -8.139  0.00  0.00    +0.040 C 
ATOM     16  C   UNL     1       3.073  -1.649  -7.162  0.00  0.00    +0.040 C 
ENDBRANCH   3   5
BRANCH   1  18
ATOM     17  C   UNL     1       0.166   0.941   0.333  0.00  0.00    +0.038 C 
ATOM     18  C   UNL     1      -0.426  -0.407  -0.083  0.00  0.00    +0.158 C 
BRANCH  18  19
ATOM     19  N   UNL     1      -0.238  -1.377   0.998  0.00  0.00    -0.289 N 
ATOM     20  C   UNL     1      -1.129  -1.443   2.007  0.00  0.00    +0.298 C 
ATOM     21  O   UNL     1      -2.089  -0.697   2.019  0.00  0.00    -0.253 OA
ATOM     22  N   UNL     1      -0.957  -2.336   3.002  0.00  0.00    -0.313 N 
ATOM     23  H   UNL     1       0.528  -1.972   0.988  0.00  0.00    +0.151 HD
ATOM     24  H   UNL     1      -0.191  -2.931   2.991  0.00  0.00    +0.146 HD
ATOM     25  H   UNL     1      -1.598  -2.383   3.728  0.00  0.00    +0.146 HD
ENDBRANCH  18  19
ENDBRANCH   1  18
TORSDOF 3
