REMARK  Name = ZINC17073635
REMARK  4 active torsions:
REMARK  status: ('A' for Active; 'I' for Inactive)
REMARK    1  A    between atoms: C_1  and  C_2
REMARK    2  A    between atoms: C_5  and  C_7
REMARK    3  A    between atoms: C_23  and  C_25
REMARK    4  A    between atoms: C_23  and  C_26
REMARK                            x       y       z     vdW  Elec       q    Type
REMARK                         _______ _______ _______ _____ _____    ______ ____
ROOT
ATOM      1  C   UNL     1       2.368   3.857  -0.007  0.00  0.00    +0.099 C 
ATOM      2  C   UNL     1       1.101   3.054   0.009  0.00  0.00    +0.069 A 
ATOM      3  C   UNL     1       1.149   1.655   0.000  0.00  0.00    +0.259 A 
ATOM      4  O   UNL     1       2.221   1.070  -0.015  0.00  0.00    -0.267 OA
ATOM      5  N   UNL     1      -0.011   0.966   0.007  0.00  0.00    -0.295 N 
ATOM      6  H   UNL     1       0.002  -0.004   0.002  0.00  0.00    +0.172 HD
ATOM      7  C   UNL     1      -1.200   1.629   0.017  0.00  0.00    +0.195 A 
ATOM      8  N   UNL     1      -1.251   2.944   0.032  0.00  0.00    -0.201 NA
ATOM      9  C   UNL     1      -0.133   3.679   0.028  0.00  0.00    +0.136 A 
ATOM     10  N   UNL     1      -0.201   5.058   0.046  0.00  0.00    -0.302 N 
ATOM     11  C   UNL     1       0.879   5.804   0.433  0.00  0.00    +0.017 C 
ATOM     12  C   UNL     1       2.122   5.279   0.428  0.00  0.00    +0.025 C 
ATOM     13  C   UNL     1       3.233   6.045   0.826  0.00  0.00    +0.162 C 
ATOM     14  O   UNL     1       4.336   5.536   0.831  0.00  0.00    -0.292 OA
ATOM     15  C   UNL     1       3.082   7.482   1.244  0.00  0.00    +0.086 C 
ATOM     16  C   UNL     1       1.865   8.082   0.533  0.00  0.00    -0.023 C 
ATOM     17  C   UNL     1       0.639   7.229   0.870  0.00  0.00    +0.058 C 
ATOM     18  C   UNL     1       2.096   8.076  -0.979  0.00  0.00    +0.011 C 
ATOM     19  C   UNL     1       1.641   9.517   1.015  0.00  0.00    +0.011 C 
ATOM     20  N   UNL     1      -2.367   0.912   0.015  0.00  0.00    -0.329 N 
ATOM     21  H   UNL     1      -1.022   5.502  -0.218  0.00  0.00    +0.153 HD
ATOM     22  H   UNL     1      -2.340  -0.057   0.008  0.00  0.00    +0.145 HD
ATOM     23  H   UNL     1      -3.219   1.374   0.022  0.00  0.00    +0.145 HD
ENDROOT
BRANCH   1  28
ATOM     24  C   UNL     1       3.633   4.293  -5.512  0.00  0.00    +0.051 C 
ATOM     25  C   UNL     1       3.535   4.068  -4.025  0.00  0.00    -0.013 A 
ATOM     26  C   UNL     1       4.442   3.514  -3.184  0.00  0.00    +0.011 A 
ATOM     27  C   UNL     1       4.136   3.412  -1.840  0.00  0.00    +0.012 A 
ATOM     28  C   UNL     1       2.933   3.860  -1.404  0.00  0.00    +0.002 A 
ATOM     29  S   UNL     1       2.194   4.460  -2.914  0.00  0.00    -0.097 S 
ENDBRANCH   1  28
TORSDOF 1
