REMARK  Name = ZINC38655095
REMARK  6 active torsions:
REMARK  status: ('A' for Active; 'I' for Inactive)
REMARK    1  A    between atoms: C_4  and  C_7
REMARK    2  A    between atoms: C_7  and  O_9
REMARK    3  A    between atoms: O_9  and  C_10
REMARK    4  A    between atoms: C_17  and  N_31
REMARK    5  A    between atoms: C_18  and  C_29
REMARK    6  A    between atoms: C_19  and  C_21
REMARK                            x       y       z     vdW  Elec       q    Type
REMARK                         _______ _______ _______ _____ _____    ______ ____
ROOT
ATOM      1  C   UNL     1       4.878  -2.735  -0.094  0.00  0.00    +0.135 A 
ATOM      2  C   UNL     1       6.096  -2.071  -0.060  0.00  0.00    +0.047 A 
ATOM      3  C   UNL     1       7.275  -2.788  -0.110  0.00  0.00    +0.012 A 
ATOM      4  C   UNL     1       7.248  -4.169  -0.194  0.00  0.00    +0.008 A 
ATOM      5  C   UNL     1       6.034  -4.838  -0.229  0.00  0.00    +0.138 A 
ATOM      6  C   UNL     1       4.847  -4.118  -0.173  0.00  0.00    +0.093 A 
ATOM      7  O   UNL     1       5.987  -6.190  -0.312  0.00  0.00    -0.441 OA
ATOM      8  C   UNL     1       7.065  -6.920   0.021  0.00  0.00    +0.199 C 
ATOM      9  C   UNL     1       8.307  -6.383   0.070  0.00  0.00    +0.098 C 
ATOM     10  C   UNL     1       8.544  -4.933  -0.248  0.00  0.00    +0.099 C 
ENDROOT
BRANCH  10  11
ATOM     11  C   UNL     1       9.136  -4.815  -1.629  0.00  0.00    -0.016 A 
ATOM     12  C   UNL     1       8.427  -5.269  -2.726  0.00  0.00    +0.007 A 
ATOM     13  C   UNL     1       8.969  -5.162  -3.993  0.00  0.00    +0.020 A 
ATOM     14  C   UNL     1      10.221  -4.599  -4.164  0.00  0.00    +0.042 A 
ATOM     15  C   UNL     1      10.931  -4.144  -3.068  0.00  0.00    +0.040 A 
ATOM     16  C   UNL     1      10.386  -4.247  -1.800  0.00  0.00    +0.046 A 
ATOM     17 CL   UNL     1      11.273  -3.671  -0.424  0.00  0.00    -0.083 Cl
ATOM     18 CL   UNL     1      10.902  -4.464  -5.756  0.00  0.00    -0.083 Cl
ENDBRANCH  10  11
BRANCH   8  19
ATOM     19  N   UNL     1       6.902  -8.250   0.320  0.00  0.00    -0.328 N 
ATOM     20  H   UNL     1       6.019  -8.649   0.289  0.00  0.00    +0.145 HD
ATOM     21  H   UNL     1       7.671  -8.790   0.562  0.00  0.00    +0.145 HD
ENDBRANCH   8  19
BRANCH   9  22
ATOM     22  C   UNL     1       9.416  -7.212   0.432  0.00  0.00    +0.101 C 
ATOM     23  N   UNL     1      10.297  -7.870   0.720  0.00  0.00    -0.191 NA
ENDBRANCH   9  22
BRANCH   1  24
ATOM     24  O   UNL     1       3.716  -2.031  -0.045  0.00  0.00    -0.422 OA
BRANCH  24  25
ATOM     25  C   UNL     1       3.307  -1.407  -1.167  0.00  0.00    +0.344 C 
ATOM     26  O   UNL     1       4.014  -1.409  -2.155  0.00  0.00    -0.245 OA
BRANCH  25  30
ATOM     27  C   UNL     1      -0.452   0.566  -1.248  0.00  0.00    +0.000 A 
ATOM     28  C   UNL     1       0.350   0.566  -2.376  0.00  0.00    +0.001 A 
ATOM     29  C   UNL     1       1.573  -0.073  -2.356  0.00  0.00    +0.015 A 
ATOM     30  C   UNL     1       2.000  -0.720  -1.195  0.00  0.00    +0.059 A 
ATOM     31  C   UNL     1       1.185  -0.716  -0.061  0.00  0.00    +0.015 A 
ATOM     32  C   UNL     1      -0.035  -0.073  -0.094  0.00  0.00    +0.001 A 
ENDBRANCH  25  30
ENDBRANCH  24  25
ENDBRANCH   1  24
TORSDOF 6
