REMARK  Name = ZINC09963442
REMARK  10 active torsions:
REMARK  status: ('A' for Active; 'I' for Inactive)
REMARK    1  A    between atoms: C_1  and  C_2
REMARK    2  A    between atoms: C_2  and  C_3
REMARK    3  A    between atoms: C_3  and  C_5
REMARK    4  A    between atoms: C_3  and  N_6
REMARK    5  A    between atoms: C_7  and  C_9
REMARK    6  A    between atoms: C_9  and  N_10
REMARK    7  A    between atoms: C_13  and  S_21
REMARK    8  A    between atoms: S_21  and  N_24
REMARK    9  A    between atoms: C_26  and  C_33
REMARK   10  A    between atoms: C_29  and  C_32
REMARK                            x       y       z     vdW  Elec       q    Type
REMARK                         _______ _______ _______ _____ _____    ______ ____
ROOT
ATOM      1  N   UNL     1      -4.164   3.066  -5.883  0.00  0.00    -0.256 N 
ATOM      2  C   UNL     1      -3.356   3.961  -5.167  0.00  0.00    +0.081 A 
ATOM      3  C   UNL     1      -3.117   3.775  -3.816  0.00  0.00    +0.055 A 
ATOM      4  C   UNL     1      -2.319   4.670  -3.128  0.00  0.00    +0.107 A 
ATOM      5  C   UNL     1      -1.764   5.753  -3.785  0.00  0.00    +0.032 A 
ATOM      6  C   UNL     1      -1.994   5.942  -5.136  0.00  0.00    +0.049 A 
ATOM      7  C   UNL     1      -2.792   5.050  -5.830  0.00  0.00    +0.143 A 
ATOM      8  O   UNL     1      -3.034   5.223  -7.157  0.00  0.00    -0.481 OA
ATOM      9  C   UNL     1      -3.197   4.038  -7.941  0.00  0.00    +0.325 C 
ATOM     10  C   UNL     1      -4.127   3.086  -7.233  0.00  0.00    +0.258 C 
ATOM     11  O   UNL     1      -4.839   2.341  -7.873  0.00  0.00    -0.271 OA
ENDROOT
BRANCH   4  12
ATOM     12  S   UNL     1      -2.014   4.436  -1.409  0.00  0.00    +0.061 S 
ATOM     13  O   UNL     1      -3.092   3.659  -0.908  0.00  0.00    -0.153 OA
ATOM     14  O   UNL     1      -1.682   5.711  -0.878  0.00  0.00    -0.153 OA
BRANCH  12  15
ATOM     15  N   UNL     1      -0.654   3.499  -1.277  0.00  0.00    -0.176 NA
ATOM     16  C   UNL     1      -0.756   2.034  -1.232  0.00  0.00    +0.112 C 
ATOM     17  C   UNL     1      -0.019   1.526   0.010  0.00  0.00    +0.002 C 
ATOM     18  C   UNL     1       1.417   2.056  -0.000  0.00  0.00    +0.009 C 
ATOM     19  C   UNL     1       1.398   3.586   0.041  0.00  0.00    +0.002 C 
ATOM     20  C   UNL     1       0.676   4.117  -1.202  0.00  0.00    +0.112 C 
ATOM     21  C   UNL     1       0.661   4.053   1.298  0.00  0.00    +0.009 C 
ATOM     22  C   UNL     1       0.002  -0.004   0.002  0.00  0.00    +0.009 C 
ENDBRANCH  12  15
ENDBRANCH   4  12
BRANCH   1  23
ATOM     23  C   UNL     1      -5.033   2.122  -5.177  0.00  0.00    +0.209 C 
BRANCH  23  25
ATOM     24  N   UNL     1      -7.350   2.067  -4.312  0.00  0.00    -0.311 N 
ATOM     25  C   UNL     1      -6.382   2.755  -4.948  0.00  0.00    +0.231 C 
ATOM     26  O   UNL     1      -6.595   3.884  -5.337  0.00  0.00    -0.274 OA
ATOM     27  H   UNL     1      -7.180   1.164  -4.001  0.00  0.00    +0.149 HD
BRANCH  24  28
ATOM     28  C   UNL     1      -8.661   2.683  -4.090  0.00  0.00    +0.070 C 
ATOM     29  C   UNL     1      -8.620   3.522  -2.811  0.00  0.00    +0.028 C 
BRANCH  28  31
ATOM     30  C   UNL     1      -9.850   0.829  -5.271  0.00  0.00    +0.005 C 
ATOM     31  C   UNL     1      -9.721   1.589  -3.949  0.00  0.00    +0.018 C 
ENDBRANCH  28  31
ENDBRANCH  24  28
ENDBRANCH  23  25
ENDBRANCH   1  23
TORSDOF 6
