REMARK  Name = ZINC36499685
REMARK  12 active torsions:
REMARK  status: ('A' for Active; 'I' for Inactive)
REMARK    1  A    between atoms: C_1  and  C_2
REMARK    2  A    between atoms: C_2  and  C_3
REMARK    3  A    between atoms: C_2  and  C_4
REMARK    4  A    between atoms: C_2  and  N_5
REMARK    5  A    between atoms: C_6  and  C_8
REMARK    6  A    between atoms: C_8  and  C_10
REMARK    7  A    between atoms: C_8  and  N_17
REMARK    8  A    between atoms: C_15  and  O_16
REMARK    9  A    between atoms: N_17  and  C_18
REMARK   10  A    between atoms: C_18  and  C_19
REMARK   11  A    between atoms: C_24  and  C_26
REMARK   12  A    between atoms: C_28  and  N_33
REMARK                            x       y       z     vdW  Elec       q    Type
REMARK                         _______ _______ _______ _____ _____    ______ ____
ROOT
ATOM      1  N   UNL     1       3.747  -0.073  -2.501  0.00  0.00    -0.274 N 
ATOM      2  C   UNL     1       4.572  -0.581  -1.565  0.00  0.00    +0.252 C 
ATOM      3  O   UNL     1       5.596   0.008  -1.273  0.00  0.00    -0.270 OA
ENDROOT
BRANCH   2   4
ATOM      4  C   UNL     1       4.235  -1.851  -0.894  0.00  0.00    +0.086 A 
ATOM      5  C   UNL     1       3.112  -2.580  -1.294  0.00  0.00    +0.049 A 
ATOM      6  C   UNL     1       2.802  -3.765  -0.663  0.00  0.00    +0.127 A 
ATOM      7  C   UNL     1       3.599  -4.238   0.366  0.00  0.00    +0.036 A 
ATOM      8  C   UNL     1       4.711  -3.527   0.772  0.00  0.00    +0.054 A 
ATOM      9  C   UNL     1       5.042  -2.336   0.144  0.00  0.00    +0.191 A 
ATOM     10  O   UNL     1       6.138  -1.639   0.537  0.00  0.00    -0.287 OA
BRANCH   6  11
ATOM     11  N   UNL     1       1.612  -4.536  -1.088  0.00  0.00    +0.056 N 
ATOM     12  O   UNL     1       0.915  -4.126  -1.986  0.00  0.00    -0.126 OA
ATOM     13  O   UNL     1       1.338  -5.576  -0.536  0.00  0.00    -0.126 OA
ENDBRANCH   6  11
ENDBRANCH   2   4
BRANCH   1  14
ATOM     14  C   UNL     1       2.522  -0.791  -2.865  0.00  0.00    +0.196 C 
BRANCH  14  15
ATOM     15  C   UNL     1       2.882  -2.124  -3.467  0.00  0.00    +0.023 A 
ATOM     16  C   UNL     1       4.090  -2.719  -3.158  0.00  0.00    +0.009 A 
ATOM     17  C   UNL     1       4.421  -3.943  -3.711  0.00  0.00    +0.001 A 
ATOM     18  C   UNL     1       3.544  -4.574  -4.573  0.00  0.00    +0.004 A 
ATOM     19  C   UNL     1       2.335  -3.984  -4.885  0.00  0.00    +0.046 A 
ATOM     20  C   UNL     1       1.998  -2.759  -4.327  0.00  0.00    +0.122 A 
BRANCH  20  21
ATOM     21  O   UNL     1       0.806  -2.179  -4.628  0.00  0.00    -0.506 OA
ATOM     22  H   UNL     1       0.835  -1.600  -5.402  0.00  0.00    +0.292 HD
ENDBRANCH  20  21
ENDBRANCH  14  15
BRANCH  14  24
ATOM     23  N   UNL     1       0.472  -1.593  -1.737  0.00  0.00    -0.309 N 
ATOM     24  C   UNL     1       1.681  -1.006  -1.633  0.00  0.00    +0.239 C 
ATOM     25  O   UNL     1       2.092  -0.651  -0.549  0.00  0.00    -0.273 OA
ATOM     26  H   UNL     1       0.184  -1.962  -2.586  0.00  0.00    +0.149 HD
BRANCH  23  28
ATOM     27  C   UNL     1      -0.814  -0.261  -0.139  0.00  0.00    +0.031 C 
ATOM     28  C   UNL     1      -0.406  -1.672  -0.567  0.00  0.00    +0.026 C 
ATOM     29  C   UNL     1       0.336  -2.359   0.582  0.00  0.00    +0.031 C 
ATOM     30  C   UNL     1      -1.656  -2.479  -0.922  0.00  0.00    +0.031 C 
ENDBRANCH  23  28
ENDBRANCH  14  24
ENDBRANCH   1  14
BRANCH   1  31
ATOM     31  C   UNL     1       4.073   1.197  -3.155  0.00  0.00    +0.183 C 
BRANCH  31  32
ATOM     32  C   UNL     1       4.791   0.924  -4.452  0.00  0.00    +0.122 A 
ATOM     33  C   UNL     1       4.221   0.856  -5.668  0.00  0.00    +0.046 A 
ATOM     34  C   UNL     1       5.256   0.583  -6.591  0.00  0.00    +0.041 A 
ATOM     35  C   UNL     1       6.397   0.500  -5.884  0.00  0.00    +0.195 A 
ATOM     36  O   UNL     1       6.111   0.713  -4.590  0.00  0.00    -0.466 OA
ENDBRANCH  31  32
ENDBRANCH   1  31
TORSDOF 9
