REMARK  Name = ZINC58880801
REMARK  9 active torsions:
REMARK  status: ('A' for Active; 'I' for Inactive)
REMARK    1  A    between atoms: C_1  and  C_2
REMARK    2  A    between atoms: C_2  and  C_4
REMARK    3  A    between atoms: C_2  and  O_11
REMARK    4  A    between atoms: N_6  and  C_7
REMARK    5  A    between atoms: C_7  and  C_8
REMARK    6  A    between atoms: C_7  and  C_9
REMARK    7  A    between atoms: C_7  and  C_10
REMARK    8  A    between atoms: O_11  and  C_12
REMARK    9  A    between atoms: C_15  and  C_19
REMARK                            x       y       z     vdW  Elec       q    Type
REMARK                         _______ _______ _______ _____ _____    ______ ____
ROOT
ATOM      1  O   UNL     1       0.671  -0.465  -1.174  0.00  0.00    -0.479 OA
ENDROOT
BRANCH   1   2
ATOM      2  C   UNL     1       2.024  -0.553  -1.118  0.00  0.00    +0.136 A 
ATOM      3  C   UNL     1       2.686  -0.302   0.078  0.00  0.00    +0.047 A 
ATOM      4  C   UNL     1       4.058  -0.390   0.139  0.00  0.00    +0.019 A 
ATOM      5  C   UNL     1       4.787  -0.733  -1.005  0.00  0.00    +0.064 A 
ATOM      6  C   UNL     1       4.117  -0.985  -2.206  0.00  0.00    +0.034 A 
ATOM      7  C   UNL     1       2.743  -0.900  -2.257  0.00  0.00    +0.060 A 
ATOM      8 BR   UNL     1       1.835  -1.247  -3.879  0.00  0.00    -0.046 Br
BRANCH   5   9
ATOM      9  C   UNL     1       6.255  -0.828  -0.944  0.00  0.00    +0.387 C 
ATOM     10  O   UNL     1       6.840  -0.606   0.108  0.00  0.00    -0.241 OA
ATOM     11  O   UNL     1       6.891  -1.128  -1.945  0.00  0.00    -0.241 OA
ENDBRANCH   5   9
ENDBRANCH   1   2
BRANCH   1  13
ATOM     12  C   UNL     1      -0.047   1.273   0.344  0.00  0.00    +0.062 C 
ATOM     13  C   UNL     1      -0.015  -0.229   0.058  0.00  0.00    +0.256 C 
BRANCH  13  14
ATOM     14  C   UNL     1      -1.425  -0.752  -0.045  0.00  0.00    +0.254 C 
ATOM     15  O   UNL     1      -1.833  -1.192  -1.098  0.00  0.00    -0.272 OA
ATOM     16  N   UNL     1      -2.231  -0.730   1.035  0.00  0.00    -0.308 N 
ATOM     17  H   UNL     1      -1.905  -0.378   1.878  0.00  0.00    +0.149 HD
BRANCH  16  18
ATOM     18  C   UNL     1      -3.602  -1.238   0.935  0.00  0.00    +0.026 C 
ATOM     19  C   UNL     1      -3.571  -2.712   0.527  0.00  0.00    +0.031 C 
ATOM     20  C   UNL     1      -4.297  -1.099   2.291  0.00  0.00    +0.031 C 
ATOM     21  C   UNL     1      -4.369  -0.433  -0.116  0.00  0.00    +0.031 C 
ENDBRANCH  16  18
ENDBRANCH  13  14
ENDBRANCH   1  13
TORSDOF 5
