REMARK  Name = ZINC05332277
REMARK  4 active torsions:
REMARK  status: ('A' for Active; 'I' for Inactive)
REMARK    1  A    between atoms: C_10  and  C_11
REMARK    2  A    between atoms: C_13  and  C_28
REMARK    3  A    between atoms: C_14  and  N_27
REMARK    4  A    between atoms: C_24  and  C_25
REMARK                            x       y       z     vdW  Elec       q    Type
REMARK                         _______ _______ _______ _____ _____    ______ ____
ROOT
ATOM      1  C   UNL     1       3.881  -0.826  -0.032  0.00  0.00    +0.106 C 
ATOM      2  C   UNL     1       4.695  -0.319   1.142  0.00  0.00    +0.078 C 
ATOM      3  C   UNL     1       5.785   0.444   0.901  0.00  0.00    +0.107 C 
ATOM      4  N   UNL     1       6.215   0.800  -0.377  0.00  0.00    -0.249 N 
ATOM      5  C   UNL     1       7.351   1.595  -0.621  0.00  0.00    +0.054 A 
ATOM      6  C   UNL     1       8.202   2.137   0.356  0.00  0.00    +0.025 A 
ATOM      7  C   UNL     1       9.287   2.901  -0.003  0.00  0.00    +0.002 A 
ATOM      8  C   UNL     1       9.574   3.161  -1.332  0.00  0.00    +0.001 A 
ATOM      9  C   UNL     1       8.751   2.638  -2.314  0.00  0.00    +0.017 A 
ATOM     10  C   UNL     1       7.666   1.873  -1.952  0.00  0.00    +0.036 A 
ATOM     11  S   UNL     1       6.391   1.037  -2.861  0.00  0.00    -0.071 S 
ATOM     12  C   UNL     1       5.507   0.362  -1.472  0.00  0.00    +0.093 C 
ATOM     13  C   UNL     1       4.383  -0.416  -1.405  0.00  0.00    +0.070 C 
ENDROOT
BRANCH   1  23
ATOM     14  C   UNL     1      -0.761  -2.978   0.099  0.00  0.00    +0.001 A 
ATOM     15  C   UNL     1       0.539  -3.459  -0.046  0.00  0.00    +0.001 A 
ATOM     16  C   UNL     1       1.605  -2.612  -0.041  0.00  0.00    +0.009 A 
ATOM     17  C   UNL     1       1.394  -1.231   0.112  0.00  0.00    -0.014 A 
ATOM     18  C   UNL     1       0.072  -0.741   0.259  0.00  0.00    -0.018 A 
ATOM     19  C   UNL     1      -1.003  -1.647   0.249  0.00  0.00    +0.008 A 
ATOM     20  C   UNL     1      -0.139   0.639   0.411  0.00  0.00    +0.008 A 
ATOM     21  C   UNL     1       0.926   1.487   0.415  0.00  0.00    +0.001 A 
ATOM     22  C   UNL     1       2.226   1.006   0.272  0.00  0.00    +0.005 A 
ATOM     23  C   UNL     1       2.468  -0.325   0.122  0.00  0.00    -0.026 A 
ENDBRANCH   1  23
BRANCH   3  24
ATOM     24  N   UNL     1       6.511   0.895   1.978  0.00  0.00    -0.345 N 
ATOM     25  H   UNL     1       6.850   0.265   2.633  0.00  0.00    +0.144 HD
ATOM     26  H   UNL     1       6.685   1.843   2.082  0.00  0.00    +0.144 HD
ENDBRANCH   3  24
BRANCH  13  27
ATOM     27  C   UNL     1       3.701  -0.832  -2.593  0.00  0.00    +0.098 C 
ATOM     28  N   UNL     1       3.160  -1.162  -3.536  0.00  0.00    -0.191 NA
ENDBRANCH  13  27
BRANCH   2  29
ATOM     29  C   UNL     1       4.315  -0.644   2.484  0.00  0.00    +0.099 C 
ATOM     30  N   UNL     1       4.014  -0.901   3.549  0.00  0.00    -0.191 NA
ENDBRANCH   2  29
TORSDOF 4
