REMARK  Name = ZINC39226375
REMARK  9 active torsions:
REMARK  status: ('A' for Active; 'I' for Inactive)
REMARK    1  A    between atoms: C_1  and  N_2
REMARK    2  A    between atoms: C_9  and  O_38
REMARK    3  A    between atoms: C_13  and  C_18
REMARK    4  A    between atoms: C_22  and  C_24
REMARK    5  A    between atoms: N_26  and  C_27
REMARK    6  A    between atoms: N_26  and  C_31
REMARK    7  A    between atoms: C_27  and  C_28
REMARK    8  A    between atoms: C_28  and  C_29
REMARK    9  A    between atoms: C_31  and  C_32
REMARK                            x       y       z     vdW  Elec       q    Type
REMARK                         _______ _______ _______ _____ _____    ______ ____
ROOT
ATOM      1  C   UNL     1       6.377  -5.303   3.261  0.00  0.00    -0.017 A 
ATOM      2  C   UNL     1       6.261  -6.657   3.572  0.00  0.00    +0.008 A 
ATOM      3  C   UNL     1       7.290  -7.312   4.220  0.00  0.00    +0.001 A 
ATOM      4  C   UNL     1       8.440  -6.631   4.564  0.00  0.00    +0.013 A 
ATOM      5  C   UNL     1       8.569  -5.275   4.258  0.00  0.00    +0.037 A 
ATOM      6  C   UNL     1       7.536  -4.611   3.599  0.00  0.00    +0.021 A 
ENDROOT
BRANCH   1  18
ATOM      7  C   UNL     1      -1.054   0.387   1.745  0.00  0.00    -0.096 C 
ATOM      8  N   UNL     1      -0.801  -1.003   1.343  0.00  0.00    +0.378 N 
ATOM      9  C   UNL     1      -0.155  -1.019   0.025  0.00  0.00    -0.075 C 
ATOM     10  C   UNL     1       0.035  -2.467  -0.435  0.00  0.00    +0.029 C 
ATOM     11  C   UNL     1       0.912  -3.208   0.577  0.00  0.00    +0.110 C 
ATOM     12  C   UNL     1       0.272  -3.117   1.963  0.00  0.00    +0.029 C 
ATOM     13  C   UNL     1       0.071  -1.646   2.333  0.00  0.00    -0.075 C 
ATOM     14  C   UNL     1       1.036  -4.679   0.164  0.00  0.00    +0.084 C 
ATOM     15  C   UNL     1       1.828  -5.418   1.246  0.00  0.00    +0.152 C 
ATOM     16  C   UNL     1       3.074  -4.639   1.583  0.00  0.00    +0.023 A 
ATOM     17  C   UNL     1       4.107  -5.290   2.233  0.00  0.00    +0.018 A 
ATOM     18  C   UNL     1       5.270  -4.602   2.564  0.00  0.00    -0.017 A 
ATOM     19  C   UNL     1       5.391  -3.252   2.240  0.00  0.00    +0.012 A 
ATOM     20  C   UNL     1       4.361  -2.609   1.591  0.00  0.00    +0.046 A 
ATOM     21  C   UNL     1       3.199  -3.299   1.257  0.00  0.00    +0.127 A 
ATOM     22  O   UNL     1       2.214  -2.628   0.604  0.00  0.00    -0.485 OA
ATOM     23  H   UNL     1      -1.676  -1.502   1.292  0.00  0.00    -0.082 HD
BRANCH  15  24
ATOM     24  O   UNL     1       2.193  -6.713   0.766  0.00  0.00    -0.387 OA
ATOM     25  H   UNL     1       2.699  -7.239   1.400  0.00  0.00    +0.210 HD
ENDBRANCH  15  24
ENDBRANCH   1  18
BRANCH   5  26
ATOM     26  C   UNL     1       9.802  -4.546   4.628  0.00  0.00    +0.247 C 
ATOM     27  O   UNL     1      10.345  -4.770   5.691  0.00  0.00    -0.270 OA
ATOM     28  N   UNL     1      10.322  -3.632   3.785  0.00  0.00    -0.292 N 
BRANCH  28  29
ATOM     29  C   UNL     1       9.596  -3.261   2.567  0.00  0.00    +0.123 C 
BRANCH  29  30
ATOM     30  C   UNL     1       8.798  -1.980   2.820  0.00  0.00    +0.137 C 
BRANCH  30  31
ATOM     31  C   UNL     1       7.939  -1.700   1.658  0.00  0.00    +0.064 C 
ATOM     32  N   UNL     1       7.277  -1.484   0.761  0.00  0.00    -0.197 NA
ENDBRANCH  30  31
ENDBRANCH  29  30
ENDBRANCH  28  29
BRANCH  28  33
ATOM     33  C   UNL     1      11.614  -3.010   4.085  0.00  0.00    +0.143 C 
BRANCH  33  34
ATOM     34  C   UNL     1      12.721  -3.832   3.477  0.00  0.00    -0.030 A 
ATOM     35  C   UNL     1      13.300  -4.857   4.202  0.00  0.00    +0.005 A 
ATOM     36  C   UNL     1      14.316  -5.611   3.644  0.00  0.00    +0.000 A 
ATOM     37  C   UNL     1      14.751  -5.341   2.360  0.00  0.00    +0.000 A 
ATOM     38  C   UNL     1      14.171  -4.317   1.634  0.00  0.00    +0.000 A 
ATOM     39  C   UNL     1      13.153  -3.566   2.191  0.00  0.00    +0.005 A 
ENDBRANCH  33  34
ENDBRANCH  28  33
ENDBRANCH   5  26
TORSDOF 8
