REMARK  Name = ZINC11782614
REMARK  9 active torsions:
REMARK  status: ('A' for Active; 'I' for Inactive)
REMARK    1  A    between atoms: C_1  and  C_2
REMARK    2  A    between atoms: C_2  and  C_4
REMARK    3  A    between atoms: C_2  and  N_25
REMARK    4  A    between atoms: C_13  and  C_14
REMARK    5  A    between atoms: C_13  and  N_64
REMARK    6  A    between atoms: C_19  and  C_20
REMARK    7  A    between atoms: C_26  and  C_28
REMARK    8  A    between atoms: C_28  and  O_29
REMARK    9  A    between atoms: O_29  and  C_30
REMARK                            x       y       z     vdW  Elec       q    Type
REMARK                         _______ _______ _______ _____ _____    ______ ____
ROOT
ATOM      1  C   UNL     1       1.389   2.190   4.044  0.00  0.00    +0.154 A 
ATOM      2  N   UNL     1       1.847   3.387   3.786  0.00  0.00    -0.132 NA
ATOM      3  N   UNL     1       1.753   3.626   2.524  0.00  0.00    -0.134 NA
ATOM      4  C   UNL     1       1.239   2.593   1.923  0.00  0.00    +0.132 A 
ATOM      5  N   UNL     1       0.979   1.660   2.872  0.00  0.00    -0.315 N 
ATOM      6  C   UNL     1       0.366   0.351   2.647  0.00  0.00    +0.106 C 
ATOM      7  C   UNL     1       0.681  -0.114   1.222  0.00  0.00    -0.056 C 
ATOM      8  C   UNL     1      -0.420   1.831   0.257  0.00  0.00    -0.071 C 
ATOM      9  C   UNL     1       0.983   2.416   0.449  0.00  0.00    +0.058 C 
ATOM     10  N   UNL     1      -0.387   0.352   0.308  0.00  0.00    +0.384 N 
ATOM     11  H   UNL     1      -1.291   0.014   0.657  0.00  0.00    -0.081 HD
ENDROOT
BRANCH   1  13
ATOM     12  C   UNL     1       2.733   1.076   5.805  0.00  0.00    +0.036 C 
ATOM     13  C   UNL     1       1.329   1.527   5.396  0.00  0.00    +0.138 C 
BRANCH  13  14
ATOM     14  N   UNL     1       0.815   2.478   6.384  0.00  0.00    -0.303 N 
ATOM     15  C   UNL     1       0.205   2.028   7.499  0.00  0.00    +0.251 C 
ATOM     16  O   UNL     1       0.082   0.835   7.683  0.00  0.00    -0.272 OA
ATOM     17  H   UNL     1       0.913   3.431   6.237  0.00  0.00    +0.149 HD
BRANCH  15  18
ATOM     18  C   UNL     1      -0.325   3.006   8.516  0.00  0.00    +0.324 C 
BRANCH  18  19
ATOM     19  O   UNL     1      -0.922   2.290   9.599  0.00  0.00    -0.483 OA
BRANCH  19  20
ATOM     20  C   UNL     1      -1.452   3.030  10.608  0.00  0.00    +0.121 A 
ATOM     21  C   UNL     1      -1.393   4.415  10.561  0.00  0.00    +0.045 A 
ATOM     22  C   UNL     1      -1.938   5.164  11.585  0.00  0.00    +0.004 A 
ATOM     23  C   UNL     1      -2.532   4.534  12.664  0.00  0.00    +0.000 A 
ATOM     24  C   UNL     1      -2.587   3.154  12.716  0.00  0.00    +0.004 A 
ATOM     25  C   UNL     1      -2.049   2.400  11.691  0.00  0.00    +0.045 A 
ENDBRANCH  19  20
ENDBRANCH  18  19
ENDBRANCH  15  18
ENDBRANCH  13  14
ENDBRANCH   1  13
BRANCH  10  26
ATOM     26  C   UNL     1      -0.164  -0.190  -1.044  0.00  0.00    -0.042 C 
BRANCH  26  27
ATOM     27  C   UNL     1      -1.465  -0.128  -1.802  0.00  0.00    -0.053 A 
ATOM     28  C   UNL     1      -1.635   0.801  -2.809  0.00  0.00    +0.002 A 
ATOM     29  C   UNL     1      -2.827   0.856  -3.509  0.00  0.00    +0.000 A 
ATOM     30  C   UNL     1      -3.860  -0.011  -3.199  0.00  0.00    +0.001 A 
ATOM     31  C   UNL     1      -3.705  -0.941  -2.191  0.00  0.00    +0.012 A 
ATOM     32  C   UNL     1      -2.503  -1.006  -1.484  0.00  0.00    +0.019 A 
BRANCH  32  33
ATOM     33  C   UNL     1      -2.329  -2.000  -0.405  0.00  0.00    +0.135 A 
ATOM     34  C   UNL     1      -3.130  -2.141   0.685  0.00  0.00    +0.050 A 
ATOM     35  C   UNL     1      -2.597  -3.203   1.445  0.00  0.00    +0.042 A 
ATOM     36  C   UNL     1      -1.510  -3.651   0.788  0.00  0.00    +0.196 A 
ATOM     37  O   UNL     1      -1.354  -2.926  -0.332  0.00  0.00    -0.463 OA
ENDBRANCH  32  33
ENDBRANCH  26  27
ENDBRANCH  10  26
TORSDOF 8
