REMARK  Name = ZINC03130038
REMARK  9 active torsions:
REMARK  status: ('A' for Active; 'I' for Inactive)
REMARK    1  A    between atoms: C_1  and  C_2
REMARK    2  A    between atoms: C_2  and  C_24
REMARK    3  A    between atoms: C_9  and  C_11
REMARK    4  A    between atoms: C_9  and  N_19
REMARK    5  A    between atoms: C_16  and  O_17
REMARK    6  A    between atoms: O_17  and  C_18
REMARK    7  A    between atoms: N_19  and  N_20
REMARK    8  A    between atoms: N_20  and  C_21
REMARK    9  A    between atoms: C_21  and  N_23
REMARK                            x       y       z     vdW  Elec       q    Type
REMARK                         _______ _______ _______ _____ _____    ______ ____
ROOT
ATOM      1  C   UNL     1       0.075   5.094   1.750  0.00  0.00    +0.046 C 
ATOM      2  C   UNL     1      -0.068   4.766   0.263  0.00  0.00    +0.092 C 
ATOM      3  C   UNL     1      -0.090   3.269   0.060  0.00  0.00    -0.009 A 
ATOM      4  C   UNL     1       0.905   2.313   0.038  0.00  0.00    +0.007 A 
ATOM      5  C   UNL     1       0.581   0.985  -0.174  0.00  0.00    +0.000 A 
ATOM      6  C   UNL     1      -0.738   0.616  -0.365  0.00  0.00    +0.000 A 
ATOM      7  C   UNL     1      -1.734   1.575  -0.348  0.00  0.00    +0.008 A 
ATOM      8  C   UNL     1      -1.412   2.899  -0.131  0.00  0.00    +0.011 A 
ATOM      9  C   UNL     1      -2.245   4.157  -0.051  0.00  0.00    +0.192 C 
ATOM     10  O   UNL     1      -1.329   5.251  -0.233  0.00  0.00    -0.339 OA
ATOM     11  C   UNL     1       1.085   5.388  -0.528  0.00  0.00    +0.046 C 
ENDROOT
BRANCH   9  12
ATOM     12  C   UNL     1      -2.909   4.254   1.298  0.00  0.00    +0.047 A 
ATOM     13  C   UNL     1      -2.689   5.358   2.099  0.00  0.00    +0.012 A 
ATOM     14  C   UNL     1      -3.298   5.449   3.337  0.00  0.00    +0.001 A 
ATOM     15  C   UNL     1      -4.129   4.435   3.776  0.00  0.00    +0.004 A 
ATOM     16  C   UNL     1      -4.353   3.329   2.980  0.00  0.00    +0.046 A 
ATOM     17  C   UNL     1      -3.747   3.238   1.735  0.00  0.00    +0.128 A 
BRANCH  17  18
ATOM     18  O   UNL     1      -3.970   2.154   0.947  0.00  0.00    -0.495 OA
ATOM     19  C   UNL     1      -4.844   1.147   1.461  0.00  0.00    +0.277 C 
ENDBRANCH  17  18
ENDBRANCH   9  12
BRANCH   9  20
ATOM     20  N   UNL     1      -3.258   4.161  -1.115  0.00  0.00    -0.203 NA
ATOM     21  H   UNL     1      -2.840   3.971  -2.013  0.00  0.00    +0.148 HD
BRANCH  20  22
ATOM     22  N   UNL     1      -3.944   5.342  -1.133  0.00  0.00    -0.260 N 
ATOM     23  H   UNL     1      -3.774   6.012  -0.453  0.00  0.00    +0.168 HD
BRANCH  22  24
ATOM     24  C   UNL     1      -4.856   5.577  -2.098  0.00  0.00    +0.142 C 
ATOM     25  S   UNL     1      -5.715   7.058  -2.121  0.00  0.00    -0.018 S 
BRANCH  24  26
ATOM     26  N   UNL     1      -5.091   4.646  -3.044  0.00  0.00    -0.340 N 
ATOM     27  H   UNL     1      -4.604   3.807  -3.030  0.00  0.00    +0.144 HD
ATOM     28  H   UNL     1      -5.747   4.815  -3.738  0.00  0.00    +0.144 HD
ENDBRANCH  24  26
ENDBRANCH  22  24
ENDBRANCH  20  22
ENDBRANCH   9  20
TORSDOF 6
