REMARK  Name = ZINC12965416
REMARK  4 active torsions:
REMARK  status: ('A' for Active; 'I' for Inactive)
REMARK    1  A    between atoms: C_6  and  N_7
REMARK    2  A    between atoms: C_11  and  S_13
REMARK    3  A    between atoms: S_13  and  C_14
REMARK    4  A    between atoms: N_24  and  O_25
REMARK                            x       y       z     vdW  Elec       q    Type
REMARK                         _______ _______ _______ _____ _____    ______ ____
ROOT
ATOM      1  C   UNL     1      -0.017   1.382   0.010  0.00  0.00    +0.035 A 
ATOM      2  C   UNL     1       1.160   2.097   0.002  0.00  0.00    +0.032 A 
ATOM      3  C   UNL     1       2.383   1.421  -0.013  0.00  0.00    +0.090 A 
ATOM      4  C   UNL     1       2.396   0.017  -0.021  0.00  0.00    +0.069 A 
ATOM      5  C   UNL     1       1.201  -0.687  -0.013  0.00  0.00    +0.060 A 
ATOM      6  C   UNL     1       0.002  -0.004   0.002  0.00  0.00    +0.128 A 
ATOM      7  N   UNL     1       3.730  -0.356  -0.035  0.00  0.00    -0.333 N 
ATOM      8  C   UNL     1       4.471   0.791  -0.036  0.00  0.00    +0.168 A 
ATOM      9  N   UNL     1       3.677   1.834  -0.023  0.00  0.00    -0.222 NA
ATOM     10  H   UNL     1       4.074  -1.264  -0.043  0.00  0.00    +0.168 HD
ENDROOT
BRANCH   6  11
ATOM     11  N   UNL     1      -1.272  -0.757   0.010  0.00  0.00    +0.056 N 
ATOM     12  O   UNL     1      -2.325  -0.163   0.023  0.00  0.00    -0.126 OA
ATOM     13  O   UNL     1      -1.261  -1.966   0.004  0.00  0.00    -0.126 OA
ENDBRANCH   6  11
BRANCH   8  14
ATOM     14  S   UNL     1       6.232   0.860  -0.052  0.00  0.00    -0.078 S 
BRANCH  14  15
ATOM     15  C   UNL     1       6.602   2.635  -0.046  0.00  0.00    +0.105 C 
ATOM     16  C   UNL     1       8.143   2.868   0.029  0.00  0.00    +0.009 C 
ATOM     17  C   UNL     1       8.289   4.399   0.290  0.00  0.00    +0.005 C 
ATOM     18  C   UNL     1       7.829   5.061  -1.029  0.00  0.00    +0.010 C 
ATOM     19  C   UNL     1       7.458   3.866  -1.960  0.00  0.00    +0.038 C 
ATOM     20  C   UNL     1       8.514   2.776  -1.494  0.00  0.00    +0.014 C 
ATOM     21  C   UNL     1       6.173   3.270  -1.361  0.00  0.00    +0.074 C 
ATOM     22  N   UNL     1       4.992   3.319  -1.850  0.00  0.00    -0.095 NA
BRANCH  22  23
ATOM     23  O   UNL     1       4.767   3.953  -3.096  0.00  0.00    -0.409 OA
ATOM     24  H   UNL     1       3.843   3.940  -3.383  0.00  0.00    +0.328 HD
ENDBRANCH  22  23
ENDBRANCH  14  15
ENDBRANCH   8  14
TORSDOF 4
