REMARK  Name = ZINC08982831
REMARK  8 active torsions:
REMARK  status: ('A' for Active; 'I' for Inactive)
REMARK    1  A    between atoms: C_1  and  C_2
REMARK    2  A    between atoms: C_2  and  C_27
REMARK    3  A    between atoms: N_5  and  N_9
REMARK    4  A    between atoms: C_10  and  C_12
REMARK    5  A    between atoms: C_12  and  N_61
REMARK    6  A    between atoms: C_16  and  C_18
REMARK    7  A    between atoms: C_27  and  C_28
REMARK    8  A    between atoms: C_28  and  C_29
REMARK                            x       y       z     vdW  Elec       q    Type
REMARK                         _______ _______ _______ _____ _____    ______ ____
ROOT
ATOM      1  N   UNL     1       4.489  -5.617   4.328  0.00  0.00    -0.225 N 
ATOM      2  C   UNL     1       4.736  -5.159   3.085  0.00  0.00    +0.213 C 
ATOM      3  O   UNL     1       5.874  -5.119   2.668  0.00  0.00    -0.276 OA
ATOM      4  H   UNL     1       3.579  -5.649   4.662  0.00  0.00    +0.173 HD
ENDROOT
BRANCH   1   9
ATOM      5  C   UNL     1       8.495  -5.447   6.659  0.00  0.00    +0.041 C 
ATOM      6  C   UNL     1       7.160  -6.188   6.751  0.00  0.00    +0.112 C 
ATOM      7  C   UNL     1       6.040  -5.343   6.177  0.00  0.00    +0.263 C 
ATOM      8  O   UNL     1       5.665  -4.260   6.571  0.00  0.00    -0.271 OA
ATOM      9  N   UNL     1       5.548  -6.047   5.139  0.00  0.00    -0.137 N 
ATOM     10  C   UNL     1       6.191  -7.210   4.982  0.00  0.00    +0.326 C 
ATOM     11  O   UNL     1       5.923  -8.018   4.114  0.00  0.00    -0.251 OA
ATOM     12  N   UNL     1       7.169  -7.383   5.888  0.00  0.00    -0.284 N 
ATOM     13  H   UNL     1       7.763  -8.146   5.962  0.00  0.00    +0.151 HD
BRANCH   6  14
ATOM     14  C   UNL     1       6.857  -6.571   8.201  0.00  0.00    +0.040 C 
BRANCH  14  15
ATOM     15  C   UNL     1       8.002  -7.422   8.754  0.00  0.00    +0.038 C 
BRANCH  15  16
ATOM     16  C   UNL     1       7.704  -7.798  10.183  0.00  0.00    -0.047 A 
ATOM     17  C   UNL     1       8.127  -6.982  11.215  0.00  0.00    +0.003 A 
ATOM     18  C   UNL     1       7.849  -7.324  12.525  0.00  0.00    +0.000 A 
ATOM     19  C   UNL     1       7.157  -8.489  12.803  0.00  0.00    +0.000 A 
ATOM     20  C   UNL     1       6.739  -9.307  11.771  0.00  0.00    +0.000 A 
ATOM     21  C   UNL     1       7.012  -8.962  10.461  0.00  0.00    +0.003 A 
ENDBRANCH  15  16
ENDBRANCH  14  15
ENDBRANCH   6  14
ENDBRANCH   1   9
BRANCH   2  22
ATOM     22  C   UNL     1       3.597  -4.697   2.213  0.00  0.00    +0.021 C 
BRANCH  22  27
ATOM     23  C   UNL     1       4.988  -5.289   0.298  0.00  0.00    -0.077 C 
ATOM     24  C   UNL     1       4.999  -4.900  -1.202  0.00  0.00    -0.020 C 
ATOM     25  C   UNL     1       3.555  -4.404  -1.441  0.00  0.00    -0.010 C 
ATOM     26  C   UNL     1       3.028  -4.013  -0.048  0.00  0.00    -0.011 C 
ATOM     27  N   UNL     1       4.127  -4.249   0.887  0.00  0.00    +0.391 N 
ATOM     28  H   UNL     1       4.666  -3.385   1.015  0.00  0.00    -0.080 HD
BRANCH  26  29
ATOM     29  C   UNL     1       2.638  -2.557  -0.037  0.00  0.00    +0.066 A 
ATOM     30  N   UNL     1       1.441  -2.041  -0.023  0.00  0.00    -0.246 NA
ATOM     31  C   UNL     1       1.226  -0.709  -0.014  0.00  0.00    +0.078 A 
ATOM     32  C   UNL     1       0.002  -0.004   0.002  0.00  0.00    +0.029 A 
ATOM     33  C   UNL     1      -0.016   1.356   0.009  0.00  0.00    +0.002 A 
ATOM     34  C   UNL     1       1.155   2.100   0.002  0.00  0.00    +0.001 A 
ATOM     35  C   UNL     1       2.374   1.448  -0.013  0.00  0.00    +0.017 A 
ATOM     36  C   UNL     1       2.403   0.075  -0.021  0.00  0.00    +0.039 A 
ATOM     37  S   UNL     1       3.674  -1.164  -0.039  0.00  0.00    -0.074 S 
ENDBRANCH  26  29
ENDBRANCH  22  27
ENDBRANCH   2  22
TORSDOF 7
