REMARK  Name = ZINC04188350
REMARK  9 active torsions:
REMARK  status: ('A' for Active; 'I' for Inactive)
REMARK    1  A    between atoms: C_1  and  C_2
REMARK    2  A    between atoms: C_2  and  O_3
REMARK    3  A    between atoms: O_3  and  C_4
REMARK    4  A    between atoms: C_9  and  O_10
REMARK    5  A    between atoms: O_10  and  C_11
REMARK    6  A    between atoms: C_11  and  C_12
REMARK    7  A    between atoms: C_18  and  C_22
REMARK    8  A    between atoms: C_25  and  O_28
REMARK    9  A    between atoms: O_28  and  C_29
REMARK                            x       y       z     vdW  Elec       q    Type
REMARK                         _______ _______ _______ _____ _____    ______ ____
ROOT
ATOM      1  C   UNL     1      -1.498  -1.850   0.006  0.00  0.00    +0.162 A 
ATOM      2  C   UNL     1      -0.385  -2.676  -0.003  0.00  0.00    +0.053 A 
ATOM      3  C   UNL     1      -0.546  -4.046  -0.024  0.00  0.00    -0.037 A 
ATOM      4  C   UNL     1      -1.828  -4.586  -0.068  0.00  0.00    +0.051 A 
ATOM      5  C   UNL     1      -2.942  -3.773  -0.024  0.00  0.00    +0.075 A 
ATOM      6  C   UNL     1      -2.779  -2.395   0.016  0.00  0.00    +0.164 A 
ATOM      7  N   UNL     1      -1.921  -5.979  -0.248  0.00  0.00    -0.321 N 
ATOM      8  C   UNL     1      -2.704  -6.894   0.366  0.00  0.00    +0.091 A 
ATOM      9  C   UNL     1      -2.411  -8.107  -0.157  0.00  0.00    +0.020 A 
ATOM     10  C   UNL     1      -1.408  -7.918  -1.132  0.00  0.00    +0.022 A 
ATOM     11  C   UNL     1      -1.126  -6.604  -1.170  0.00  0.00    +0.014 A 
ATOM     12  C   UNL     1      -0.137  -5.886  -2.043  0.00  0.00    +0.008 C 
ATOM     13  N   UNL     1       1.053  -5.492  -1.268  0.00  0.00    +0.390 N 
ATOM     14  C   UNL     1       0.628  -4.974   0.043  0.00  0.00    -0.043 C 
ATOM     15  H   UNL     1       1.650  -6.294  -1.137  0.00  0.00    -0.084 HD
ATOM     16  H   UNL     1       1.556  -4.774  -1.767  0.00  0.00    -0.084 HD
ENDROOT
BRANCH  12  17
ATOM     17  C   UNL     1       0.284  -6.796  -3.168  0.00  0.00    -0.056 A 
ATOM     18  C   UNL     1       1.232  -7.777  -2.945  0.00  0.00    +0.006 A 
ATOM     19  C   UNL     1       1.620  -8.611  -3.975  0.00  0.00    +0.046 A 
ATOM     20  C   UNL     1       1.057  -8.465  -5.234  0.00  0.00    +0.127 A 
ATOM     21  C   UNL     1       0.105  -7.480  -5.456  0.00  0.00    +0.046 A 
ATOM     22  C   UNL     1      -0.283  -6.651  -4.421  0.00  0.00    +0.006 A 
BRANCH  20  23
ATOM     23  O   UNL     1       1.437  -9.284  -6.250  0.00  0.00    -0.434 OA
BRANCH  23  24
ATOM     24  C   UNL     1       0.815  -9.076  -7.519  0.00  0.00    +0.541 C 
ATOM     25  F   UNL     1      -0.568  -9.248  -7.395  0.00  0.00    -0.166 F 
ATOM     26  F   UNL     1       1.085  -7.777  -7.963  0.00  0.00    -0.166 F 
ENDBRANCH  23  24
ENDBRANCH  20  23
ENDBRANCH  12  17
BRANCH   1  27
ATOM     27  O   UNL     1      -1.339  -0.499   0.012  0.00  0.00    -0.489 OA
BRANCH  27  29
ATOM     28  C   UNL     1      -0.019   1.526   0.010  0.00  0.00    +0.048 C 
ATOM     29  C   UNL     1       0.002  -0.004   0.002  0.00  0.00    +0.226 C 
ENDBRANCH  27  29
ENDBRANCH   1  27
BRANCH   6  30
ATOM     30  O   UNL     1      -3.867  -1.581   0.059  0.00  0.00    -0.489 OA
BRANCH  30  31
ATOM     31  C   UNL     1      -5.149  -2.211   0.066  0.00  0.00    +0.226 C 
ATOM     32  C   UNL     1      -6.243  -1.142   0.115  0.00  0.00    +0.048 C 
ENDBRANCH  30  31
ENDBRANCH   6  30
TORSDOF 7
