REMARK  Name = ZINC36348530
REMARK  9 active torsions:
REMARK  status: ('A' for Active; 'I' for Inactive)
REMARK    1  A    between atoms: C_1  and  O_2
REMARK    2  A    between atoms: O_2  and  C_3
REMARK    3  A    between atoms: C_6  and  C_13
REMARK    4  A    between atoms: C_7  and  O_11
REMARK    5  A    between atoms: C_8  and  O_9
REMARK    6  A    between atoms: O_9  and  C_10
REMARK    7  A    between atoms: O_11  and  C_12
REMARK    8  A    between atoms: N_23  and  C_24
REMARK    9  A    between atoms: C_24  and  C_25
REMARK                            x       y       z     vdW  Elec       q    Type
REMARK                         _______ _______ _______ _____ _____    ______ ____
ROOT
ATOM      1  C   UNL     1      -5.028  -2.717   0.159  0.00  0.00    +0.014 C 
ATOM      2  C   UNL     1      -5.367  -3.097  -1.262  0.00  0.00    +0.010 A 
ATOM      3  C   UNL     1      -4.500  -3.528  -2.199  0.00  0.00    +0.021 A 
ATOM      4  C   UNL     1      -5.238  -3.782  -3.372  0.00  0.00    +0.019 A 
ATOM      5  C   UNL     1      -6.529  -3.493  -3.108  0.00  0.00    +0.086 A 
ATOM      6  N   UNL     1      -6.614  -3.063  -1.819  0.00  0.00    -0.352 N 
ATOM      7  C   UNL     1      -7.829  -2.621  -1.126  0.00  0.00    +0.119 C 
ATOM      8  C   UNL     1      -7.880  -3.275   0.258  0.00  0.00    +0.003 C 
ATOM      9  C   UNL     1      -7.139  -2.405   1.266  0.00  0.00    -0.075 C 
ATOM     10  N   UNL     1      -6.001  -1.727   0.642  0.00  0.00    +0.391 N 
ATOM     11  H   UNL     1      -6.327  -1.172  -0.135  0.00  0.00    -0.080 HD
ENDROOT
BRANCH   1  15
ATOM     12  C   UNL     1      -1.097  -1.032   0.287  0.00  0.00    +0.165 A 
ATOM     13  C   UNL     1      -2.107  -0.395  -0.417  0.00  0.00    +0.050 A 
ATOM     14  C   UNL     1      -3.376  -0.941  -0.457  0.00  0.00    +0.010 A 
ATOM     15  C   UNL     1      -3.643  -2.125   0.205  0.00  0.00    -0.010 A 
ATOM     16  C   UNL     1      -2.639  -2.769   0.911  0.00  0.00    +0.167 A 
ATOM     17  C   UNL     1      -1.360  -2.225   0.949  0.00  0.00    +0.204 A 
BRANCH  12  19
ATOM     18  C   UNL     1       0.349   0.735  -0.377  0.00  0.00    +0.277 C 
ATOM     19  O   UNL     1       0.151  -0.493   0.326  0.00  0.00    -0.491 OA
ENDBRANCH  12  19
BRANCH  17  20
ATOM     20  O   UNL     1      -0.370  -2.857   1.636  0.00  0.00    -0.488 OA
ATOM     21  C   UNL     1      -0.211  -2.508   3.013  0.00  0.00    +0.277 C 
ENDBRANCH  17  20
BRANCH  16  22
ATOM     22  O   UNL     1      -2.903  -3.933   1.563  0.00  0.00    -0.491 OA
ATOM     23  C   UNL     1      -2.606  -5.147   0.869  0.00  0.00    +0.277 C 
ENDBRANCH  16  22
ENDBRANCH   1  15
BRANCH  10  24
ATOM     24  C   UNL     1      -5.355  -0.850   1.627  0.00  0.00    -0.042 C 
BRANCH  24  25
ATOM     25  C   UNL     1      -6.324   0.220   2.059  0.00  0.00    -0.064 A 
ATOM     26  C   UNL     1      -6.385   1.417   1.369  0.00  0.00    +0.004 A 
ATOM     27  C   UNL     1      -7.274   2.398   1.764  0.00  0.00    +0.038 A 
ATOM     28  C   UNL     1      -8.104   2.183   2.851  0.00  0.00    +0.123 A 
ATOM     29  C   UNL     1      -8.043   0.984   3.542  0.00  0.00    +0.038 A 
ATOM     30  C   UNL     1      -7.156   0.002   3.142  0.00  0.00    +0.004 A 
ATOM     31  F   UNL     1      -8.973   3.142   3.239  0.00  0.00    -0.205 F 
ENDBRANCH  24  25
ENDBRANCH  10  24
TORSDOF 6
