REMARK  Name = ZINC61881445
REMARK  6 active torsions:
REMARK  status: ('A' for Active; 'I' for Inactive)
REMARK    1  A    between atoms: C_1  and  C_2
REMARK    2  A    between atoms: C_2  and  C_3
REMARK    3  A    between atoms: C_3  and  N_4
REMARK    4  A    between atoms: N_7  and  S_10
REMARK    5  A    between atoms: S_10  and  C_13
REMARK    6  A    between atoms: C_17  and  N_20
REMARK                            x       y       z     vdW  Elec       q    Type
REMARK                         _______ _______ _______ _____ _____    ______ ____
ROOT
ATOM      1  S   UNL     1      -2.596  -5.898   1.605  0.00  0.00    +0.062 S 
ATOM      2  O   UNL     1      -3.539  -6.668   0.872  0.00  0.00    -0.153 OA
ATOM      3  O   UNL     1      -1.394  -6.454   2.121  0.00  0.00    -0.153 OA
ENDROOT
BRANCH   1   4
ATOM      4  C   UNL     1      -3.464  -5.213   2.978  0.00  0.00    +0.123 A 
ATOM      5  C   UNL     1      -4.819  -5.445   3.123  0.00  0.00    +0.049 A 
ATOM      6  C   UNL     1      -5.504  -4.910   4.200  0.00  0.00    +0.045 A 
ATOM      7  C   UNL     1      -4.834  -4.141   5.134  0.00  0.00    +0.044 A 
ATOM      8  C   UNL     1      -3.474  -3.906   4.990  0.00  0.00    +0.042 A 
ATOM      9  C   UNL     1      -2.788  -4.450   3.910  0.00  0.00    +0.065 A 
ATOM     10 BR   UNL     1      -0.933  -4.140   3.713  0.00  0.00    -0.046 Br
ATOM     11 CL   UNL     1      -7.206  -5.204   4.378  0.00  0.00    -0.083 Cl
BRANCH   8  12
ATOM     12  N   UNL     1      -2.794  -3.129   5.931  0.00  0.00    -0.357 N 
ATOM     13  H   UNL     1      -3.273  -2.753   6.686  0.00  0.00    +0.142 HD
ATOM     14  H   UNL     1      -1.843  -2.966   5.830  0.00  0.00    +0.142 HD
ENDBRANCH   8  12
ENDBRANCH   1   4
BRANCH   1  18
ATOM     15  N   UNL     1      -1.752  -2.011  -0.215  0.00  0.00    -0.300 NA
ATOM     16  C   UNL     1      -0.902  -2.556   0.852  0.00  0.00    +0.101 C 
ATOM     17  C   UNL     1      -0.795  -4.076   0.687  0.00  0.00    +0.125 C 
ATOM     18  N   UNL     1      -2.153  -4.636   0.628  0.00  0.00    -0.174 NA
ATOM     19  C   UNL     1      -3.108  -4.047  -0.324  0.00  0.00    +0.125 C 
ATOM     20  C   UNL     1      -3.124  -2.529  -0.120  0.00  0.00    +0.101 C 
BRANCH  15  21
ATOM     21  C   UNL     1      -1.742  -0.542  -0.196  0.00  0.00    +0.084 C 
BRANCH  21  23
ATOM     22  C   UNL     1      -0.330   1.493  -0.526  0.00  0.00    +0.005 C 
ATOM     23  C   UNL     1      -0.340  -0.037  -0.545  0.00  0.00    +0.012 C 
ENDBRANCH  21  23
ENDBRANCH  15  21
ENDBRANCH   1  18
TORSDOF 5
