REMARK  Name = ZINC64056410
REMARK  8 active torsions:
REMARK  status: ('A' for Active; 'I' for Inactive)
REMARK    1  A    between atoms: C_1  and  C_2
REMARK    2  A    between atoms: C_2  and  N_3
REMARK    3  A    between atoms: C_13  and  S_14
REMARK    4  A    between atoms: S_14  and  C_15
REMARK    5  A    between atoms: C_15  and  C_17
REMARK    6  A    between atoms: C_15  and  C_18
REMARK    7  A    between atoms: C_18  and  C_20
REMARK    8  A    between atoms: C_28  and  C_30
REMARK                            x       y       z     vdW  Elec       q    Type
REMARK                         _______ _______ _______ _____ _____    ______ ____
ROOT
ATOM      1  C   UNL     1      -2.351  -0.855  -3.958  0.00  0.00    +0.122 C 
ATOM      2  C   UNL     1      -3.621  -0.003  -3.908  0.00  0.00    +0.028 C 
ENDROOT
BRANCH   1   3
ATOM      3  C   UNL     1      -1.711  -0.722  -5.316  0.00  0.00    +0.175 C 
ATOM      4  O   UNL     1      -0.831   0.095  -5.495  0.00  0.00    -0.291 OA
BRANCH   3   5
ATOM      5  C   UNL     1      -2.135  -1.546  -6.380  0.00  0.00    +0.027 C 
ATOM      6  C   UNL     1      -3.190  -2.441  -6.376  0.00  0.00    +0.006 A 
ATOM      7  C   UNL     1      -4.133  -2.811  -5.389  0.00  0.00    +0.010 A 
ATOM      8  C   UNL     1      -5.080  -3.736  -5.664  0.00  0.00    +0.001 A 
ATOM      9  C   UNL     1      -5.178  -4.365  -6.916  0.00  0.00    +0.002 A 
ATOM     10  C   UNL     1      -4.327  -4.083  -7.926  0.00  0.00    +0.026 A 
ATOM     11  C   UNL     1      -3.265  -3.086  -7.710  0.00  0.00    +0.043 A 
ATOM     12  N   UNL     1      -2.328  -2.631  -8.491  0.00  0.00    -0.377 N 
ATOM     13  C   UNL     1      -1.534  -1.633  -7.766  0.00  0.00    +0.111 C 
ATOM     14  C   UNL     1      -0.075  -2.085  -7.681  0.00  0.00    +0.035 C 
ATOM     15  H   UNL     1      -2.179  -2.906  -9.409  0.00  0.00    +0.160 HD
ENDBRANCH   3   5
ENDBRANCH   1   3
BRANCH   1  16
ATOM     16  S   UNL     1      -1.191  -0.287  -2.685  0.00  0.00    -0.076 S 
BRANCH  16  27
ATOM     17  N   UNL     1      -1.389  -0.323   0.003  0.00  0.00    -0.288 N 
ATOM     18  C   UNL     1      -1.989  -0.571   1.190  0.00  0.00    +0.262 A 
ATOM     19  O   UNL     1      -1.446  -0.290   2.243  0.00  0.00    -0.267 OA
ATOM     20  C   UNL     1      -3.320  -1.193   1.162  0.00  0.00    +0.065 A 
ATOM     21  C   UNL     1      -4.020  -1.488   2.330  0.00  0.00    +0.015 A 
ATOM     22  C   UNL     1      -5.257  -2.067   2.247  0.00  0.00    +0.001 A 
ATOM     23  C   UNL     1      -5.820  -2.361   1.012  0.00  0.00    +0.002 A 
ATOM     24  C   UNL     1      -5.156  -2.082  -0.149  0.00  0.00    +0.028 A 
ATOM     25  C   UNL     1      -3.890  -1.491  -0.097  0.00  0.00    +0.079 A 
ATOM     26  N   UNL     1      -3.200  -1.199  -1.217  0.00  0.00    -0.223 NA
ATOM     27  C   UNL     1      -2.016  -0.640  -1.169  0.00  0.00    +0.173 A 
BRANCH  17  29
ATOM     28  C   UNL     1      -0.209   1.818  -0.064  0.00  0.00    +0.027 C 
ATOM     29  C   UNL     1      -0.062   0.296  -0.027  0.00  0.00    +0.124 C 
ENDBRANCH  17  29
ENDBRANCH  16  27
ENDBRANCH   1  16
TORSDOF 5
