REMARK  Name = ZINC24966462
REMARK  11 active torsions:
REMARK  status: ('A' for Active; 'I' for Inactive)
REMARK    1  A    between atoms: C_1  and  O_2
REMARK    2  A    between atoms: O_2  and  C_3
REMARK    3  A    between atoms: C_6  and  C_9
REMARK    4  A    between atoms: C_9  and  C_11
REMARK    5  A    between atoms: C_9  and  N_31
REMARK    6  A    between atoms: C_11  and  N_12
REMARK    7  A    between atoms: C_13  and  C_15
REMARK    8  A    between atoms: C_15  and  S_16
REMARK    9  A    between atoms: S_16  and  C_17
REMARK   10  A    between atoms: C_20  and  C_28
REMARK   11  A    between atoms: N_21  and  C_22
REMARK                            x       y       z     vdW  Elec       q    Type
REMARK                         _______ _______ _______ _____ _____    ______ ____
ROOT
ATOM      1  N   UNL     1      -0.013   0.973   0.103  0.00  0.00    -0.316 N 
ATOM      2  C   UNL     1      -1.186   1.618   0.252  0.00  0.00    +0.223 C 
ATOM      3  O   UNL     1      -1.200   2.815   0.445  0.00  0.00    -0.275 OA
ATOM      4  H   UNL     1       0.000  -0.114  -0.067  0.00  0.00    +0.149 HD
ENDROOT
BRANCH   1   5
ATOM      5  C   UNL     1       1.247   1.719   0.169  0.00  0.00    +0.093 C 
BRANCH   5   6
ATOM      6  C   UNL     1       2.422   0.741   0.109  0.00  0.00    -0.020 C 
BRANCH   6   7
ATOM      7  N   UNL     1       3.684   1.493   0.101  0.00  0.00    +0.385 N 
ATOM      8  C   UNL     1       3.731   2.431  -1.029  0.00  0.00    -0.078 C 
ATOM      9  C   UNL     1       4.989   3.296  -0.923  0.00  0.00    -0.019 C 
ATOM     10  C   UNL     1       6.226   2.393  -0.933  0.00  0.00    -0.004 C 
ATOM     11  C   UNL     1       6.129   1.395   0.224  0.00  0.00    -0.019 C 
ATOM     12  C   UNL     1       4.838   0.585   0.085  0.00  0.00    -0.078 C 
ATOM     13  H   UNL     1       3.734   2.082   1.028  0.00  0.00    -0.081 HD
ENDBRANCH   6   7
BRANCH   6  17
ATOM     14  C   UNL     1       2.316  -1.827   3.523  0.00  0.00    +0.120 A 
ATOM     15  C   UNL     1       1.835  -2.275   2.301  0.00  0.00    +0.046 A 
ATOM     16  C   UNL     1       1.870  -1.443   1.199  0.00  0.00    +0.005 A 
ATOM     17  C   UNL     1       2.385  -0.164   1.313  0.00  0.00    -0.059 A 
ATOM     18  C   UNL     1       2.869   0.283   2.528  0.00  0.00    +0.005 A 
ATOM     19  C   UNL     1       2.831  -0.544   3.634  0.00  0.00    +0.046 A 
BRANCH  14  21
ATOM     20  C   UNL     1       2.795  -2.116   5.833  0.00  0.00    +0.277 C 
ATOM     21  O   UNL     1       2.283  -2.644   4.608  0.00  0.00    -0.495 OA
ENDBRANCH  14  21
ENDBRANCH   6  17
ENDBRANCH   5   6
ENDBRANCH   1   5
BRANCH   2  22
ATOM     22  C   UNL     1      -2.482   0.852   0.178  0.00  0.00    +0.173 C 
BRANCH  22  23
ATOM     23  S   UNL     1      -3.870   1.989   0.414  0.00  0.00    -0.076 S 
BRANCH  23  24
ATOM     24  C   UNL     1      -5.216   0.860   0.284  0.00  0.00    +0.197 A 
ATOM     25  N   UNL     1      -5.134  -0.432   0.068  0.00  0.00    -0.122 NA
ATOM     26  N   UNL     1      -6.311  -0.947   0.036  0.00  0.00    -0.133 NA
ATOM     27  C   UNL     1      -7.210  -0.022   0.219  0.00  0.00    +0.142 A 
ATOM     28  N   UNL     1      -6.546   1.165   0.384  0.00  0.00    -0.274 N 
BRANCH  28  29
ATOM     29  C   UNL     1      -7.112   2.428   0.609  0.00  0.00    +0.050 A 
ATOM     30  C   UNL     1      -7.821   2.676   1.776  0.00  0.00    +0.026 A 
ATOM     31  C   UNL     1      -8.373   3.923   1.996  0.00  0.00    +0.002 A 
ATOM     32  C   UNL     1      -8.229   4.921   1.050  0.00  0.00    +0.000 A 
ATOM     33  C   UNL     1      -7.527   4.676  -0.116  0.00  0.00    +0.002 A 
ATOM     34  C   UNL     1      -6.969   3.432  -0.340  0.00  0.00    +0.026 A 
ENDBRANCH  28  29
BRANCH  27  35
ATOM     35  C   UNL     1      -8.704  -0.221   0.245  0.00  0.00    +0.057 C 
ATOM     36  C   UNL     1      -9.225  -1.659   0.243  0.00  0.00    +0.012 C 
ATOM     37  C   UNL     1      -9.362  -0.793  -1.012  0.00  0.00    +0.012 C 
ENDBRANCH  27  35
ENDBRANCH  23  24
ENDBRANCH  22  23
ENDBRANCH   2  22
TORSDOF 10
