REMARK  Name = ZINC36146576
REMARK  12 active torsions:
REMARK  status: ('A' for Active; 'I' for Inactive)
REMARK    1  A    between atoms: C_5  and  C_7
REMARK    2  A    between atoms: C_10  and  C_13
REMARK    3  A    between atoms: C_13  and  N_14
REMARK    4  A    between atoms: N_14  and  C_15
REMARK    5  A    between atoms: N_14  and  C_23
REMARK    6  A    between atoms: C_15  and  C_16
REMARK    7  A    between atoms: C_23  and  C_24
REMARK    8  A    between atoms: C_24  and  C_26
REMARK    9  A    between atoms: C_24  and  O_34
REMARK   10  A    between atoms: C_26  and  O_27
REMARK   11  A    between atoms: O_27  and  C_28
REMARK   12  A    between atoms: C_28  and  C_29
REMARK                            x       y       z     vdW  Elec       q    Type
REMARK                         _______ _______ _______ _____ _____    ______ ____
ROOT
ATOM      1  N   UNL     1       0.352  -6.272   1.000  0.00  0.00    +0.387 N 
ATOM      2  H   UNL     1       0.468  -6.462   1.984  0.00  0.00    -0.081 HD
ENDROOT
BRANCH   1   3
ATOM      3  C   UNL     1      -0.686  -5.248   0.818  0.00  0.00    -0.030 C 
BRANCH   3   7
ATOM      4  C   UNL     1      -0.678  -1.737   1.885  0.00  0.00    +0.092 C 
ATOM      5  N   UNL     1       0.571  -2.062   1.850  0.00  0.00    -0.089 NA
ATOM      6  O   UNL     1       0.775  -3.434   1.575  0.00  0.00    -0.392 OA
ATOM      7  C   UNL     1      -0.469  -4.118   1.826  0.00  0.00    +0.194 C 
ATOM      8  C   UNL     1      -1.501  -2.985   1.623  0.00  0.00    +0.104 C 
BRANCH   4  13
ATOM      9  C   UNL     1      -3.080   1.119   2.288  0.00  0.00    +0.001 A 
ATOM     10  C   UNL     1      -2.219   2.150   2.620  0.00  0.00    +0.001 A 
ATOM     11  C   UNL     1      -0.858   1.921   2.714  0.00  0.00    +0.020 A 
ATOM     12  C   UNL     1      -0.350   0.659   2.476  0.00  0.00    +0.050 A 
ATOM     13  C   UNL     1      -1.214  -0.386   2.140  0.00  0.00    +0.018 A 
ATOM     14  C   UNL     1      -2.586  -0.146   2.048  0.00  0.00    +0.011 A 
ATOM     15 CL   UNL     1       1.359   0.373   2.594  0.00  0.00    -0.083 Cl
ENDBRANCH   4  13
ENDBRANCH   3   7
ENDBRANCH   1   3
BRANCH   1  16
ATOM     16  C   UNL     1       1.621  -5.788   0.441  0.00  0.00    -0.043 C 
BRANCH  16  17
ATOM     17  C   UNL     1       1.413  -5.372  -0.992  0.00  0.00    -0.063 A 
ATOM     18  C   UNL     1       1.502  -6.310  -2.004  0.00  0.00    +0.002 A 
ATOM     19  C   UNL     1       1.311  -5.929  -3.319  0.00  0.00    +0.002 A 
ATOM     20  C   UNL     1       1.032  -4.609  -3.623  0.00  0.00    +0.020 A 
ATOM     21  C   UNL     1       0.944  -3.670  -2.611  0.00  0.00    +0.041 A 
ATOM     22  C   UNL     1       1.128  -4.054  -1.295  0.00  0.00    +0.021 A 
ATOM     23 CL   UNL     1       0.593  -2.013  -2.993  0.00  0.00    -0.084 Cl
ENDBRANCH  16  17
ENDBRANCH   1  16
BRANCH   1  24
ATOM     24  C   UNL     1      -0.049  -7.504   0.307  0.00  0.00    -0.044 C 
BRANCH  24  25
ATOM     25  C   UNL     1       0.827  -8.665   0.783  0.00  0.00    +0.124 C 
BRANCH  25  26
ATOM     26  O   UNL     1       2.168  -8.464   0.334  0.00  0.00    -0.391 OA
ATOM     27  H   UNL     1       2.266  -8.469  -0.628  0.00  0.00    +0.210 HD
ENDBRANCH  25  26
BRANCH  25  28
ATOM     28  C   UNL     1       0.288  -9.978   0.210  0.00  0.00    +0.189 C 
BRANCH  28  29
ATOM     29  O   UNL     1       1.034 -11.072   0.747  0.00  0.00    -0.370 OA
BRANCH  29  30
ATOM     30  C   UNL     1       0.609 -12.352   0.274  0.00  0.00    +0.234 C 
BRANCH  30  31
ATOM     31  C   UNL     1       1.460 -13.427   0.901  0.00  0.00    +0.130 A 
ATOM     32  C   UNL     1       1.196 -14.065   2.055  0.00  0.00    +0.047 A 
ATOM     33  C   UNL     1       2.248 -14.986   2.263  0.00  0.00    +0.041 A 
ATOM     34  C   UNL     1       3.091 -14.856   1.224  0.00  0.00    +0.195 A 
ATOM     35  O   UNL     1       2.606 -13.915   0.399  0.00  0.00    -0.465 OA
ENDBRANCH  30  31
ENDBRANCH  29  30
ENDBRANCH  28  29
ENDBRANCH  25  28
ENDBRANCH  24  25
ENDBRANCH   1  24
TORSDOF 12
