REMARK  Name = ZINC32902177
REMARK  4 active torsions:
REMARK  status: ('A' for Active; 'I' for Inactive)
REMARK    1  A    between atoms: C_1  and  C_2
REMARK    2  A    between atoms: C_2  and  C_3
REMARK    3  A    between atoms: N_10  and  N_13
REMARK    4  A    between atoms: C_14  and  C_16
REMARK                            x       y       z     vdW  Elec       q    Type
REMARK                         _______ _______ _______ _____ _____    ______ ____
ROOT
ATOM      1  C   UNL     1       3.287   3.611  -0.010  0.00  0.00    -0.008 A 
ATOM      2  C   UNL     1       3.508   2.287  -0.021  0.00  0.00    +0.026 A 
ATOM      3  C   UNL     1       2.376   1.380  -0.014  0.00  0.00    +0.074 A 
ATOM      4  C   UNL     1       1.115   2.002   0.002  0.00  0.00    +0.115 A 
ATOM      5  S   UNL     1       1.508   3.732   0.008  0.00  0.00    -0.073 S 
ATOM      6  N   UNL     1      -0.016   1.302   0.009  0.00  0.00    -0.228 NA
ATOM      7  C   UNL     1       0.002  -0.004   0.002  0.00  0.00    +0.223 A 
ATOM      8  N   UNL     1       1.173  -0.691  -0.013  0.00  0.00    -0.212 N 
ATOM      9  C   UNL     1       2.359  -0.053  -0.021  0.00  0.00    +0.279 A 
ATOM     10  O   UNL     1       3.401  -0.685  -0.035  0.00  0.00    -0.265 OA
ENDROOT
BRANCH   8  11
ATOM     11  N   UNL     1       1.147  -2.092  -0.020  0.00  0.00    -0.219 N 
ATOM     12  C   UNL     1       0.822  -2.754  -1.148  0.00  0.00    +0.236 C 
ATOM     13  O   UNL     1       0.552  -2.137  -2.157  0.00  0.00    -0.274 OA
ATOM     14  H   UNL     1       1.393  -2.651   0.895  0.00  0.00    +0.176 HD
BRANCH  12  15
ATOM     15  C   UNL     1       0.794  -4.261  -1.156  0.00  0.00    +0.099 C 
ATOM     16  C   UNL     1      -0.240  -4.757  -0.132  0.00  0.00    +0.037 C 
ATOM     17  C   UNL     1      -0.474  -6.275  -0.377  0.00  0.00    +0.166 C 
ATOM     18  S   UNL     1      -0.496  -6.318  -2.219  0.00  0.00    -0.030 S 
ATOM     19  O   UNL     1      -1.837  -6.181  -2.669  0.00  0.00    -0.174 OA
ATOM     20  O   UNL     1       0.283  -7.420  -2.664  0.00  0.00    -0.174 OA
ATOM     21  C   UNL     1       0.416  -4.760  -2.571  0.00  0.00    +0.178 C 
ENDBRANCH  12  15
ENDBRANCH   8  11
BRANCH   1  23
ATOM     22  C   UNL     1       4.629   5.112  -1.457  0.00  0.00    +0.009 C 
ATOM     23  C   UNL     1       4.300   4.727  -0.014  0.00  0.00    +0.039 C 
ENDBRANCH   1  23
TORSDOF 3
