REMARK  Name = ZINC12416583
REMARK  5 active torsions:
REMARK  status: ('A' for Active; 'I' for Inactive)
REMARK    1  A    between atoms: C_1  and  N_2
REMARK    2  A    between atoms: C_7  and  C_32
REMARK    3  A    between atoms: N_21  and  C_24
REMARK    4  A    between atoms: C_24  and  C_25
REMARK    5  A    between atoms: C_32  and  C_33
REMARK                            x       y       z     vdW  Elec       q    Type
REMARK                         _______ _______ _______ _____ _____    ______ ____
ROOT
ATOM      1  C   UNL     1      -0.018   1.461   0.010  0.00  0.00    +0.141 C 
ATOM      2  N   UNL     1       0.002  -0.004   0.002  0.00  0.00    -0.245 N 
ATOM      3  C   UNL     1       0.007  -0.754  -1.140  0.00  0.00    +0.227 C 
ATOM      4  O   UNL     1       0.272  -0.378  -2.261  0.00  0.00    -0.275 OA
ATOM      5  C   UNL     1      -0.383  -2.144  -0.717  0.00  0.00    +0.107 C 
ATOM      6  C   UNL     1       0.375  -3.344  -1.299  0.00  0.00    +0.072 C 
ATOM      7  N   UNL     1       0.392  -4.311  -0.151  0.00  0.00    -0.295 NA
ATOM      8  C   UNL     1       0.321  -3.508   1.109  0.00  0.00    +0.136 C 
ATOM      9  C   UNL     1       0.354  -2.099   0.682  0.00  0.00    +0.122 C 
ATOM     10  C   UNL     1       0.023  -0.770   1.141  0.00  0.00    +0.228 C 
ATOM     11  O   UNL     1      -0.190  -0.412   2.279  0.00  0.00    -0.275 OA
ATOM     12  C   UNL     1      -0.930  -3.873   1.865  0.00  0.00    +0.004 A 
ATOM     13  C   UNL     1      -2.272  -3.758   1.580  0.00  0.00    +0.008 A 
ATOM     14  C   UNL     1      -3.214  -4.191   2.497  0.00  0.00    +0.000 A 
ATOM     15  C   UNL     1      -2.803  -4.740   3.698  0.00  0.00    +0.002 A 
ATOM     16  C   UNL     1      -1.460  -4.858   3.987  0.00  0.00    +0.024 A 
ATOM     17  C   UNL     1      -0.505  -4.425   3.069  0.00  0.00    +0.042 A 
ATOM     18  N   UNL     1       0.889  -4.439   3.129  0.00  0.00    -0.265 N 
ATOM     19  C   UNL     1       1.451  -3.921   2.022  0.00  0.00    +0.246 C 
ATOM     20  O   UNL     1       2.637  -3.807   1.800  0.00  0.00    -0.273 OA
ATOM     21  H   UNL     1      -0.380  -4.958  -0.212  0.00  0.00    +0.124 HD
ENDROOT
BRANCH  18  22
ATOM     22  C   UNL     1       1.653  -4.957   4.267  0.00  0.00    +0.150 C 
BRANCH  22  23
ATOM     23  C   UNL     1       1.929  -6.424   4.060  0.00  0.00    -0.011 A 
ATOM     24  C   UNL     1       1.147  -7.370   4.696  0.00  0.00    +0.006 A 
ATOM     25  C   UNL     1       1.400  -8.716   4.507  0.00  0.00    +0.000 A 
ATOM     26  C   UNL     1       2.434  -9.117   3.681  0.00  0.00    +0.001 A 
ATOM     27  C   UNL     1       3.216  -8.171   3.045  0.00  0.00    +0.020 A 
ATOM     28  C   UNL     1       2.960  -6.824   3.229  0.00  0.00    +0.046 A 
ATOM     29 CL   UNL     1       3.938  -5.636   2.425  0.00  0.00    -0.083 Cl
ENDBRANCH  22  23
ENDBRANCH  18  22
BRANCH   6  30
ATOM     30  C   UNL     1       1.797  -2.945  -1.699  0.00  0.00    +0.054 C 
BRANCH  30  31
ATOM     31  C   UNL     1       2.473  -4.109  -2.377  0.00  0.00    -0.046 A 
ATOM     32  C   UNL     1       3.183  -5.028  -1.629  0.00  0.00    +0.004 A 
ATOM     33  C   UNL     1       3.803  -6.095  -2.251  0.00  0.00    +0.000 A 
ATOM     34  C   UNL     1       3.712  -6.244  -3.623  0.00  0.00    +0.000 A 
ATOM     35  C   UNL     1       3.001  -5.325  -4.371  0.00  0.00    +0.000 A 
ATOM     36  C   UNL     1       2.378  -4.260  -3.748  0.00  0.00    +0.004 A 
ENDBRANCH  30  31
ENDBRANCH   6  30
TORSDOF 4
