REMARK  Name = ZINC64871134
REMARK  8 active torsions:
REMARK  status: ('A' for Active; 'I' for Inactive)
REMARK    1  A    between atoms: C_1  and  O_2
REMARK    2  A    between atoms: O_2  and  C_3
REMARK    3  A    between atoms: C_6  and  C_11
REMARK    4  A    between atoms: C_7  and  O_9
REMARK    5  A    between atoms: O_9  and  C_10
REMARK    6  A    between atoms: C_14  and  C_18
REMARK    7  A    between atoms: N_28  and  C_31
REMARK    8  A    between atoms: C_31  and  C_32
REMARK                            x       y       z     vdW  Elec       q    Type
REMARK                         _______ _______ _______ _____ _____    ______ ____
ROOT
ATOM      1  C   UNL     1       1.605  -1.788  -7.869  0.00  0.00    -0.000 A 
ATOM      2  C   UNL     1       0.714  -0.754  -7.625  0.00  0.00    +0.008 A 
ATOM      3  C   UNL     1       0.134  -0.069  -8.673  0.00  0.00    +0.016 A 
ATOM      4  C   UNL     1       0.451  -0.423  -9.982  0.00  0.00    +0.063 A 
ATOM      5  C   UNL     1       1.354  -1.472 -10.228  0.00  0.00    +0.056 A 
ATOM      6  C   UNL     1       1.931  -2.145  -9.162  0.00  0.00    +0.034 A 
ATOM      7  N   UNL     1       1.651  -1.802 -11.543  0.00  0.00    -0.307 N 
ATOM      8  H   UNL     1       2.273  -2.524 -11.728  0.00  0.00    +0.170 HD
ATOM      9  C   UNL     1       1.085  -1.133 -12.562  0.00  0.00    +0.330 A 
ATOM     10  O   UNL     1       1.371  -1.454 -13.699  0.00  0.00    -0.246 OA
ATOM     11  N   UNL     1       0.217  -0.126 -12.378  0.00  0.00    -0.256 N 
ATOM     12  C   UNL     1      -0.139   0.275 -11.138  0.00  0.00    +0.265 A 
ATOM     13  O   UNL     1      -0.926   1.188 -10.980  0.00  0.00    -0.267 OA
ENDROOT
BRANCH   1  16
ATOM     14  C   UNL     1       4.263  -3.022  -5.671  0.00  0.00    +0.184 C 
ATOM     15  N   UNL     1       3.644  -2.866  -7.009  0.00  0.00    -0.265 NA
ATOM     16  C   UNL     1       2.228  -2.524  -6.712  0.00  0.00    +0.242 C 
ATOM     17  O   UNL     1       2.329  -1.667  -5.552  0.00  0.00    -0.274 OA
ATOM     18  N   UNL     1       3.410  -2.255  -4.739  0.00  0.00    -0.177 NA
ATOM     19  H   UNL     1       4.092  -2.127  -7.530  0.00  0.00    +0.127 HD
ATOM     20  H   UNL     1       3.037  -2.852  -4.016  0.00  0.00    +0.156 HD
BRANCH  14  24
ATOM     21  C   UNL     1       8.233  -1.433  -5.689  0.00  0.00    +0.124 A 
ATOM     22  C   UNL     1       7.662  -1.895  -6.866  0.00  0.00    +0.046 A 
ATOM     23  C   UNL     1       6.379  -2.409  -6.857  0.00  0.00    +0.014 A 
ATOM     24  C   UNL     1       5.662  -2.463  -5.677  0.00  0.00    +0.028 A 
ATOM     25  C   UNL     1       6.229  -2.002  -4.498  0.00  0.00    +0.130 A 
ATOM     26  C   UNL     1       7.519  -1.492  -4.503  0.00  0.00    +0.091 A 
BRANCH  21  28
ATOM     27  C   UNL     1      10.172  -0.897  -6.956  0.00  0.00    +0.277 C 
ATOM     28  O   UNL     1       9.495  -0.928  -5.698  0.00  0.00    -0.495 OA
ENDBRANCH  21  28
BRANCH  25  29
ATOM     29  O   UNL     1       5.524  -2.055  -3.338  0.00  0.00    -0.495 OA
ATOM     30  C   UNL     1       6.170  -1.563  -2.162  0.00  0.00    +0.277 C 
ENDBRANCH  25  29
ENDBRANCH  14  24
ENDBRANCH   1  16
BRANCH  11  31
ATOM     31  C   UNL     1      -0.355   0.552 -13.544  0.00  0.00    +0.165 C 
BRANCH  31  32
ATOM     32  C   UNL     1      -1.628  -0.142 -13.954  0.00  0.00    -0.026 A 
ATOM     33  C   UNL     1      -1.586  -1.184 -14.863  0.00  0.00    +0.005 A 
ATOM     34  C   UNL     1      -2.753  -1.821 -15.239  0.00  0.00    +0.002 A 
ATOM     35  C   UNL     1      -3.964  -1.416 -14.708  0.00  0.00    +0.020 A 
ATOM     36  C   UNL     1      -4.006  -0.375 -13.799  0.00  0.00    +0.041 A 
ATOM     37  C   UNL     1      -2.837   0.259 -13.418  0.00  0.00    +0.025 A 
ATOM     38 CL   UNL     1      -5.526   0.134 -13.131  0.00  0.00    -0.084 Cl
ENDBRANCH  31  32
ENDBRANCH  11  31
TORSDOF 6
