REMARK  Name = ZINC02652197
REMARK  11 active torsions:
REMARK  status: ('A' for Active; 'I' for Inactive)
REMARK    1  A    between atoms: C_1  and  C_2
REMARK    2  A    between atoms: C_2  and  C_3
REMARK    3  A    between atoms: C_3  and  C_5
REMARK    4  A    between atoms: C_3  and  N_61
REMARK    5  A    between atoms: C_8  and  S_17
REMARK    6  A    between atoms: N_9  and  C_10
REMARK    7  A    between atoms: C_10  and  C_11
REMARK    8  A    between atoms: S_17  and  C_18
REMARK    9  A    between atoms: C_18  and  C_19
REMARK   10  A    between atoms: C_32  and  N_61
REMARK   11  A    between atoms: C_33  and  N_61
REMARK                            x       y       z     vdW  Elec       q    Type
REMARK                         _______ _______ _______ _____ _____    ______ ____
ROOT
ATOM      1  C   UNL     1      -3.649  -1.916  -0.550  0.00  0.00    +0.121 A 
ATOM      2  N   UNL     1      -3.359  -0.649  -0.461  0.00  0.00    -0.135 NA
ATOM      3  N   UNL     1      -2.159  -0.441  -0.871  0.00  0.00    -0.123 NA
ATOM      4  C   UNL     1      -1.616  -1.573  -1.255  0.00  0.00    +0.192 A 
ATOM      5  N   UNL     1      -2.550  -2.550  -1.058  0.00  0.00    -0.303 N 
ENDROOT
BRANCH   1   6
ATOM      6  C   UNL     1      -4.954  -2.562  -0.163  0.00  0.00    +0.000 C 
BRANCH   6   9
ATOM      7  C   UNL     1      -5.937  -1.536  -2.124  0.00  0.00    -0.096 C 
ATOM      8  C   UNL     1      -7.361  -2.383  -0.358  0.00  0.00    -0.096 C 
ATOM      9  N   UNL     1      -6.070  -1.732  -0.665  0.00  0.00    +0.383 N 
ATOM     10  H   UNL     1      -6.039  -0.817  -0.201  0.00  0.00    -0.082 HD
ENDBRANCH   6   9
BRANCH   6  12
ATOM     11  C   UNL     1      -5.000  -1.240   1.956  0.00  0.00    +0.002 C 
ATOM     12  C   UNL     1      -5.049  -2.649   1.361  0.00  0.00    -0.011 C 
ENDBRANCH   6  12
ENDBRANCH   1   6
BRANCH   5  13
ATOM     13  C   UNL     1      -2.404  -3.982  -1.335  0.00  0.00    +0.160 C 
BRANCH  13  14
ATOM     14  C   UNL     1      -1.863  -4.677  -0.113  0.00  0.00    -0.028 A 
ATOM     15  C   UNL     1      -0.498  -4.812   0.058  0.00  0.00    +0.005 A 
ATOM     16  C   UNL     1      -0.001  -5.446   1.182  0.00  0.00    +0.000 A 
ATOM     17  C   UNL     1      -0.870  -5.954   2.130  0.00  0.00    +0.000 A 
ATOM     18  C   UNL     1      -2.235  -5.823   1.956  0.00  0.00    +0.000 A 
ATOM     19  C   UNL     1      -2.732  -5.185   0.835  0.00  0.00    +0.005 A 
ENDBRANCH  13  14
ENDBRANCH   5  13
BRANCH   4  20
ATOM     20  S   UNL     1       0.011  -1.792  -1.895  0.00  0.00    -0.077 S 
BRANCH  20  21
ATOM     21  C   UNL     1       0.599  -0.081  -1.849  0.00  0.00    +0.173 C 
BRANCH  21  22
ATOM     22  C   UNL     1       2.013  -0.022  -2.367  0.00  0.00    +0.231 C 
ATOM     23  O   UNL     1       2.568  -1.037  -2.731  0.00  0.00    -0.274 OA
ATOM     24  N   UNL     1       2.661   1.159  -2.425  0.00  0.00    -0.260 N 
ATOM     25  C   UNL     1       2.008   2.404  -1.996  0.00  0.00    +0.209 C 
ATOM     26  C   UNL     1       2.340   3.499  -2.971  0.00  0.00    +0.235 C 
ATOM     27  O   UNL     1       1.555   4.409  -3.140  0.00  0.00    -0.274 OA
ATOM     28  N   UNL     1       3.496   3.482  -3.661  0.00  0.00    -0.283 N 
ATOM     29  C   UNL     1       4.396   2.420  -3.521  0.00  0.00    +0.055 A 
ATOM     30  C   UNL     1       3.978   1.239  -2.903  0.00  0.00    +0.058 A 
ATOM     31  C   UNL     1       4.853   0.177  -2.769  0.00  0.00    +0.025 A 
ATOM     32  C   UNL     1       6.146   0.288  -3.248  0.00  0.00    +0.002 A 
ATOM     33  C   UNL     1       6.564   1.457  -3.857  0.00  0.00    +0.002 A 
ATOM     34  C   UNL     1       5.694   2.523  -3.995  0.00  0.00    +0.025 A 
ATOM     35  H   UNL     1       3.707   4.213  -4.262  0.00  0.00    +0.155 HD
ENDBRANCH  21  22
ENDBRANCH  20  21
ENDBRANCH   4  20
TORSDOF 8
