REMARK  Name = ZINC36072466
REMARK  11 active torsions:
REMARK  status: ('A' for Active; 'I' for Inactive)
REMARK    1  A    between atoms: C_1  and  C_2
REMARK    2  A    between atoms: C_7  and  C_8
REMARK    3  A    between atoms: C_8  and  N_9
REMARK    4  A    between atoms: N_9  and  C_10
REMARK    5  A    between atoms: N_9  and  C_18
REMARK    6  A    between atoms: C_10  and  C_11
REMARK    7  A    between atoms: C_18  and  C_19
REMARK    8  A    between atoms: C_21  and  C_24
REMARK    9  A    between atoms: N_26  and  C_27
REMARK   10  A    between atoms: C_27  and  C_29
REMARK   11  A    between atoms: C_27  and  C_30
REMARK                            x       y       z     vdW  Elec       q    Type
REMARK                         _______ _______ _______ _____ _____    ______ ____
ROOT
ATOM      1  N   UNL     1      -1.318   0.587   2.754  0.00  0.00    +0.391 N 
ATOM      2  H   UNL     1      -1.609   1.030   1.895  0.00  0.00    -0.080 HD
ENDROOT
BRANCH   1   3
ATOM      3  C   UNL     1       0.046   0.065   2.597  0.00  0.00    -0.042 C 
BRANCH   3  10
ATOM      4  C   UNL     1       0.230   1.192  -0.057  0.00  0.00    +0.044 C 
ATOM      5  C   UNL     1       0.189  -0.304   0.126  0.00  0.00    -0.049 A 
ATOM      6  C   UNL     1       0.246  -1.137  -0.977  0.00  0.00    +0.003 A 
ATOM      7  C   UNL     1       0.208  -2.508  -0.809  0.00  0.00    +0.000 A 
ATOM      8  C   UNL     1       0.115  -3.047   0.461  0.00  0.00    +0.000 A 
ATOM      9  C   UNL     1       0.060  -2.215   1.562  0.00  0.00    +0.002 A 
ATOM     10  C   UNL     1       0.101  -0.843   1.395  0.00  0.00    -0.061 A 
ENDBRANCH   3  10
ENDBRANCH   1   3
BRANCH   1  11
ATOM     11  C   UNL     1      -1.343   1.571   3.845  0.00  0.00    -0.042 C 
BRANCH  11  12
ATOM     12  C   UNL     1      -0.501   2.762   3.467  0.00  0.00    -0.064 A 
ATOM     13  C   UNL     1       0.845   2.784   3.782  0.00  0.00    +0.004 A 
ATOM     14  C   UNL     1       1.619   3.875   3.436  0.00  0.00    +0.038 A 
ATOM     15  C   UNL     1       1.045   4.947   2.774  0.00  0.00    +0.123 A 
ATOM     16  C   UNL     1      -0.303   4.925   2.459  0.00  0.00    +0.038 A 
ATOM     17  C   UNL     1      -1.074   3.830   2.802  0.00  0.00    +0.004 A 
ATOM     18  F   UNL     1       1.800   6.015   2.435  0.00  0.00    -0.205 F 
ENDBRANCH  11  12
ENDBRANCH   1  11
BRANCH   1  19
ATOM     19  C   UNL     1      -2.232  -0.518   3.069  0.00  0.00    +0.020 C 
BRANCH  19  20
ATOM     20  C   UNL     1      -3.650  -0.006   3.095  0.00  0.00    +0.179 A 
ATOM     21  N   UNL     1      -4.422   0.123   2.058  0.00  0.00    -0.210 NA
ATOM     22  C   UNL     1      -5.622   0.612   2.472  0.00  0.00    +0.163 A 
ATOM     23  C   UNL     1      -5.543   0.776   3.821  0.00  0.00    +0.230 A 
ATOM     24  O   UNL     1      -4.314   0.383   4.192  0.00  0.00    -0.449 OA
BRANCH  22  25
ATOM     25  C   UNL     1      -6.788   0.909   1.620  0.00  0.00    +0.266 C 
ATOM     26  O   UNL     1      -7.775   1.431   2.102  0.00  0.00    -0.268 OA
ATOM     27  N   UNL     1      -6.759   0.602   0.308  0.00  0.00    -0.303 N 
ATOM     28  H   UNL     1      -6.003   0.120  -0.061  0.00  0.00    +0.150 HD
BRANCH  27  29
ATOM     29  C   UNL     1      -7.871   0.997  -0.560  0.00  0.00    +0.100 C 
ATOM     30  C   UNL     1      -7.657   2.433  -1.042  0.00  0.00    +0.033 C 
BRANCH  29  31
ATOM     31  C   UNL     1      -7.932   0.073  -1.749  0.00  0.00    -0.027 A 
ATOM     32  C   UNL     1      -6.765  -0.347  -2.358  0.00  0.00    +0.005 A 
ATOM     33  C   UNL     1      -6.821  -1.195  -3.449  0.00  0.00    +0.000 A 
ATOM     34  C   UNL     1      -8.044  -1.623  -3.930  0.00  0.00    +0.000 A 
ATOM     35  C   UNL     1      -9.211  -1.204  -3.320  0.00  0.00    +0.000 A 
ATOM     36  C   UNL     1      -9.155  -0.359  -2.227  0.00  0.00    +0.005 A 
ENDBRANCH  29  31
ENDBRANCH  27  29
ENDBRANCH  22  25
ENDBRANCH  19  20
ENDBRANCH   1  19
TORSDOF 9
