REMARK  Name = ZINC39710878
REMARK  12 active torsions:
REMARK  status: ('A' for Active; 'I' for Inactive)
REMARK    1  A    between atoms: C_1  and  C_2
REMARK    2  A    between atoms: C_8  and  C_14
REMARK    3  A    between atoms: C_14  and  C_16
REMARK    4  A    between atoms: C_14  and  N_26
REMARK    5  A    between atoms: N_21  and  C_22
REMARK    6  A    between atoms: C_22  and  C_23
REMARK    7  A    between atoms: C_22  and  C_24
REMARK    8  A    between atoms: C_22  and  C_25
REMARK    9  A    between atoms: N_26  and  C_27
REMARK   10  A    between atoms: N_26  and  C_34
REMARK   11  A    between atoms: C_27  and  C_28
REMARK   12  A    between atoms: C_34  and  C_35
REMARK                            x       y       z     vdW  Elec       q    Type
REMARK                         _______ _______ _______ _____ _____    ______ ____
ROOT
ATOM      1  C   UNL     1       1.137  -3.743   4.448  0.00  0.00    -0.009 C 
ENDROOT
BRANCH   1   9
ATOM      2  C   UNL     1      -1.261   1.228   7.133  0.00  0.00    +0.045 C 
ATOM      3  C   UNL     1      -1.898   0.122   6.332  0.00  0.00    -0.029 A 
ATOM      4  C   UNL     1      -3.153   0.285   5.837  0.00  0.00    +0.005 A 
ATOM      5  C   UNL     1      -3.800  -0.698   5.087  0.00  0.00    +0.001 A 
ATOM      6  C   UNL     1      -3.201  -1.885   4.810  0.00  0.00    +0.009 A 
ATOM      7  C   UNL     1      -1.848  -2.127   5.312  0.00  0.00    -0.007 A 
ATOM      8  C   UNL     1      -1.208  -3.303   5.059  0.00  0.00    -0.006 C 
ATOM      9  C   UNL     1       0.192  -3.467   5.619  0.00  0.00    +0.088 C 
ATOM     10  C   UNL     1       0.762  -2.314   6.413  0.00  0.00    +0.223 C 
ATOM     11  O   UNL     1       1.881  -2.392   6.885  0.00  0.00    -0.275 OA
ATOM     12  N   UNL     1       0.041  -1.220   6.592  0.00  0.00    -0.284 N 
ATOM     13  C   UNL     1      -1.187  -1.069   6.097  0.00  0.00    +0.043 A 
ATOM     14  H   UNL     1       0.426  -0.492   7.104  0.00  0.00    +0.155 HD
ENDBRANCH   1   9
BRANCH   1  15
ATOM     15  C   UNL     1       1.705  -5.158   4.573  0.00  0.00    +0.205 C 
ATOM     16  N   UNL     1       3.000  -5.131   5.268  0.00  0.00    -0.152 NA
ATOM     17  N   UNL     1       3.868  -5.569   4.510  0.00  0.00    -0.070 NA
ATOM     18  N   UNL     1       3.363  -5.942   3.265  0.00  0.00    -0.179 N 
ATOM     19  N   UNL     1       2.010  -5.712   3.237  0.00  0.00    -0.183 NA
ATOM     20  H   UNL     1       3.886  -6.308   2.534  0.00  0.00    +0.191 HD
BRANCH  19  21
ATOM     21  C   UNL     1       1.267  -6.957   3.002  0.00  0.00    +0.035 C 
ATOM     22  C   UNL     1      -0.231  -6.651   2.929  0.00  0.00    +0.029 C 
ATOM     23  C   UNL     1       1.724  -7.582   1.682  0.00  0.00    +0.029 C 
ATOM     24  C   UNL     1       1.533  -7.935   4.148  0.00  0.00    +0.029 C 
ENDBRANCH  19  21
ENDBRANCH   1  15
BRANCH   1  25
ATOM     25  N   UNL     1       2.237  -2.770   4.466  0.00  0.00    +0.390 N 
ATOM     26  H   UNL     1       2.699  -2.801   5.363  0.00  0.00    -0.080 HD
BRANCH  25  27
ATOM     27  C   UNL     1       3.201  -3.100   3.408  0.00  0.00    -0.042 C 
BRANCH  27  28
ATOM     28  C   UNL     1       2.599  -2.782   2.064  0.00  0.00    -0.064 A 
ATOM     29  C   UNL     1       1.423  -3.393   1.671  0.00  0.00    +0.002 A 
ATOM     30  C   UNL     1       0.870  -3.102   0.438  0.00  0.00    +0.000 A 
ATOM     31  C   UNL     1       1.494  -2.199  -0.403  0.00  0.00    +0.000 A 
ATOM     32  C   UNL     1       2.669  -1.586  -0.010  0.00  0.00    +0.000 A 
ATOM     33  C   UNL     1       3.219  -1.875   1.225  0.00  0.00    +0.002 A 
ENDBRANCH  27  28
ENDBRANCH  25  27
BRANCH  25  34
ATOM     34  C   UNL     1       1.702  -1.421   4.238  0.00  0.00    -0.042 C 
BRANCH  34  35
ATOM     35  C   UNL     1       2.826  -0.419   4.286  0.00  0.00    -0.064 A 
ATOM     36  C   UNL     1       3.521  -0.216   5.464  0.00  0.00    +0.003 A 
ATOM     37  C   UNL     1       4.553   0.703   5.509  0.00  0.00    +0.020 A 
ATOM     38  C   UNL     1       4.890   1.419   4.374  0.00  0.00    +0.041 A 
ATOM     39  C   UNL     1       4.195   1.214   3.196  0.00  0.00    +0.020 A 
ATOM     40  C   UNL     1       3.167   0.291   3.151  0.00  0.00    +0.003 A 
ATOM     41 CL   UNL     1       6.186   2.573   4.429  0.00  0.00    -0.084 Cl
ENDBRANCH  34  35
ENDBRANCH  25  34
ENDBRANCH   1  25
TORSDOF 8
