REMARK  Name = ZINC39915815
REMARK  10 active torsions:
REMARK  status: ('A' for Active; 'I' for Inactive)
REMARK    1  A    between atoms: C_1  and  C_2
REMARK    2  A    between atoms: C_2  and  C_3
REMARK    3  A    between atoms: C_2  and  N_4
REMARK    4  A    between atoms: C_12  and  S_13
REMARK    5  A    between atoms: S_13  and  C_14
REMARK    6  A    between atoms: C_16  and  O_29
REMARK    7  A    between atoms: C_18  and  O_28
REMARK    8  A    between atoms: C_20  and  O_27
REMARK    9  A    between atoms: C_22  and  C_25
REMARK   10  A    between atoms: C_25  and  O_26
REMARK                            x       y       z     vdW  Elec       q    Type
REMARK                         _______ _______ _______ _____ _____    ______ ____
ROOT
ATOM      1  C   UNL     1      -3.656   0.590   3.144  0.00  0.00    +0.214 C 
ATOM      2  C   UNL     1      -3.458   1.272   4.500  0.00  0.00    +0.185 C 
ATOM      3  C   UNL     1      -4.782   1.255   5.270  0.00  0.00    +0.177 C 
ATOM      4  C   UNL     1      -5.860   1.941   4.425  0.00  0.00    +0.176 C 
ATOM      5  C   UNL     1      -5.965   1.233   3.072  0.00  0.00    +0.176 C 
ATOM      6  O   UNL     1      -4.692   1.258   2.422  0.00  0.00    -0.355 OA
ENDROOT
BRANCH   4   7
ATOM      7  O   UNL     1      -7.116   1.869   5.102  0.00  0.00    -0.386 OA
ATOM      8  H   UNL     1      -7.120   2.294   5.971  0.00  0.00    +0.210 HD
ENDBRANCH   4   7
BRANCH   3   9
ATOM      9  O   UNL     1      -5.166  -0.097   5.530  0.00  0.00    -0.386 OA
ATOM     10  H   UNL     1      -4.525  -0.594   6.056  0.00  0.00    +0.210 HD
ENDBRANCH   3   9
BRANCH   2  11
ATOM     11  O   UNL     1      -3.039   2.623   4.298  0.00  0.00    -0.386 OA
ATOM     12  H   UNL     1      -2.208   2.709   3.812  0.00  0.00    +0.210 HD
ENDBRANCH   2  11
BRANCH   1  13
ATOM     13  S   UNL     1      -2.111   0.668   2.196  0.00  0.00    -0.054 S 
BRANCH  13  22
ATOM     14  N   UNL     1      -1.569  -0.495  -0.272  0.00  0.00    -0.316 N 
ATOM     15  C   UNL     1      -2.215  -1.280  -1.213  0.00  0.00    +0.070 A 
ATOM     16  C   UNL     1      -1.841  -1.822  -2.433  0.00  0.00    +0.028 A 
ATOM     17  C   UNL     1      -2.740  -2.583  -3.151  0.00  0.00    +0.002 A 
ATOM     18  C   UNL     1      -4.018  -2.808  -2.662  0.00  0.00    +0.002 A 
ATOM     19  C   UNL     1      -4.407  -2.277  -1.452  0.00  0.00    +0.030 A 
ATOM     20  C   UNL     1      -3.508  -1.506  -0.712  0.00  0.00    +0.090 A 
ATOM     21  N   UNL     1      -3.592  -0.864   0.483  0.00  0.00    -0.222 NA
ATOM     22  C   UNL     1      -2.452  -0.274   0.747  0.00  0.00    +0.173 A 
BRANCH  14  24
ATOM     23  C   UNL     1      -0.199   1.531  -0.317  0.00  0.00    +0.030 C 
ATOM     24  C   UNL     1      -0.193   0.002  -0.352  0.00  0.00    +0.084 C 
ATOM     25  C   UNL     1       0.612  -0.532   0.835  0.00  0.00    +0.030 C 
ENDBRANCH  14  24
ENDBRANCH  13  22
ENDBRANCH   1  13
BRANCH   5  26
ATOM     26  C   UNL     1      -6.399  -0.218   3.288  0.00  0.00    +0.190 C 
BRANCH  26  27
ATOM     27  O   UNL     1      -6.646  -0.835   2.022  0.00  0.00    -0.392 OA
ATOM     28  H   UNL     1      -6.926  -1.758   2.083  0.00  0.00    +0.210 HD
ENDBRANCH  26  27
ENDBRANCH   5  26
TORSDOF 8
