REMARK  Name = ZINC28056740
REMARK  6 active torsions:
REMARK  status: ('A' for Active; 'I' for Inactive)
REMARK    1  A    between atoms: C_1  and  C_2
REMARK    2  A    between atoms: C_10  and  C_18
REMARK    3  A    between atoms: C_22  and  O_24
REMARK    4  A    between atoms: O_24  and  C_25
REMARK    5  A    between atoms: C_26  and  C_29
REMARK    6  A    between atoms: C_34  and  C_35
REMARK                            x       y       z     vdW  Elec       q    Type
REMARK                         _______ _______ _______ _____ _____    ______ ____
ROOT
ATOM      1  C   UNL     1       0.122   9.058   2.118  0.00  0.00    +0.044 C 
ATOM      2  C   UNL     1      -0.525   7.993   1.270  0.00  0.00    -0.050 A 
ATOM      3  C   UNL     1      -0.236   7.919  -0.081  0.00  0.00    +0.007 A 
ATOM      4  C   UNL     1      -0.822   6.947  -0.873  0.00  0.00    +0.046 A 
ATOM      5  C   UNL     1      -1.703   6.043  -0.310  0.00  0.00    +0.131 A 
ATOM      6  C   UNL     1      -1.997   6.117   1.058  0.00  0.00    +0.038 A 
ATOM      7  C   UNL     1      -1.405   7.096   1.845  0.00  0.00    +0.016 A 
ATOM      8  C   UNL     1      -2.946   5.132   1.629  0.00  0.00    +0.050 C 
ATOM      9  C   UNL     1      -3.226   4.035   0.922  0.00  0.00    +0.025 C 
ATOM     10  C   UNL     1      -4.205   2.993   1.403  0.00  0.00    +0.174 C 
ATOM     11  N   UNL     1      -4.512   3.206   2.810  0.00  0.00    -0.201 N 
ATOM     12  C   UNL     1      -4.193   4.337   3.492  0.00  0.00    +0.240 A 
ATOM     13  N   UNL     1      -4.623   4.190   4.712  0.00  0.00    -0.092 NA
ATOM     14  N   UNL     1      -5.188   3.039   4.850  0.00  0.00    -0.021 NA
ATOM     15  N   UNL     1      -5.156   2.385   3.735  0.00  0.00    -0.042 NA
ATOM     16  N   UNL     1      -3.526   5.385   2.878  0.00  0.00    -0.282 N 
ATOM     17  C   UNL     1      -2.542   3.823  -0.409  0.00  0.00    +0.234 C 
ATOM     18  O   UNL     1      -2.296   5.073  -1.051  0.00  0.00    -0.479 OA
ATOM     19  H   UNL     1      -3.441   6.383   3.332  0.00  0.00    +0.155 HD
ENDROOT
BRANCH  17  20
ATOM     20  C   UNL     1      -1.233   3.111  -0.188  0.00  0.00    -0.000 A 
ATOM     21  C   UNL     1      -0.069   3.839  -0.026  0.00  0.00    +0.008 A 
ATOM     22  C   UNL     1       1.132   3.186   0.177  0.00  0.00    +0.000 A 
ATOM     23  C   UNL     1       1.170   1.805   0.219  0.00  0.00    +0.000 A 
ATOM     24  C   UNL     1       0.006   1.077   0.057  0.00  0.00    +0.004 A 
ATOM     25  C   UNL     1      -1.194   1.730  -0.152  0.00  0.00    -0.043 A 
ATOM     26  C   UNL     1      -2.462   0.936  -0.336  0.00  0.00    +0.044 C 
ENDBRANCH  17  20
BRANCH  10  27
ATOM     27  C   UNL     1      -5.474   3.089   0.595  0.00  0.00    -0.015 A 
ATOM     28  C   UNL     1      -6.205   4.263   0.595  0.00  0.00    +0.006 A 
ATOM     29  C   UNL     1      -7.369   4.355  -0.146  0.00  0.00    +0.004 A 
ATOM     30  C   UNL     1      -7.804   3.274  -0.888  0.00  0.00    +0.045 A 
ATOM     31  C   UNL     1      -7.073   2.095  -0.888  0.00  0.00    +0.120 A 
ATOM     32  C   UNL     1      -5.902   2.007  -0.149  0.00  0.00    +0.051 A 
BRANCH  31  33
ATOM     33  O   UNL     1      -7.499   1.030  -1.617  0.00  0.00    -0.495 OA
ATOM     34  C   UNL     1      -8.709   1.194  -2.359  0.00  0.00    +0.277 C 
ENDBRANCH  31  33
ENDBRANCH  10  27
TORSDOF 3
