REMARK  Name = ZINC07978939
REMARK  5 active torsions:
REMARK  status: ('A' for Active; 'I' for Inactive)
REMARK    1  A    between atoms: C_12  and  C_18
REMARK    2  A    between atoms: C_18  and  O_20
REMARK    3  A    between atoms: O_20  and  C_21
REMARK    4  A    between atoms: C_21  and  C_22
REMARK    5  A    between atoms: C_22  and  C_24
REMARK                            x       y       z     vdW  Elec       q    Type
REMARK                         _______ _______ _______ _____ _____    ______ ____
ROOT
ATOM      1  C   UNL     1      -0.017   1.380   0.010  0.00  0.00    +0.001 A 
ATOM      2  C   UNL     1       1.166   2.096   0.002  0.00  0.00    +0.001 A 
ATOM      3  C   UNL     1       2.384   1.439  -0.013  0.00  0.00    +0.012 A 
ATOM      4  C   UNL     1       2.421   0.048  -0.021  0.00  0.00    +0.033 A 
ATOM      5  C   UNL     1       1.218  -0.681  -0.013  0.00  0.00    +0.033 A 
ATOM      6  C   UNL     1       0.002  -0.004   0.002  0.00  0.00    +0.012 A 
ATOM      7  C   UNL     1       1.249  -2.159  -0.022  0.00  0.00    +0.195 C 
ATOM      8  O   UNL     1       0.210  -2.788  -0.015  0.00  0.00    -0.287 OA
ATOM      9  C   UNL     1       2.547  -2.870  -0.039  0.00  0.00    +0.035 A 
ATOM     10  C   UNL     1       2.580  -4.262  -0.048  0.00  0.00    +0.013 A 
ATOM     11  C   UNL     1       3.791  -4.927  -0.063  0.00  0.00    +0.017 A 
ATOM     12  C   UNL     1       4.988  -4.210  -0.070  0.00  0.00    +0.078 A 
ATOM     13  C   UNL     1       4.968  -2.812  -0.062  0.00  0.00    +0.066 A 
ATOM     14  C   UNL     1       3.749  -2.139  -0.046  0.00  0.00    +0.052 A 
ATOM     15  C   UNL     1       3.717  -0.663  -0.037  0.00  0.00    +0.196 C 
ATOM     16  O   UNL     1       4.756  -0.032  -0.044  0.00  0.00    -0.287 OA
ATOM     17 CL   UNL     1       6.456  -1.919  -0.070  0.00  0.00    -0.082 Cl
ENDROOT
BRANCH  12  18
ATOM     18  C   UNL     1       6.280  -4.930  -0.086  0.00  0.00    +0.341 C 
ATOM     19  O   UNL     1       7.322  -4.306  -0.092  0.00  0.00    -0.245 OA
BRANCH  18  20
ATOM     20  O   UNL     1       6.301  -6.277  -0.094  0.00  0.00    -0.453 OA
BRANCH  20  21
ATOM     21  C   UNL     1       7.583  -6.906  -0.109  0.00  0.00    +0.313 C 
BRANCH  21  22
ATOM     22  C   UNL     1       7.409  -8.402  -0.116  0.00  0.00    +0.216 C 
ATOM     23  O   UNL     1       6.294  -8.884  -0.108  0.00  0.00    -0.287 OA
BRANCH  22  24
ATOM     24  C   UNL     1       8.543  -9.246  -0.131  0.00  0.00    +0.086 A 
ATOM     25  C   UNL     1       9.867  -8.840  -0.135  0.00  0.00    +0.030 A 
ATOM     26  C   UNL     1      10.647  -9.998  -0.151  0.00  0.00    +0.020 A 
ATOM     27  C   UNL     1       9.810 -11.065  -0.156  0.00  0.00    +0.083 A 
ATOM     28  N   UNL     1       8.535 -10.625  -0.138  0.00  0.00    -0.358 N 
ATOM     29  H   UNL     1       7.743 -11.185  -0.134  0.00  0.00    +0.165 HD
ENDBRANCH  22  24
ENDBRANCH  21  22
ENDBRANCH  20  21
ENDBRANCH  18  20
ENDBRANCH  12  18
TORSDOF 5
