REMARK  Name = ZINC64055369
REMARK  8 active torsions:
REMARK  status: ('A' for Active; 'I' for Inactive)
REMARK    1  A    between atoms: C_1  and  C_2
REMARK    2  A    between atoms: C_2  and  C_4
REMARK    3  A    between atoms: C_2  and  S_21
REMARK    4  A    between atoms: N_6  and  C_7
REMARK    5  A    between atoms: C_10  and  S_13
REMARK    6  A    between atoms: S_13  and  N_16
REMARK    7  A    between atoms: S_21  and  C_22
REMARK    8  A    between atoms: C_26  and  C_28
REMARK                            x       y       z     vdW  Elec       q    Type
REMARK                         _______ _______ _______ _____ _____    ______ ____
ROOT
ATOM      1  C   UNL     1      -0.032   1.519   0.015  0.00  0.00    +0.029 C 
ATOM      2  C   UNL     1      -0.000  -0.010   0.003  0.00  0.00    +0.134 C 
ENDROOT
BRANCH   2   3
ATOM      3  C   UNL     1       0.708  -0.488  -1.238  0.00  0.00    +0.230 C 
ATOM      4  O   UNL     1       1.867  -0.839  -1.178  0.00  0.00    -0.274 OA
ATOM      5  N   UNL     1       0.053  -0.526  -2.415  0.00  0.00    -0.285 N 
ATOM      6  H   UNL     1      -0.892  -0.310  -2.452  0.00  0.00    +0.155 HD
BRANCH   5   7
ATOM      7  C   UNL     1       0.736  -0.877  -3.585  0.00  0.00    +0.034 A 
ATOM      8  C   UNL     1       0.406  -0.273  -4.791  0.00  0.00    +0.025 A 
ATOM      9  C   UNL     1       1.082  -0.621  -5.944  0.00  0.00    +0.030 A 
ATOM     10  C   UNL     1       2.086  -1.571  -5.898  0.00  0.00    +0.106 A 
ATOM     11  C   UNL     1       2.416  -2.175  -4.699  0.00  0.00    +0.030 A 
ATOM     12  C   UNL     1       1.748  -1.827  -3.542  0.00  0.00    +0.025 A 
BRANCH  10  13
ATOM     13  S   UNL     1       2.946  -2.013  -7.371  0.00  0.00    +0.061 S 
ATOM     14  O   UNL     1       3.467  -3.318  -7.161  0.00  0.00    -0.153 OA
ATOM     15  O   UNL     1       2.080  -1.704  -8.455  0.00  0.00    -0.153 OA
BRANCH  13  16
ATOM     16  N   UNL     1       4.248  -0.999  -7.501  0.00  0.00    -0.177 NA
ATOM     17  C   UNL     1       4.255   0.304  -8.184  0.00  0.00    +0.109 C 
ATOM     18  C   UNL     1       5.685   0.872  -8.070  0.00  0.00    +0.018 C 
ATOM     19  C   UNL     1       6.545  -0.395  -7.822  0.00  0.00    +0.018 C 
ATOM     20  C   UNL     1       5.591  -1.249  -6.946  0.00  0.00    +0.109 C 
ENDBRANCH  13  16
ENDBRANCH  10  13
ENDBRANCH   5   7
ENDBRANCH   2   3
BRANCH   2  21
ATOM     21  S   UNL     1       0.882  -0.609   1.471  0.00  0.00    -0.084 S 
BRANCH  21  22
ATOM     22  C   UNL     1      -0.166  -0.086   2.856  0.00  0.00    +0.340 C 
ATOM     23  N   UNL     1      -0.344   1.376   2.844  0.00  0.00    -0.219 N 
ATOM     24  N   UNL     1      -1.722   1.585   2.691  0.00  0.00    -0.145 NA
ATOM     25  C   UNL     1      -2.345   0.439   2.616  0.00  0.00    +0.238 C 
ATOM     26  O   UNL     1      -1.492  -0.613   2.708  0.00  0.00    -0.443 OA
ATOM     27  H   UNL     1       0.347   2.052   2.924  0.00  0.00    +0.173 HD
BRANCH  25  28
ATOM     28  C   UNL     1      -3.733   0.310   2.462  0.00  0.00    +0.043 C 
ATOM     29  C   UNL     1      -4.669   1.340   2.356  0.00  0.00    +0.008 A 
ATOM     30  C   UNL     1      -4.546   2.745   2.369  0.00  0.00    +0.010 A 
ATOM     31  C   UNL     1      -5.654   3.520   2.245  0.00  0.00    +0.001 A 
ATOM     32  C   UNL     1      -6.926   2.960   2.103  0.00  0.00    +0.002 A 
ATOM     33  C   UNL     1      -7.118   1.618   2.082  0.00  0.00    +0.026 A 
ATOM     34  C   UNL     1      -6.007   0.744   2.207  0.00  0.00    +0.043 A 
ATOM     35  N   UNL     1      -5.929  -0.572   2.216  0.00  0.00    -0.380 N 
ATOM     36  C   UNL     1      -4.527  -0.973   2.367  0.00  0.00    +0.154 C 
ATOM     37  H   UNL     1      -6.681  -1.179   2.132  0.00  0.00    +0.160 HD
ENDBRANCH  25  28
ENDBRANCH  21  22
ENDBRANCH   2  21
TORSDOF 7
