REMARK  Name = ZINC05952983
REMARK  8 active torsions:
REMARK  status: ('A' for Active; 'I' for Inactive)
REMARK    1  A    between atoms: C_1  and  C_2
REMARK    2  A    between atoms: C_2  and  O_3
REMARK    3  A    between atoms: O_3  and  C_4
REMARK    4  A    between atoms: C_4  and  C_6
REMARK    5  A    between atoms: C_8  and  C_20
REMARK    6  A    between atoms: C_14  and  C_15
REMARK    7  A    between atoms: C_14  and  O_19
REMARK    8  A    between atoms: C_23  and  C_26
REMARK                            x       y       z     vdW  Elec       q    Type
REMARK                         _______ _______ _______ _____ _____    ______ ____
ROOT
ATOM      1  C   UNL     1      -2.128  -2.754   0.585  0.00  0.00    +0.181 C 
ATOM      2  C   UNL     1      -2.787  -3.951  -0.109  0.00  0.00    +0.121 C 
ATOM      3  N   UNL     1      -2.798  -5.092   0.808  0.00  0.00    -0.319 N 
ATOM      4  C   UNL     1      -2.846  -4.918   2.137  0.00  0.00    +0.133 C 
ATOM      5  S   UNL     1      -2.871  -6.300   3.147  0.00  0.00    -0.019 S 
ATOM      6  N   UNL     1      -2.875  -3.704   2.707  0.00  0.00    -0.291 N 
ATOM      7  C   UNL     1      -2.867  -2.479   1.898  0.00  0.00    +0.244 C 
ATOM      8  H   UNL     1      -2.771  -5.992   0.447  0.00  0.00    +0.148 HD
ATOM      9  H   UNL     1      -2.901  -3.633   3.674  0.00  0.00    +0.151 HD
ENDROOT
BRANCH   2  10
ATOM     10  C   UNL     1      -2.007  -4.307  -1.348  0.00  0.00    -0.026 A 
ATOM     11  C   UNL     1      -2.399  -3.804  -2.577  0.00  0.00    +0.006 A 
ATOM     12  C   UNL     1      -1.690  -4.127  -3.715  0.00  0.00    +0.015 A 
ATOM     13  C   UNL     1      -0.574  -4.962  -3.626  0.00  0.00    +0.063 A 
ATOM     14  C   UNL     1      -0.184  -5.465  -2.382  0.00  0.00    +0.015 A 
ATOM     15  C   UNL     1      -0.899  -5.130  -1.252  0.00  0.00    +0.006 A 
BRANCH  13  16
ATOM     16  C   UNL     1       0.189  -5.311  -4.840  0.00  0.00    +0.387 C 
ATOM     17  O   UNL     1      -0.155  -4.870  -5.927  0.00  0.00    -0.241 OA
ATOM     18  O   UNL     1       1.166  -6.043  -4.758  0.00  0.00    -0.241 OA
ENDBRANCH  13  16
ENDBRANCH   2  10
BRANCH   7  19
ATOM     19  C   UNL     1      -4.307  -2.058   1.596  0.00  0.00    +0.436 C 
ATOM     20  F   UNL     1      -4.957  -3.084   0.902  0.00  0.00    -0.166 F 
ATOM     21  F   UNL     1      -4.981  -1.806   2.796  0.00  0.00    -0.166 F 
ATOM     22  F   UNL     1      -4.299  -0.898   0.813  0.00  0.00    -0.166 F 
ENDBRANCH   7  19
BRANCH   1  23
ATOM     23  C   UNL     1      -0.683  -3.070   0.875  0.00  0.00    +0.317 C 
ATOM     24  O   UNL     1      -0.386  -3.671   1.879  0.00  0.00    -0.250 OA
BRANCH  23  25
ATOM     25  O   UNL     1       0.274  -2.684   0.016  0.00  0.00    -0.465 OA
BRANCH  25  27
ATOM     26  C   UNL     1       2.563  -2.498  -0.735  0.00  0.00    +0.048 C 
ATOM     27  C   UNL     1       1.622  -3.017   0.354  0.00  0.00    +0.229 C 
ENDBRANCH  25  27
ENDBRANCH  23  25
ENDBRANCH   1  23
BRANCH   7  28
ATOM     28  O   UNL     1      -2.202  -1.433   2.611  0.00  0.00    -0.364 OA
ATOM     29  H   UNL     1      -2.618  -1.206   3.454  0.00  0.00    +0.212 HD
ENDBRANCH   7  28
TORSDOF 7
