REMARK  Name = ZINC09408773
REMARK  10 active torsions:
REMARK  status: ('A' for Active; 'I' for Inactive)
REMARK    1  A    between atoms: C_1  and  C_2
REMARK    2  A    between atoms: C_2  and  C_3
REMARK    3  A    between atoms: C_2  and  N_60
REMARK    4  A    between atoms: C_4  and  N_60
REMARK    5  A    between atoms: C_10  and  C_12
REMARK    6  A    between atoms: C_10  and  C_24
REMARK    7  A    between atoms: C_10  and  N_60
REMARK    8  A    between atoms: C_12  and  N_13
REMARK    9  A    between atoms: N_13  and  S_14
REMARK   10  A    between atoms: S_14  and  C_17
REMARK                            x       y       z     vdW  Elec       q    Type
REMARK                         _______ _______ _______ _____ _____    ______ ____
ROOT
ATOM      1  C   UNL     1       1.517  -2.630  -2.205  0.00  0.00    -0.021 C 
ENDROOT
BRANCH   1   2
ATOM      2  C   UNL     1       0.950  -1.455  -2.960  0.00  0.00    -0.060 A 
ATOM      3  C   UNL     1      -0.334  -1.016  -2.691  0.00  0.00    +0.002 A 
ATOM      4  C   UNL     1      -0.853   0.064  -3.380  0.00  0.00    +0.000 A 
ATOM      5  C   UNL     1      -0.093   0.699  -4.344  0.00  0.00    +0.000 A 
ATOM      6  C   UNL     1       1.189   0.257  -4.616  0.00  0.00    +0.000 A 
ATOM      7  C   UNL     1       1.710  -0.820  -3.924  0.00  0.00    +0.002 A 
ENDBRANCH   1   2
BRANCH   1   8
ATOM      8  N   UNL     1       1.269  -2.483  -0.756  0.00  0.00    +0.389 N 
ATOM      9  H   UNL     1       1.565  -3.343  -0.278  0.00  0.00    -0.080 HD
BRANCH   8  10
ATOM     10  C   UNL     1       2.048  -1.346  -0.222  0.00  0.00    -0.067 C 
ATOM     11  C   UNL     1       1.553  -1.015   1.187  0.00  0.00    -0.015 C 
ATOM     12  C   UNL     1       2.373   0.144   1.757  0.00  0.00    -0.002 C 
ATOM     13  C   UNL     1       3.849  -0.255   1.815  0.00  0.00    -0.000 C 
ATOM     14  C   UNL     1       4.344  -0.586   0.406  0.00  0.00    -0.002 C 
ATOM     15  C   UNL     1       3.524  -1.745  -0.164  0.00  0.00    -0.015 C 
ENDBRANCH   8  10
BRANCH   8  17
ATOM     16  C   UNL     1      -0.984  -3.171  -1.440  0.00  0.00    -0.013 C 
ATOM     17  C   UNL     1      -0.172  -2.268  -0.509  0.00  0.00    -0.074 C 
ATOM     18  C   UNL     1      -0.479  -2.629   0.946  0.00  0.00    -0.013 C 
ENDBRANCH   8  17
ENDBRANCH   1   8
BRANCH   1  19
ATOM     19  C   UNL     1       0.852  -3.919  -2.693  0.00  0.00    +0.095 C 
BRANCH  19  20
ATOM     20  N   UNL     1       1.030  -4.970  -1.688  0.00  0.00    -0.191 NA
ATOM     21  H   UNL     1       1.684  -4.859  -0.980  0.00  0.00    +0.148 HD
BRANCH  20  22
ATOM     22  S   UNL     1       0.115  -6.348  -1.761  0.00  0.00    +0.058 S 
ATOM     23  O   UNL     1       0.535  -7.172  -0.682  0.00  0.00    -0.153 OA
ATOM     24  O   UNL     1      -1.234  -5.932  -1.922  0.00  0.00    -0.153 OA
BRANCH  22  25
ATOM     25  C   UNL     1       0.562  -7.192  -3.242  0.00  0.00    +0.105 A 
ATOM     26  C   UNL     1      -0.117  -6.931  -4.417  0.00  0.00    +0.030 A 
ATOM     27  C   UNL     1       0.237  -7.589  -5.580  0.00  0.00    +0.022 A 
ATOM     28  C   UNL     1       1.263  -8.517  -5.565  0.00  0.00    +0.041 A 
ATOM     29  C   UNL     1       1.938  -8.782  -4.387  0.00  0.00    +0.022 A 
ATOM     30  C   UNL     1       1.587  -8.119  -3.226  0.00  0.00    +0.030 A 
ATOM     31 CL   UNL     1       1.704  -9.348  -7.024  0.00  0.00    -0.084 Cl
ENDBRANCH  22  25
ENDBRANCH  20  22
ENDBRANCH  19  20
ENDBRANCH   1  19
TORSDOF 8
