REMARK  Name = ZINC03897433
REMARK  6 active torsions:
REMARK  status: ('A' for Active; 'I' for Inactive)
REMARK    1  A    between atoms: C_1  and  C_2
REMARK    2  A    between atoms: C_4  and  O_23
REMARK    3  A    between atoms: C_6  and  O_22
REMARK    4  A    between atoms: C_8  and  O_21
REMARK    5  A    between atoms: C_10  and  N_13
REMARK    6  A    between atoms: N_13  and  C_14
REMARK                            x       y       z     vdW  Elec       q    Type
REMARK                         _______ _______ _______ _____ _____    ______ ____
ROOT
ATOM      1  C   UNL     1      -0.013   1.086   0.008  0.00  0.00    +0.041 C 
ATOM      2  C   UNL     1      -0.729   1.579   1.267  0.00  0.00    +0.149 C 
ATOM      3  C   UNL     1      -0.749   3.110   1.276  0.00  0.00    +0.174 C 
ATOM      4  C   UNL     1      -1.413   3.596   2.568  0.00  0.00    +0.178 C 
ATOM      5  C   UNL     1      -0.657   3.017   3.767  0.00  0.00    +0.192 C 
ATOM      6  C   UNL     1      -0.641   1.490   3.662  0.00  0.00    +0.235 C 
ATOM      7  O   UNL     1      -0.038   1.106   2.425  0.00  0.00    -0.351 OA
ENDROOT
BRANCH   6   8
ATOM      8  N   UNL     1       0.130   0.932   4.776  0.00  0.00    -0.317 N 
ATOM      9  H   UNL     1       0.906   1.405   5.114  0.00  0.00    +0.149 HD
BRANCH   8  10
ATOM     10  C   UNL     1      -0.253  -0.283   5.350  0.00  0.00    +0.029 A 
ATOM     11  C   UNL     1      -1.367  -0.959   4.870  0.00  0.00    +0.024 A 
ATOM     12  C   UNL     1      -1.740  -2.163   5.436  0.00  0.00    +0.022 A 
ATOM     13  C   UNL     1      -1.011  -2.689   6.488  0.00  0.00    +0.041 A 
ATOM     14  C   UNL     1       0.096  -2.015   6.972  0.00  0.00    +0.022 A 
ATOM     15  C   UNL     1       0.477  -0.814   6.406  0.00  0.00    +0.024 A 
ATOM     16 CL   UNL     1      -1.487  -4.198   7.203  0.00  0.00    -0.084 Cl
ENDBRANCH   8  10
ENDBRANCH   6   8
BRANCH   5  17
ATOM     17  O   UNL     1       0.684   3.510   3.770  0.00  0.00    -0.385 OA
ATOM     18  H   UNL     1       1.223   3.180   4.501  0.00  0.00    +0.210 HD
ENDBRANCH   5  17
BRANCH   4  19
ATOM     19  O   UNL     1      -1.370   5.024   2.619  0.00  0.00    -0.386 OA
ATOM     20  H   UNL     1      -1.768   5.401   3.416  0.00  0.00    +0.210 HD
ENDBRANCH   4  19
BRANCH   3  21
ATOM     21  O   UNL     1       0.591   3.605   1.212  0.00  0.00    -0.387 OA
ATOM     22  H   UNL     1       1.074   3.331   0.421  0.00  0.00    +0.210 HD
ENDBRANCH   3  21
TORSDOF 5
