REMARK  Name = ZINC13624182
REMARK  9 active torsions:
REMARK  status: ('A' for Active; 'I' for Inactive)
REMARK    1  A    between atoms: C_1  and  C_2
REMARK    2  A    between atoms: C_9  and  C_31
REMARK    3  A    between atoms: C_10  and  C_16
REMARK    4  A    between atoms: C_16  and  C_17
REMARK    5  A    between atoms: C_17  and  C_18
REMARK    6  A    between atoms: C_18  and  N_20
REMARK    7  A    between atoms: C_24  and  C_30
REMARK    8  A    between atoms: C_25  and  C_27
REMARK    9  A    between atoms: C_27  and  C_29
REMARK                            x       y       z     vdW  Elec       q    Type
REMARK                         _______ _______ _______ _____ _____    ______ ____
ROOT
ATOM      1  C   UNL     1      -0.018   1.503   0.010  0.00  0.00    +0.047 C 
ATOM      2  C   UNL     1       0.002  -0.004   0.002  0.00  0.00    -0.005 A 
ATOM      3  C   UNL     1       0.009  -0.802  -1.073  0.00  0.00    +0.199 A 
ATOM      4  O   UNL     1       0.028  -2.093  -0.695  0.00  0.00    -0.463 OA
ATOM      5  C   UNL     1       0.035  -2.202   0.649  0.00  0.00    +0.139 A 
ATOM      6  C   UNL     1       0.025  -0.893   1.172  0.00  0.00    +0.024 A 
ATOM      7  C   UNL     1       0.035  -0.683   2.544  0.00  0.00    +0.023 A 
ATOM      8  C   UNL     1       0.058  -1.782   3.403  0.00  0.00    +0.022 A 
ATOM      9  C   UNL     1       0.068  -1.597   4.857  0.00  0.00    -0.030 A 
ATOM     10  C   UNL     1       0.090  -2.703   5.644  0.00  0.00    +0.041 A 
ATOM     11  C   UNL     1       0.102  -3.985   5.054  0.00  0.00    +0.341 A 
ATOM     12  O   UNL     1       0.121  -4.968   5.772  0.00  0.00    -0.245 OA
ATOM     13  O   UNL     1       0.092  -4.149   3.722  0.00  0.00    -0.422 OA
ATOM     14  C   UNL     1       0.071  -3.092   2.879  0.00  0.00    +0.143 A 
ATOM     15  C   UNL     1       0.053  -3.290   1.510  0.00  0.00    +0.093 A 
ATOM     16  C   UNL     1       0.056  -0.217   5.462  0.00  0.00    +0.045 C 
ENDROOT
BRANCH  10  17
ATOM     17  C   UNL     1       0.102  -2.562   7.144  0.00  0.00    +0.052 C 
BRANCH  17  18
ATOM     18  C   UNL     1      -1.329  -2.659   7.677  0.00  0.00    +0.103 C 
BRANCH  18  19
ATOM     19  C   UNL     1      -1.318  -2.518   9.177  0.00  0.00    +0.239 C 
ATOM     20  O   UNL     1      -0.265  -2.356   9.765  0.00  0.00    -0.274 OA
BRANCH  19  21
ATOM     21  N   UNL     1      -2.457  -2.571   9.858  0.00  0.00    -0.157 NA
ATOM     22  C   UNL     1      -2.446  -2.447  11.185  0.00  0.00    +0.164 A 
ATOM     23  N   UNL     1      -3.505  -2.480  12.045  0.00  0.00    -0.339 N 
ATOM     24  H   UNL     1      -4.405  -2.608  11.709  0.00  0.00    +0.167 HD
ATOM     25  C   UNL     1      -3.286  -2.334  13.362  0.00  0.00    +0.032 A 
ATOM     26  C   UNL     1      -1.992  -2.159  13.757  0.00  0.00    +0.076 A 
ATOM     27  S   UNL     1      -1.125  -2.218  12.200  0.00  0.00    -0.049 S 
ATOM     28  C   UNL     1      -4.418  -2.363  14.356  0.00  0.00    +0.064 C 
BRANCH  26  29
ATOM     29  C   UNL     1      -1.473  -1.982  15.061  0.00  0.00    +0.168 C 
ATOM     30  O   UNL     1      -0.279  -1.839  15.225  0.00  0.00    -0.292 OA
ATOM     31  C   UNL     1      -2.403  -1.972  16.247  0.00  0.00    +0.092 C 
ENDBRANCH  26  29
ENDBRANCH  19  21
ENDBRANCH  18  19
ENDBRANCH  17  18
ENDBRANCH  10  17
TORSDOF 5
