REMARK  Name = ZINC13212967
REMARK  9 active torsions:
REMARK  status: ('A' for Active; 'I' for Inactive)
REMARK    1  A    between atoms: C_4  and  N_9
REMARK    2  A    between atoms: C_5  and  C_7
REMARK    3  A    between atoms: N_9  and  S_10
REMARK    4  A    between atoms: S_10  and  C_13
REMARK    5  A    between atoms: C_16  and  N_22
REMARK    6  A    between atoms: C_17  and  N_19
REMARK    7  A    between atoms: N_22  and  C_23
REMARK    8  A    between atoms: C_23  and  C_24
REMARK    9  A    between atoms: C_24  and  C_25
REMARK                            x       y       z     vdW  Elec       q    Type
REMARK                         _______ _______ _______ _____ _____    ______ ____
ROOT
ATOM      1  C   UNL     1       3.345   3.595  -0.407  0.00  0.00    +0.111 A 
ATOM      2  C   UNL     1       3.209   2.239  -0.173  0.00  0.00    +0.031 A 
ATOM      3  C   UNL     1       1.956   1.692   0.019  0.00  0.00    +0.027 A 
ATOM      4  C   UNL     1       0.830   2.506  -0.024  0.00  0.00    +0.058 A 
ATOM      5  C   UNL     1       0.970   3.866  -0.265  0.00  0.00    +0.149 A 
ATOM      6  C   UNL     1       2.227   4.408  -0.450  0.00  0.00    +0.063 A 
ENDROOT
BRANCH   1   7
ATOM      7  S   UNL     1       4.946   4.289  -0.651  0.00  0.00    +0.072 S 
ATOM      8  O   UNL     1       4.848   5.665  -0.310  0.00  0.00    -0.150 OA
ATOM      9  O   UNL     1       5.869   3.412  -0.021  0.00  0.00    -0.150 OA
BRANCH   7  10
ATOM     10  N   UNL     1       5.265   4.226  -2.275  0.00  0.00    -0.215 N 
ATOM     11  H   UNL     1       6.032   3.727  -2.599  0.00  0.00    +0.174 HD
BRANCH  10  15
ATOM     12  C   UNL     1       2.775   6.206  -4.965  0.00  0.00    +0.001 A 
ATOM     13  C   UNL     1       3.026   6.749  -3.714  0.00  0.00    +0.002 A 
ATOM     14  C   UNL     1       3.846   6.093  -2.819  0.00  0.00    +0.025 A 
ATOM     15  C   UNL     1       4.436   4.885  -3.171  0.00  0.00    +0.062 A 
ATOM     16  C   UNL     1       4.183   4.332  -4.437  0.00  0.00    +0.085 A 
ATOM     17  C   UNL     1       3.346   5.007  -5.330  0.00  0.00    +0.017 A 
BRANCH  16  18
ATOM     18  C   UNL     1       4.797   3.049  -4.821  0.00  0.00    +0.388 C 
ATOM     19  O   UNL     1       5.524   2.466  -4.042  0.00  0.00    -0.241 OA
ATOM     20  O   UNL     1       4.552   2.523  -6.037  0.00  0.00    -0.241 OA
ENDBRANCH  16  18
ENDBRANCH  10  15
ENDBRANCH   7  10
ENDBRANCH   1   7
BRANCH   5  21
ATOM     21  N   UNL     1      -0.227   4.736  -0.318  0.00  0.00    +0.058 N 
ATOM     22  O   UNL     1      -1.252   4.331  -0.837  0.00  0.00    -0.126 OA
ATOM     23  O   UNL     1      -0.187   5.856   0.158  0.00  0.00    -0.126 OA
ENDBRANCH   5  21
BRANCH   4  24
ATOM     24  N   UNL     1      -0.439   1.955   0.170  0.00  0.00    -0.342 N 
ATOM     25  H   UNL     1      -1.213   2.536   0.244  0.00  0.00    +0.146 HD
BRANCH  24  26
ATOM     26  C   UNL     1      -0.602   0.502   0.256  0.00  0.00    +0.106 C 
BRANCH  26  27
ATOM     27  C   UNL     1      -2.080   0.166   0.468  0.00  0.00    +0.054 C 
BRANCH  27  28
ATOM     28  C   UNL     1      -2.248  -1.329   0.555  0.00  0.00    -0.043 A 
ATOM     29  C   UNL     1      -2.489  -2.065  -0.590  0.00  0.00    +0.004 A 
ATOM     30  C   UNL     1      -2.638  -3.437  -0.511  0.00  0.00    +0.003 A 
ATOM     31  C   UNL     1      -2.557  -4.073   0.714  0.00  0.00    +0.038 A 
ATOM     32  C   UNL     1      -2.321  -3.336   1.861  0.00  0.00    +0.124 A 
ATOM     33  C   UNL     1      -2.166  -1.962   1.781  0.00  0.00    +0.042 A 
ATOM     34  F   UNL     1      -2.242  -3.956   3.059  0.00  0.00    -0.205 F 
ENDBRANCH  27  28
ENDBRANCH  26  27
ENDBRANCH  24  26
ENDBRANCH   4  24
TORSDOF 9
