REMARK  Name = ZINC25530537
REMARK  9 active torsions:
REMARK  status: ('A' for Active; 'I' for Inactive)
REMARK    1  A    between atoms: C_1  and  C_2
REMARK    2  A    between atoms: C_2  and  C_4
REMARK    3  A    between atoms: C_2  and  N_18
REMARK    4  A    between atoms: N_6  and  C_7
REMARK    5  A    between atoms: C_8  and  C_15
REMARK    6  A    between atoms: C_24  and  C_26
REMARK    7  A    between atoms: C_26  and  C_27
REMARK    8  A    between atoms: C_27  and  C_28
REMARK    9  A    between atoms: C_27  and  C_29
REMARK                            x       y       z     vdW  Elec       q    Type
REMARK                         _______ _______ _______ _____ _____    ______ ____
ROOT
ATOM      1  C   UNL     1       0.731  -0.503   1.223  0.00  0.00    +0.235 C 
ATOM      2  O   UNL     1       1.725  -1.186   1.099  0.00  0.00    -0.274 OA
ATOM      3  N   UNL     1       0.278  -0.191   2.453  0.00  0.00    -0.278 N 
ATOM      4  H   UNL     1      -0.517   0.356   2.553  0.00  0.00    +0.155 HD
ENDROOT
BRANCH   3   5
ATOM      5  C   UNL     1       0.949  -0.650   3.576  0.00  0.00    +0.084 A 
ATOM      6  C   UNL     1       0.629  -0.436   4.904  0.00  0.00    +0.068 A 
ATOM      7  C   UNL     1       1.505  -1.035   5.910  0.00  0.00    -0.023 A 
ATOM      8  C   UNL     1       2.533  -1.733   5.395  0.00  0.00    -0.004 A 
ATOM      9  S   UNL     1       2.330  -1.599   3.637  0.00  0.00    -0.077 S 
ATOM     10  C   UNL     1       3.404  -2.324   6.470  0.00  0.00    +0.043 C 
ATOM     11  C   UNL     1       3.027  -1.546   7.750  0.00  0.00    +0.010 C 
ATOM     12  C   UNL     1       1.585  -1.099   7.433  0.00  0.00    +0.037 C 
BRANCH   6  13
ATOM     13  C   UNL     1      -0.541   0.361   5.289  0.00  0.00    +0.244 C 
ATOM     14  O   UNL     1      -1.620  -0.179   5.446  0.00  0.00    -0.270 OA
ATOM     15  N   UNL     1      -0.420   1.691   5.468  0.00  0.00    -0.325 N 
ATOM     16  H   UNL     1       0.440   2.122   5.342  0.00  0.00    +0.145 HD
ATOM     17  H   UNL     1      -1.194   2.218   5.722  0.00  0.00    +0.145 HD
ENDBRANCH   6  13
ENDBRANCH   3   5
BRANCH   1  19
ATOM     18  C   UNL     1      -0.019   1.526   0.010  0.00  0.00    +0.034 C 
ATOM     19  C   UNL     1       0.002  -0.004   0.002  0.00  0.00    +0.140 C 
BRANCH  19  20
ATOM     20  N   UNL     1       0.690  -0.478  -1.207  0.00  0.00    -0.289 NA
ATOM     21  C   UNL     1       2.069   0.026  -1.259  0.00  0.00    +0.104 C 
ATOM     22  C   UNL     1       2.805  -0.632  -2.431  0.00  0.00    +0.123 C 
ATOM     23  N   UNL     1       2.018  -0.420  -3.656  0.00  0.00    -0.299 N 
ATOM     24  C   UNL     1       0.590  -0.774  -3.635  0.00  0.00    +0.123 C 
ATOM     25  C   UNL     1      -0.059  -0.110  -2.416  0.00  0.00    +0.104 C 
ATOM     26  C   UNL     1       2.590   0.085  -4.767  0.00  0.00    +0.216 C 
ATOM     27  O   UNL     1       3.768   0.371  -4.766  0.00  0.00    -0.276 OA
BRANCH  26  28
ATOM     28  C   UNL     1       1.765   0.294  -6.010  0.00  0.00    +0.099 C 
BRANCH  28  29
ATOM     29  C   UNL     1       2.648   0.874  -7.117  0.00  0.00    -0.008 C 
ATOM     30  C   UNL     1       1.843   0.970  -8.415  0.00  0.00    +0.008 C 
ATOM     31  C   UNL     1       3.127   2.268  -6.710  0.00  0.00    +0.008 C 
ENDBRANCH  28  29
ENDBRANCH  26  28
ENDBRANCH  19  20
ENDBRANCH   1  19
TORSDOF 6
