REMARK  Name = ZINC08861437
REMARK  9 active torsions:
REMARK  status: ('A' for Active; 'I' for Inactive)
REMARK    1  A    between atoms: C_1  and  C_2
REMARK    2  A    between atoms: C_5  and  S_8
REMARK    3  A    between atoms: S_8  and  N_11
REMARK    4  A    between atoms: C_13  and  C_20
REMARK    5  A    between atoms: N_21  and  N_22
REMARK    6  A    between atoms: C_23  and  C_25
REMARK    7  A    between atoms: C_25  and  C_26
REMARK    8  A    between atoms: C_25  and  C_32
REMARK    9  A    between atoms: C_25  and  O_38
REMARK                            x       y       z     vdW  Elec       q    Type
REMARK                         _______ _______ _______ _____ _____    ______ ____
ROOT
ATOM      1  C   UNL     1      -5.000   5.750   4.270  0.00  0.00    +0.140 C 
ATOM      2  N   UNL     1      -5.632   6.579   3.496  0.00  0.00    -0.188 NA
ENDROOT
BRANCH   1   5
ATOM      3  N   UNL     1      -5.822   4.479   7.596  0.00  0.00    -0.218 N 
ATOM      4  C   UNL     1      -5.015   4.551   6.500  0.00  0.00    +0.122 A 
ATOM      5  C   UNL     1      -5.559   5.399   5.585  0.00  0.00    +0.022 A 
ATOM      6  C   UNL     1      -6.817   5.897   6.170  0.00  0.00    +0.010 A 
ATOM      7  C   UNL     1      -6.928   5.286   7.429  0.00  0.00    +0.073 A 
ATOM      8  C   UNL     1      -8.030   5.567   8.229  0.00  0.00    +0.028 A 
ATOM      9  C   UNL     1      -9.000   6.438   7.782  0.00  0.00    +0.002 A 
ATOM     10  C   UNL     1      -8.892   7.036   6.536  0.00  0.00    +0.001 A 
ATOM     11  C   UNL     1      -7.805   6.776   5.731  0.00  0.00    +0.011 A 
BRANCH   3  12
ATOM     12  S   UNL     1      -5.518   3.555   8.936  0.00  0.00    +0.084 S 
ATOM     13  O   UNL     1      -6.711   2.836   9.214  0.00  0.00    -0.148 OA
ATOM     14  O   UNL     1      -4.273   2.908   8.709  0.00  0.00    -0.148 OA
BRANCH  12  19
ATOM     15  C   UNL     1      -4.672   7.342  13.557  0.00  0.00    +0.044 C 
ATOM     16  C   UNL     1      -4.883   6.396  12.404  0.00  0.00    -0.050 A 
ATOM     17  C   UNL     1      -6.152   5.928  12.117  0.00  0.00    +0.005 A 
ATOM     18  C   UNL     1      -6.346   5.061  11.058  0.00  0.00    +0.029 A 
ATOM     19  C   UNL     1      -5.271   4.661  10.286  0.00  0.00    +0.111 A 
ATOM     20  C   UNL     1      -4.001   5.125  10.576  0.00  0.00    +0.029 A 
ATOM     21  C   UNL     1      -3.808   5.995  11.632  0.00  0.00    +0.005 A 
ENDBRANCH  12  19
ENDBRANCH   3  12
ENDBRANCH   1   5
BRANCH   2  22
ATOM     22  N   UNL     1      -5.100   6.913   2.243  0.00  0.00    -0.204 N 
ATOM     23  C   UNL     1      -5.757   7.774   1.440  0.00  0.00    +0.273 C 
ATOM     24  O   UNL     1      -6.808   8.259   1.802  0.00  0.00    -0.270 OA
ATOM     25  H   UNL     1      -4.260   6.525   1.954  0.00  0.00    +0.177 HD
BRANCH  23  26
ATOM     26  C   UNL     1      -5.184   8.133   0.093  0.00  0.00    +0.194 C 
BRANCH  26  27
ATOM     27  C   UNL     1      -6.297   8.566  -0.826  0.00  0.00    -0.003 A 
ATOM     28  C   UNL     1      -6.596   7.818  -1.950  0.00  0.00    +0.007 A 
ATOM     29  C   UNL     1      -7.620   8.213  -2.791  0.00  0.00    +0.000 A 
ATOM     30  C   UNL     1      -8.339   9.361  -2.513  0.00  0.00    +0.000 A 
ATOM     31  C   UNL     1      -8.036  10.112  -1.392  0.00  0.00    +0.000 A 
ATOM     32  C   UNL     1      -7.016   9.714  -0.549  0.00  0.00    +0.007 A 
ENDBRANCH  26  27
BRANCH  26  33
ATOM     33  C   UNL     1      -4.196   9.260   0.251  0.00  0.00    -0.003 A 
ATOM     34  C   UNL     1      -4.470  10.302   1.117  0.00  0.00    +0.007 A 
ATOM     35  C   UNL     1      -3.561  11.333   1.266  0.00  0.00    +0.000 A 
ATOM     36  C   UNL     1      -2.384  11.327   0.541  0.00  0.00    +0.000 A 
ATOM     37  C   UNL     1      -2.113  10.288  -0.329  0.00  0.00    +0.000 A 
ATOM     38  C   UNL     1      -3.019   9.254  -0.474  0.00  0.00    +0.007 A 
ENDBRANCH  26  33
BRANCH  26  39
ATOM     39  O   UNL     1      -4.524   6.994  -0.463  0.00  0.00    -0.371 OA
ATOM     40  H   UNL     1      -5.100   6.229  -0.593  0.00  0.00    +0.212 HD
ENDBRANCH  26  39
ENDBRANCH  23  26
ENDBRANCH   2  22
TORSDOF 8
