REMARK  Name = ZINC16682659
REMARK  16 active torsions:
REMARK  status: ('A' for Active; 'I' for Inactive)
REMARK    1  A    between atoms: C_1  and  C_2
REMARK    2  A    between atoms: C_2  and  O_3
REMARK    3  A    between atoms: O_3  and  C_4
REMARK    4  A    between atoms: C_4  and  C_6
REMARK    5  A    between atoms: C_8  and  C_29
REMARK    6  A    between atoms: C_9  and  C_24
REMARK    7  A    between atoms: C_11  and  C_19
REMARK    8  A    between atoms: C_11  and  O_23
REMARK    9  A    between atoms: C_13  and  C_14
REMARK   10  A    between atoms: C_13  and  O_18
REMARK   11  A    between atoms: C_24  and  O_26
REMARK   12  A    between atoms: O_26  and  C_27
REMARK   13  A    between atoms: C_27  and  C_28
REMARK   14  A    between atoms: C_32  and  N_35
REMARK   15  A    between atoms: N_35  and  C_36
REMARK   16  A    between atoms: N_35  and  C_37
REMARK                            x       y       z     vdW  Elec       q    Type
REMARK                         _______ _______ _______ _____ _____    ______ ____
ROOT
ATOM      1  C   UNL     1      -3.145  -2.548  -1.034  0.00  0.00    +0.162 C 
ATOM      2  C   UNL     1      -3.019  -4.072  -0.958  0.00  0.00    +0.055 C 
ATOM      3  C   UNL     1      -4.211  -4.637  -0.180  0.00  0.00    +0.162 C 
ATOM      4  C   UNL     1      -4.250  -4.004   1.213  0.00  0.00    +0.230 C 
ATOM      5  N   UNL     1      -4.372  -2.546   1.086  0.00  0.00    -0.245 NA
ATOM      6  C   UNL     1      -3.215  -1.975   0.383  0.00  0.00    +0.230 C 
ATOM      7  H   UNL     1      -5.234  -2.293   0.627  0.00  0.00    +0.128 HD
ENDROOT
BRANCH   2   8
ATOM      8  C   UNL     1      -3.010  -4.647  -2.351  0.00  0.00    -0.042 A 
ATOM      9  C   UNL     1      -4.088  -4.437  -3.191  0.00  0.00    +0.006 A 
ATOM     10  C   UNL     1      -4.083  -4.962  -4.468  0.00  0.00    +0.023 A 
ATOM     11  C   UNL     1      -2.993  -5.702  -4.909  0.00  0.00    +0.029 A 
ATOM     12  C   UNL     1      -1.911  -5.911  -4.063  0.00  0.00    +0.023 A 
ATOM     13  C   UNL     1      -1.921  -5.378  -2.788  0.00  0.00    +0.006 A 
BRANCH  11  14
ATOM     14  N   UNL     1      -2.984  -6.235  -6.200  0.00  0.00    -0.336 N 
ATOM     15  C   UNL     1      -4.072  -5.920  -7.130  0.00  0.00    +0.129 C 
ATOM     16  C   UNL     1      -1.887  -7.108  -6.625  0.00  0.00    +0.129 C 
ENDBRANCH  11  14
ENDBRANCH   2   8
BRANCH   6  17
ATOM     17  C   UNL     1      -3.361  -0.454   0.311  0.00  0.00    +0.433 C 
ATOM     18  F   UNL     1      -4.469  -0.129  -0.479  0.00  0.00    -0.166 F 
ATOM     19  F   UNL     1      -3.541   0.059   1.600  0.00  0.00    -0.166 F 
ATOM     20  F   UNL     1      -2.207   0.099  -0.254  0.00  0.00    -0.166 F 
ENDBRANCH   6  17
BRANCH   4  21
ATOM     21  C   UNL     1      -5.452  -4.550   1.987  0.00  0.00    +0.433 C 
ATOM     22  F   UNL     1      -5.329  -5.937   2.122  0.00  0.00    -0.166 F 
ATOM     23  F   UNL     1      -5.496  -3.960   3.255  0.00  0.00    -0.166 F 
ATOM     24  F   UNL     1      -6.629  -4.251   1.293  0.00  0.00    -0.166 F 
ENDBRANCH   4  21
BRANCH   1  25
ATOM     25  C   UNL     1      -1.945  -1.980  -1.747  0.00  0.00    +0.315 C 
ATOM     26  O   UNL     1      -0.852  -2.464  -1.571  0.00  0.00    -0.250 OA
BRANCH  25  27
ATOM     27  O   UNL     1      -2.091  -0.936  -2.578  0.00  0.00    -0.465 OA
BRANCH  27  29
ATOM     28  C   UNL     1      -1.273   0.734  -4.122  0.00  0.00    +0.048 C 
ATOM     29  C   UNL     1      -0.911  -0.448  -3.221  0.00  0.00    +0.229 C 
ENDBRANCH  27  29
ENDBRANCH  25  27
ENDBRANCH   1  25
BRANCH   6  30
ATOM     30  O   UNL     1      -2.019  -2.305   1.091  0.00  0.00    -0.366 OA
ATOM     31  H   UNL     1      -1.994  -1.973   1.999  0.00  0.00    +0.212 HD
ENDBRANCH   6  30
BRANCH   4  32
ATOM     32  O   UNL     1      -3.047  -4.322   1.915  0.00  0.00    -0.366 OA
ATOM     33  H   UNL     1      -3.003  -3.953   2.808  0.00  0.00    +0.212 HD
ENDBRANCH   4  32
BRANCH   3  34
ATOM     34  C   UNL     1      -4.066  -6.131  -0.050  0.00  0.00    +0.315 C 
ATOM     35  O   UNL     1      -2.967  -6.625   0.041  0.00  0.00    -0.250 OA
BRANCH  34  36
ATOM     36  O   UNL     1      -5.157  -6.913  -0.037  0.00  0.00    -0.465 OA
BRANCH  36  37
ATOM     37  C   UNL     1      -4.944  -8.320   0.089  0.00  0.00    +0.229 C 
ATOM     38  C   UNL     1      -6.294  -9.042   0.085  0.00  0.00    +0.048 C 
ENDBRANCH  36  37
ENDBRANCH  34  36
ENDBRANCH   3  34
TORSDOF 12
