REMARK  Name = ZINC39350557
REMARK  10 active torsions:
REMARK  status: ('A' for Active; 'I' for Inactive)
REMARK    1  A    between atoms: C_1  and  C_2
REMARK    2  A    between atoms: C_5  and  C_8
REMARK    3  A    between atoms: C_8  and  O_10
REMARK    4  A    between atoms: O_10  and  C_11
REMARK    5  A    between atoms: C_12  and  O_30
REMARK    6  A    between atoms: C_14  and  C_18
REMARK    7  A    between atoms: N_19  and  N_20
REMARK    8  A    between atoms: C_21  and  C_23
REMARK    9  A    between atoms: C_26  and  C_29
REMARK   10  A    between atoms: O_30  and  C_31
REMARK                            x       y       z     vdW  Elec       q    Type
REMARK                         _______ _______ _______ _____ _____    ______ ____
ROOT
ATOM      1  C   UNL     1       0.090  -6.288   1.087  0.00  0.00    +0.187 A 
ATOM      2  C   UNL     1      -1.109  -6.998   1.059  0.00  0.00    +0.164 A 
ATOM      3  C   UNL     1      -1.093  -8.379   1.002  0.00  0.00    +0.059 A 
ATOM      4  C   UNL     1       0.126  -9.061   0.974  0.00  0.00    -0.001 A 
ATOM      5  C   UNL     1       1.325  -8.343   1.002  0.00  0.00    +0.028 A 
ATOM      6  C   UNL     1       1.302  -6.964   1.052  0.00  0.00    +0.064 A 
ATOM      7 BR   UNL     1       2.925  -5.994   1.082  0.00  0.00    -0.046 Br
ENDROOT
BRANCH   4   8
ATOM      8  C   UNL     1       0.148 -10.534   0.914  0.00  0.00    +0.138 C 
ATOM      9  N   UNL     1       1.282 -11.165   0.887  0.00  0.00    -0.188 NA
BRANCH   9  10
ATOM     10  N   UNL     1       1.303 -12.565   0.831  0.00  0.00    -0.205 N 
ATOM     11  C   UNL     1       2.480 -13.220   0.803  0.00  0.00    +0.262 C 
ATOM     12  O   UNL     1       3.521 -12.599   0.826  0.00  0.00    -0.271 OA
ATOM     13  H   UNL     1       0.470 -13.062   0.811  0.00  0.00    +0.177 HD
BRANCH  11  14
ATOM     14  C   UNL     1       2.502 -14.726   0.742  0.00  0.00    +0.240 C 
ATOM     15  C   UNL     1       2.325 -15.322   2.127  0.00  0.00    +0.035 C 
ATOM     16  C   UNL     1       3.454 -16.004   2.331  0.00  0.00    +0.059 C 
ATOM     17  N   UNL     1       4.278 -15.898   1.264  0.00  0.00    -0.159 NA
ATOM     18  N   UNL     1       3.833 -15.211   0.336  0.00  0.00    -0.170 NA
ATOM     19  C   UNL     1       3.768 -16.785   3.580  0.00  0.00    +0.067 C 
ENDBRANCH  11  14
ENDBRANCH   9  10
ENDBRANCH   4   8
BRANCH   2  20
ATOM     20  O   UNL     1      -2.294  -6.332   1.088  0.00  0.00    -0.491 OA
ATOM     21  C   UNL     1      -3.483  -7.123   1.056  0.00  0.00    +0.277 C 
ENDBRANCH   2  20
BRANCH   1  22
ATOM     22  O   UNL     1       0.073  -4.930   1.141  0.00  0.00    -0.417 OA
BRANCH  22  23
ATOM     23  C   UNL     1       0.058  -4.250  -0.021  0.00  0.00    +0.345 C 
ATOM     24  O   UNL     1       0.061  -4.852  -1.077  0.00  0.00    -0.245 OA
BRANCH  23  29
ATOM     25  C   UNL     1      -0.018   1.503   0.010  0.00  0.00    +0.044 C 
ATOM     26  C   UNL     1       0.002  -0.004   0.002  0.00  0.00    -0.050 A 
ATOM     27  C   UNL     1       0.006  -0.686  -1.202  0.00  0.00    +0.004 A 
ATOM     28  C   UNL     1       0.024  -2.065  -1.217  0.00  0.00    +0.015 A 
ATOM     29  C   UNL     1       0.039  -2.773  -0.013  0.00  0.00    +0.059 A 
ATOM     30  C   UNL     1       0.036  -2.079   1.198  0.00  0.00    +0.015 A 
ATOM     31  C   UNL     1       0.023  -0.699   1.198  0.00  0.00    +0.004 A 
ENDBRANCH  23  29
ENDBRANCH  22  23
ENDBRANCH   1  22
TORSDOF 7
