REMARK  Name = ZINC34979310
REMARK  3 active torsions:
REMARK  status: ('A' for Active; 'I' for Inactive)
REMARK    1  A    between atoms: C_9  and  N_12
REMARK    2  A    between atoms: N_12  and  C_13
REMARK    3  A    between atoms: C_16  and  N_19
REMARK                            x       y       z     vdW  Elec       q    Type
REMARK                         _______ _______ _______ _____ _____    ______ ____
ROOT
ATOM      1  N   UNL     1       4.868  -2.832  -0.260  0.00  0.00    -0.341 N 
ATOM      2  H   UNL     1       5.021  -3.325   0.561  0.00  0.00    +0.146 HD
ENDROOT
BRANCH   1  11
ATOM      3  C   UNL     1      -0.017   1.375   0.010  0.00  0.00    +0.000 A 
ATOM      4  C   UNL     1       1.174   2.078   0.002  0.00  0.00    +0.000 A 
ATOM      5  C   UNL     1       2.372   1.395  -0.010  0.00  0.00    +0.004 A 
ATOM      6  C   UNL     1       2.393   0.006  -0.017  0.00  0.00    -0.042 A 
ATOM      7  C   UNL     1       1.208  -0.694  -0.015  0.00  0.00    -0.044 A 
ATOM      8  C   UNL     1       0.002  -0.004   0.002  0.00  0.00    +0.004 A 
ATOM      9  C   UNL     1       1.155  -2.199  -0.038  0.00  0.00    +0.037 C 
ATOM     10  C   UNL     1       2.501  -2.790   0.375  0.00  0.00    +0.027 C 
ATOM     11  C   UNL     1       3.599  -2.130  -0.467  0.00  0.00    +0.075 C 
ATOM     12  C   UNL     1       3.737  -0.675  -0.023  0.00  0.00    +0.057 C 
ENDBRANCH   1  11
BRANCH   1  13
ATOM     13  C   UNL     1       5.857  -2.791  -1.245  0.00  0.00    +0.027 A 
ATOM     14  C   UNL     1       5.642  -2.079  -2.419  0.00  0.00    +0.025 A 
ATOM     15  C   UNL     1       6.622  -2.040  -3.391  0.00  0.00    +0.034 A 
ATOM     16  C   UNL     1       7.818  -2.708  -3.196  0.00  0.00    +0.126 A 
ATOM     17  C   UNL     1       8.036  -3.416  -2.029  0.00  0.00    +0.034 A 
ATOM     18  C   UNL     1       7.062  -3.455  -1.051  0.00  0.00    +0.025 A 
BRANCH  16  19
ATOM     19  N   UNL     1       8.866  -2.663  -4.240  0.00  0.00    +0.056 N 
ATOM     20  O   UNL     1       8.677  -2.045  -5.261  0.00  0.00    -0.126 OA
ATOM     21  O   UNL     1       9.912  -3.247  -4.072  0.00  0.00    -0.126 OA
ENDBRANCH  16  19
ENDBRANCH   1  13
TORSDOF 3
