REMARK  Name = ZINC39655060
REMARK  8 active torsions:
REMARK  status: ('A' for Active; 'I' for Inactive)
REMARK    1  A    between atoms: C_1  and  C_2
REMARK    2  A    between atoms: C_5  and  N_9
REMARK    3  A    between atoms: C_10  and  C_12
REMARK    4  A    between atoms: C_12  and  O_13
REMARK    5  A    between atoms: O_13  and  C_14
REMARK    6  A    between atoms: C_14  and  C_16
REMARK    7  A    between atoms: N_22  and  S_23
REMARK    8  A    between atoms: S_23  and  C_26
REMARK                            x       y       z     vdW  Elec       q    Type
REMARK                         _______ _______ _______ _____ _____    ______ ____
ROOT
ATOM      1  C   UNL     1       0.011  -8.508  -2.572  0.00  0.00    +0.327 C 
ATOM      2  O   UNL     1       0.991  -8.498  -1.866  0.00  0.00    -0.249 OA
ENDROOT
BRANCH   1   3
ATOM      3  C   UNL     1       0.060  -9.180  -3.920  0.00  0.00    +0.188 C 
ATOM      4  C   UNL     1       1.396  -8.866  -4.602  0.00  0.00    +0.032 C 
ATOM      5  C   UNL     1       1.498  -9.662  -5.905  0.00  0.00    +0.003 C 
ATOM      6  C   UNL     1       1.453 -11.160  -5.595  0.00  0.00    +0.017 C 
ATOM      7  C   UNL     1       0.118 -11.499  -4.925  0.00  0.00    +0.110 C 
ATOM      8  N   UNL     1      -0.058 -10.634  -3.750  0.00  0.00    -0.163 NA
BRANCH   8   9
ATOM      9  S   UNL     1      -0.377 -11.286  -2.261  0.00  0.00    +0.062 S 
ATOM     10  O   UNL     1      -0.865 -10.227  -1.450  0.00  0.00    -0.153 OA
ATOM     11  O   UNL     1      -1.121 -12.475  -2.490  0.00  0.00    -0.153 OA
BRANCH   9  12
ATOM     12  C   UNL     1       1.165 -11.783  -1.568  0.00  0.00    +0.106 A 
ATOM     13  C   UNL     1       1.649 -13.056  -1.801  0.00  0.00    +0.028 A 
ATOM     14  C   UNL     1       2.859 -13.446  -1.257  0.00  0.00    +0.002 A 
ATOM     15  C   UNL     1       3.584 -12.562  -0.480  0.00  0.00    +0.000 A 
ATOM     16  C   UNL     1       3.100 -11.288  -0.248  0.00  0.00    +0.002 A 
ATOM     17  C   UNL     1       1.893 -10.897  -0.796  0.00  0.00    +0.028 A 
ENDBRANCH   9  12
ENDBRANCH   8   9
ENDBRANCH   1   3
BRANCH   1  18
ATOM     18  O   UNL     1      -1.122  -7.920  -2.156  0.00  0.00    -0.454 OA
BRANCH  18  19
ATOM     19  C   UNL     1      -1.097  -7.302  -0.868  0.00  0.00    +0.328 C 
BRANCH  19  21
ATOM     20  N   UNL     1      -2.659  -6.060   0.594  0.00  0.00    -0.282 N 
ATOM     21  C   UNL     1      -2.447  -6.700  -0.574  0.00  0.00    +0.255 C 
ATOM     22  O   UNL     1      -3.342  -6.791  -1.387  0.00  0.00    -0.272 OA
ATOM     23  H   UNL     1      -1.925  -5.924   1.213  0.00  0.00    +0.155 HD
BRANCH  20  28
ATOM     24  C   UNL     1      -7.848  -4.165   1.887  0.00  0.00    +0.044 C 
ATOM     25  C   UNL     1      -6.470  -4.667   1.543  0.00  0.00    -0.049 A 
ATOM     26  C   UNL     1      -6.314  -5.650   0.583  0.00  0.00    +0.005 A 
ATOM     27  C   UNL     1      -5.052  -6.114   0.266  0.00  0.00    +0.025 A 
ATOM     28  C   UNL     1      -3.939  -5.592   0.912  0.00  0.00    +0.048 A 
ATOM     29  C   UNL     1      -4.099  -4.604   1.876  0.00  0.00    +0.039 A 
ATOM     30  C   UNL     1      -5.364  -4.141   2.185  0.00  0.00    +0.020 A 
ATOM     31 BR   UNL     1      -2.588  -3.890   2.760  0.00  0.00    -0.048 Br
ENDBRANCH  20  28
ENDBRANCH  19  21
ENDBRANCH  18  19
ENDBRANCH   1  18
TORSDOF 7
