REMARK  Name = ZINC12999895
REMARK  5 active torsions:
REMARK  status: ('A' for Active; 'I' for Inactive)
REMARK    1  A    between atoms: C_6  and  C_7
REMARK    2  A    between atoms: C_13  and  C_15
REMARK    3  A    between atoms: C_15  and  N_16
REMARK    4  A    between atoms: N_20  and  S_23
REMARK    5  A    between atoms: S_23  and  C_26
REMARK                            x       y       z     vdW  Elec       q    Type
REMARK                         _______ _______ _______ _____ _____    ______ ____
ROOT
ATOM      1  N   UNL     1      -8.278  -1.726   0.062  0.00  0.00    +0.386 N 
ATOM      2  C   UNL     1      -8.051  -2.529  -1.137  0.00  0.00    -0.077 C 
ATOM      3  C   UNL     1      -8.424  -3.967  -0.853  0.00  0.00    -0.001 C 
ATOM      4  C   UNL     1      -9.885  -4.210  -1.274  0.00  0.00    +0.107 C 
ATOM      5  N   UNL     1     -10.737  -3.056  -0.925  0.00  0.00    -0.178 NA
ATOM      6  C   UNL     1     -10.609  -2.351   0.334  0.00  0.00    +0.091 C 
ATOM      7  C   UNL     1      -9.584  -1.202   0.189  0.00  0.00    -0.061 C 
ATOM      8  H   UNL     1      -8.085  -2.301   0.868  0.00  0.00    -0.081 HD
ENDROOT
BRANCH   5   9
ATOM      9  S   UNL     1     -11.881  -2.550  -2.010  0.00  0.00    +0.061 S 
ATOM     10  O   UNL     1     -12.141  -1.184  -1.720  0.00  0.00    -0.153 OA
ATOM     11  O   UNL     1     -11.446  -2.987  -3.291  0.00  0.00    -0.153 OA
BRANCH   9  12
ATOM     12  C   UNL     1     -13.364  -3.432  -1.654  0.00  0.00    +0.106 A 
ATOM     13  C   UNL     1     -13.609  -4.648  -2.265  0.00  0.00    +0.031 A 
ATOM     14  C   UNL     1     -14.771  -5.341  -1.986  0.00  0.00    +0.040 A 
ATOM     15  C   UNL     1     -15.691  -4.817  -1.094  0.00  0.00    +0.124 A 
ATOM     16  C   UNL     1     -15.445  -3.600  -0.482  0.00  0.00    +0.040 A 
ATOM     17  C   UNL     1     -14.279  -2.911  -0.759  0.00  0.00    +0.031 A 
ATOM     18  F   UNL     1     -16.828  -5.493  -0.821  0.00  0.00    -0.205 F 
ENDBRANCH   9  12
ENDBRANCH   5   9
BRANCH   1  19
ATOM     19  C   UNL     1      -7.328  -0.606   0.056  0.00  0.00    +0.019 C 
BRANCH  19  26
ATOM     20  C   UNL     1      -1.271  -0.765   0.010  0.00  0.00    +0.080 A 
ATOM     21  C   UNL     1      -1.257  -2.132   0.008  0.00  0.00    +0.076 A 
ATOM     22  S   UNL     1      -3.011  -2.481   0.021  0.00  0.00    -0.060 S 
ATOM     23  C   UNL     1      -3.576  -0.785   0.028  0.00  0.00    +0.165 A 
ATOM     24  N   UNL     1      -2.431  -0.127   0.025  0.00  0.00    -0.225 NA
ATOM     25  N   UNL     1      -4.874  -0.291   0.038  0.00  0.00    -0.266 N 
ATOM     26  C   UNL     1      -5.919  -1.142   0.045  0.00  0.00    +0.202 C 
ATOM     27  O   UNL     1      -5.726  -2.339   0.042  0.00  0.00    -0.277 OA
ATOM     28  H   UNL     1      -5.029   0.667   0.041  0.00  0.00    +0.157 HD
BRANCH  20  34
ATOM     29  C   UNL     1      -0.017   1.390   0.010  0.00  0.00    +0.013 A 
ATOM     30  C   UNL     1       1.170   2.094   0.002  0.00  0.00    +0.039 A 
ATOM     31  C   UNL     1       2.379   1.417  -0.013  0.00  0.00    +0.123 A 
ATOM     32  C   UNL     1       2.402   0.032  -0.022  0.00  0.00    +0.039 A 
ATOM     33  C   UNL     1       1.221  -0.680  -0.014  0.00  0.00    +0.013 A 
ATOM     34  C   UNL     1       0.002  -0.004   0.002  0.00  0.00    +0.001 A 
ATOM     35  F   UNL     1       3.538   2.111  -0.021  0.00  0.00    -0.205 F 
ENDBRANCH  20  34
ENDBRANCH  19  26
ENDBRANCH   1  19
TORSDOF 5
