REMARK  Name = ZINC49118055
REMARK  5 active torsions:
REMARK  status: ('A' for Active; 'I' for Inactive)
REMARK    1  A    between atoms: C_6  and  N_7
REMARK    2  A    between atoms: N_7  and  S_8
REMARK    3  A    between atoms: S_8  and  C_11
REMARK    4  A    between atoms: C_14  and  O_18
REMARK    5  A    between atoms: C_15  and  N_17
REMARK                            x       y       z     vdW  Elec       q    Type
REMARK                         _______ _______ _______ _____ _____    ______ ____
ROOT
ATOM      1  S   UNL     1      -1.280  -2.040  -0.987  0.00  0.00    +0.072 S 
ATOM      2  O   UNL     1      -2.573  -2.601  -0.807  0.00  0.00    -0.150 OA
ATOM      3  O   UNL     1      -0.799  -1.624  -2.257  0.00  0.00    -0.150 OA
ENDROOT
BRANCH   1   4
ATOM      4  C   UNL     1      -0.128  -3.226  -0.377  0.00  0.00    +0.110 A 
ATOM      5  C   UNL     1       1.201  -3.151  -0.749  0.00  0.00    +0.032 A 
ATOM      6  C   UNL     1       2.110  -4.079  -0.273  0.00  0.00    +0.049 A 
ATOM      7  C   UNL     1       1.689  -5.087   0.579  0.00  0.00    +0.137 A 
ATOM      8  C   UNL     1       0.350  -5.162   0.955  0.00  0.00    +0.068 A 
ATOM      9  C   UNL     1      -0.555  -4.225   0.478  0.00  0.00    +0.055 A 
BRANCH   8  10
ATOM     10  N   UNL     1      -0.081  -6.179   1.815  0.00  0.00    -0.355 N 
ATOM     11  H   UNL     1       0.553  -6.832   2.151  0.00  0.00    +0.142 HD
ATOM     12  H   UNL     1      -1.014  -6.231   2.076  0.00  0.00    +0.142 HD
ENDBRANCH   8  10
BRANCH   7  13
ATOM     13  O   UNL     1       2.581  -6.000   1.048  0.00  0.00    -0.505 OA
ATOM     14  H   UNL     1       3.005  -5.745   1.879  0.00  0.00    +0.292 HD
ENDBRANCH   7  13
ENDBRANCH   1   4
BRANCH   1  15
ATOM     15  N   UNL     1      -1.195  -0.719   0.008  0.00  0.00    -0.216 N 
ATOM     16  H   UNL     1      -0.922   0.141  -0.350  0.00  0.00    +0.174 HD
BRANCH  15  22
ATOM     17  C   UNL     1      -0.688  -0.282   2.327  0.00  0.00    +0.026 A 
ATOM     18  C   UNL     1      -1.007  -0.404   3.665  0.00  0.00    +0.025 A 
ATOM     19  C   UNL     1      -2.150  -1.083   4.047  0.00  0.00    +0.076 A 
ATOM     20  C   UNL     1      -2.979  -1.643   3.087  0.00  0.00    +0.143 A 
ATOM     21  C   UNL     1      -2.664  -1.523   1.746  0.00  0.00    +0.064 A 
ATOM     22  C   UNL     1      -1.516  -0.841   1.362  0.00  0.00    +0.051 A 
ATOM     23  F   UNL     1      -4.094  -2.306   3.462  0.00  0.00    -0.204 F 
ATOM     24 CL   UNL     1      -2.547  -1.235   5.730  0.00  0.00    -0.081 Cl
ENDBRANCH  15  22
ENDBRANCH   1  15
TORSDOF 5
