REMARK  Name = ZINC59577815
REMARK  13 active torsions:
REMARK  status: ('A' for Active; 'I' for Inactive)
REMARK    1  A    between atoms: C_1  and  C_2
REMARK    2  A    between atoms: C_4  and  C_15
REMARK    3  A    between atoms: C_6  and  C_14
REMARK    4  A    between atoms: C_7  and  O_8
REMARK    5  A    between atoms: O_8  and  C_9
REMARK    6  A    between atoms: C_9  and  C_10
REMARK    7  A    between atoms: C_15  and  N_16
REMARK    8  A    between atoms: N_16  and  C_17
REMARK    9  A    between atoms: N_16  and  C_18
REMARK   10  A    between atoms: C_18  and  C_19
REMARK   11  A    between atoms: N_21  and  N_22
REMARK   12  A    between atoms: C_23  and  C_25
REMARK   13  A    between atoms: C_29  and  N_31
REMARK                            x       y       z     vdW  Elec       q    Type
REMARK                         _______ _______ _______ _____ _____    ______ ____
ROOT
ATOM      1  N   UNL     1       1.414  -3.039  -2.949  0.00  0.00    +0.386 N 
ATOM      2  C   UNL     1       2.088  -3.929  -1.994  0.00  0.00    -0.095 C 
ATOM      3  H   UNL     1       1.901  -2.156  -2.987  0.00  0.00    -0.081 HD
ENDROOT
BRANCH   1   4
ATOM      4  C   UNL     1       0.028  -2.816  -2.516  0.00  0.00    -0.043 C 
BRANCH   4   8
ATOM      5  C   UNL     1      -0.018   1.503   0.010  0.00  0.00    +0.047 C 
ATOM      6  C   UNL     1       0.002  -0.004   0.002  0.00  0.00    -0.008 A 
ATOM      7  C   UNL     1       0.006  -0.689  -1.198  0.00  0.00    +0.008 A 
ATOM      8  C   UNL     1       0.024  -2.071  -1.206  0.00  0.00    -0.063 A 
ATOM      9  C   UNL     1       0.040  -2.772  -0.014  0.00  0.00    +0.008 A 
ATOM     10  C   UNL     1       0.036  -2.092   1.188  0.00  0.00    -0.008 A 
ATOM     11  C   UNL     1       0.023  -0.705   1.199  0.00  0.00    +0.127 A 
ATOM     12  C   UNL     1       0.052  -2.856   2.487  0.00  0.00    +0.047 C 
BRANCH  11  13
ATOM     13  O   UNL     1       0.025  -0.033   2.381  0.00  0.00    -0.483 OA
BRANCH  13  14
ATOM     14  C   UNL     1      -1.246   0.270   2.957  0.00  0.00    +0.342 C 
BRANCH  14  15
ATOM     15  C   UNL     1      -1.043   1.022   4.274  0.00  0.00    +0.424 C 
ATOM     16  F   UNL     1      -0.346   2.211   4.030  0.00  0.00    -0.167 F 
ATOM     17  F   UNL     1      -2.288   1.320   4.838  0.00  0.00    -0.167 F 
ATOM     18  F   UNL     1      -0.309   0.225   5.158  0.00  0.00    -0.167 F 
ENDBRANCH  14  15
ENDBRANCH  13  14
ENDBRANCH  11  13
ENDBRANCH   4   8
ENDBRANCH   1   4
BRANCH   1  19
ATOM     19  C   UNL     1       1.417  -3.657  -4.282  0.00  0.00    +0.020 C 
BRANCH  19  20
ATOM     20  C   UNL     1       2.835  -3.773  -4.778  0.00  0.00    +0.213 C 
ATOM     21  O   UNL     1       3.753  -3.380  -4.089  0.00  0.00    -0.276 OA
ATOM     22  N   UNL     1       3.084  -4.315  -5.987  0.00  0.00    -0.236 N 
ATOM     23  H   UNL     1       2.350  -4.629  -6.538  0.00  0.00    +0.173 HD
BRANCH  22  24
ATOM     24  N   UNL     1       4.403  -4.423  -6.448  0.00  0.00    -0.230 N 
ATOM     25  C   UNL     1       4.651  -4.964  -7.657  0.00  0.00    +0.260 C 
ATOM     26  O   UNL     1       3.732  -5.358  -8.347  0.00  0.00    -0.269 OA
ATOM     27  H   UNL     1       5.136  -4.109  -5.897  0.00  0.00    +0.173 HD
BRANCH  25  28
ATOM     28  C   UNL     1       6.043  -5.079  -8.144  0.00  0.00    +0.040 A 
ATOM     29  C   UNL     1       7.101  -4.632  -7.351  0.00  0.00    +0.013 A 
ATOM     30  C   UNL     1       8.397  -4.742  -7.811  0.00  0.00    +0.003 A 
ATOM     31  C   UNL     1       8.649  -5.293  -9.055  0.00  0.00    +0.033 A 
ATOM     32  C   UNL     1       7.604  -5.738  -9.845  0.00  0.00    +0.127 A 
ATOM     33  C   UNL     1       6.304  -5.638  -9.395  0.00  0.00    +0.045 A 
BRANCH  32  34
ATOM     34  N   UNL     1       7.882  -6.326 -11.175  0.00  0.00    +0.056 N 
ATOM     35  O   UNL     1       9.021  -6.417 -11.569  0.00  0.00    -0.126 OA
ATOM     36  O   UNL     1       6.970  -6.714 -11.867  0.00  0.00    -0.126 OA
ENDBRANCH  32  34
ENDBRANCH  25  28
ENDBRANCH  22  24
ENDBRANCH  19  20
ENDBRANCH   1  19
TORSDOF 10
