REMARK  Name = ZINC27345949
REMARK  7 active torsions:
REMARK  status: ('A' for Active; 'I' for Inactive)
REMARK    1  A    between atoms: C_1  and  C_2
REMARK    2  A    between atoms: C_2  and  N_3
REMARK    3  A    between atoms: C_7  and  C_24
REMARK    4  A    between atoms: C_10  and  C_13
REMARK    5  A    between atoms: C_10  and  O_23
REMARK    6  A    between atoms: C_13  and  C_14
REMARK    7  A    between atoms: C_14  and  C_16
REMARK                            x       y       z     vdW  Elec       q    Type
REMARK                         _______ _______ _______ _____ _____    ______ ____
ROOT
ATOM      1  N   UNL     1      -2.443   2.912   4.786  0.00  0.00    -0.269 N 
ATOM      2  C   UNL     1      -2.020   2.468   3.533  0.00  0.00    +0.043 A 
ATOM      3  C   UNL     1      -2.736   2.230   2.361  0.00  0.00    +0.024 A 
ATOM      4  C   UNL     1      -2.084   1.790   1.228  0.00  0.00    +0.005 A 
ATOM      5  C   UNL     1      -0.718   1.572   1.248  0.00  0.00    -0.050 A 
ATOM      6  C   UNL     1      -0.000   1.806   2.408  0.00  0.00    +0.012 A 
ATOM      7  C   UNL     1      -0.648   2.250   3.538  0.00  0.00    +0.015 A 
ATOM      8  C   UNL     1      -0.169   2.592   4.930  0.00  0.00    +0.175 C 
ATOM      9  C   UNL     1      -1.427   3.013   5.660  0.00  0.00    +0.257 C 
ATOM     10  O   UNL     1      -1.504   3.372   6.816  0.00  0.00    -0.272 OA
ATOM     11  C   UNL     1      -0.013   1.086   0.008  0.00  0.00    +0.044 C 
ENDROOT
BRANCH   1  13
ATOM     12  C   UNL     1      -4.537   1.978   5.636  0.00  0.00    +0.025 C 
ATOM     13  C   UNL     1      -3.835   3.232   5.112  0.00  0.00    +0.110 C 
ENDBRANCH   1  13
BRANCH   8  14
ATOM     14  O   UNL     1       0.768   3.671   4.886  0.00  0.00    -0.374 OA
ATOM     15  H   UNL     1       1.218   4.047   5.817  0.00  0.00    +0.211 HD
ENDBRANCH   8  14
BRANCH   8  16
ATOM     16  C   UNL     1       0.454   1.366   5.599  0.00  0.00    +0.129 C 
BRANCH  16  17
ATOM     17  C   UNL     1       0.812   1.698   7.025  0.00  0.00    +0.167 C 
ATOM     18  O   UNL     1       0.590   2.807   7.463  0.00  0.00    -0.292 OA
BRANCH  17  19
ATOM     19  C   UNL     1       1.430   0.678   7.885  0.00  0.00    +0.018 A 
ATOM     20  C   UNL     1       1.682  -0.604   7.386  0.00  0.00    +0.013 A 
ATOM     21  C   UNL     1       2.266  -1.553   8.196  0.00  0.00    +0.020 A 
ATOM     22  C   UNL     1       2.593  -1.244   9.506  0.00  0.00    +0.041 A 
ATOM     23  C   UNL     1       2.341   0.022  10.010  0.00  0.00    +0.020 A 
ATOM     24  C   UNL     1       1.763   0.983   9.209  0.00  0.00    +0.013 A 
ATOM     25 CL   UNL     1       3.322  -2.448  10.522  0.00  0.00    -0.084 Cl
ENDBRANCH  17  19
ENDBRANCH  16  17
ENDBRANCH   8  16
TORSDOF 5
