REMARK  Name = ZINC41585555
REMARK  8 active torsions:
REMARK  status: ('A' for Active; 'I' for Inactive)
REMARK    1  A    between atoms: C_1  and  C_2
REMARK    2  A    between atoms: C_2  and  C_3
REMARK    3  A    between atoms: C_6  and  C_9
REMARK    4  A    between atoms: C_14  and  C_35
REMARK    5  A    between atoms: C_16  and  O_34
REMARK    6  A    between atoms: C_17  and  C_20
REMARK    7  A    between atoms: C_20  and  N_21
REMARK    8  A    between atoms: N_24  and  C_27
REMARK                            x       y       z     vdW  Elec       q    Type
REMARK                         _______ _______ _______ _____ _____    ______ ____
ROOT
ATOM      1  C   UNL     1      -5.408  -1.988   0.045  0.00  0.00    +0.058 C 
ATOM      2  C   UNL     1      -6.077  -2.134  -1.125  0.00  0.00    +0.176 C 
ATOM      3  C   UNL     1      -7.484  -2.538  -1.278  0.00  0.00    +0.232 C 
ATOM      4  O   UNL     1      -8.282  -2.808  -0.398  0.00  0.00    -0.283 OA
ATOM      5  C   UNL     1      -7.710  -2.543  -2.735  0.00  0.00    +0.071 A 
ATOM      6  C   UNL     1      -8.822  -2.834  -3.527  0.00  0.00    -0.033 A 
ATOM      7  C   UNL     1      -8.729  -2.750  -4.887  0.00  0.00    +0.050 A 
ATOM      8  C   UNL     1      -7.529  -2.374  -5.484  0.00  0.00    +0.122 A 
ATOM      9  C   UNL     1      -6.418  -2.082  -4.710  0.00  0.00    +0.020 A 
ATOM     10  C   UNL     1      -6.495  -2.163  -3.325  0.00  0.00    +0.145 A 
ATOM     11  O   UNL     1      -5.574  -1.929  -2.365  0.00  0.00    -0.451 OA
ATOM     12  C   UNL     1     -10.122  -3.242  -2.882  0.00  0.00    +0.045 C 
ENDROOT
BRANCH   1  16
ATOM     13  C   UNL     1      -1.450  -0.466   0.049  0.00  0.00    -0.048 A 
ATOM     14  C   UNL     1      -2.084  -0.732  -1.153  0.00  0.00    +0.004 A 
ATOM     15  C   UNL     1      -3.371  -1.227  -1.163  0.00  0.00    +0.008 A 
ATOM     16  C   UNL     1      -4.036  -1.460   0.046  0.00  0.00    -0.021 A 
ATOM     17  C   UNL     1      -3.388  -1.188   1.257  0.00  0.00    +0.008 A 
ATOM     18  C   UNL     1      -2.099  -0.699   1.249  0.00  0.00    +0.004 A 
BRANCH  13  20
ATOM     19  C   UNL     1       0.950  -1.088   0.068  0.00  0.00    +0.009 C 
ATOM     20  C   UNL     1      -0.043   0.075   0.050  0.00  0.00    +0.032 C 
ENDBRANCH  13  20
ENDBRANCH   1  16
BRANCH   8  21
ATOM     21  O   UNL     1      -7.447  -2.294  -6.837  0.00  0.00    -0.506 OA
ATOM     22  H   UNL     1      -7.671  -1.423  -7.194  0.00  0.00    +0.292 HD
ENDBRANCH   8  21
BRANCH   9  23
ATOM     23  C   UNL     1      -5.125  -1.677  -5.371  0.00  0.00    -0.035 C 
BRANCH  23  24
ATOM     24  N   UNL     1      -5.093  -0.217  -5.530  0.00  0.00    +0.385 N 
ATOM     25  C   UNL     1      -6.158   0.197  -6.452  0.00  0.00    -0.059 C 
ATOM     26  C   UNL     1      -6.199   1.726  -6.530  0.00  0.00    +0.086 C 
ATOM     27  N   UNL     1      -4.859   2.211  -6.894  0.00  0.00    -0.333 N 
ATOM     28  C   UNL     1      -3.709   1.716  -6.121  0.00  0.00    +0.086 C 
ATOM     29  C   UNL     1      -3.785   0.187  -6.063  0.00  0.00    -0.059 C 
ATOM     30  H   UNL     1      -5.239   0.221  -4.633  0.00  0.00    -0.081 HD
BRANCH  27  31
ATOM     31  C   UNL     1      -4.683   3.117  -7.944  0.00  0.00    +0.030 A 
ATOM     32  C   UNL     1      -5.788   3.669  -8.579  0.00  0.00    +0.026 A 
ATOM     33  C   UNL     1      -5.611   4.564  -9.616  0.00  0.00    +0.040 A 
ATOM     34  C   UNL     1      -4.334   4.911 -10.023  0.00  0.00    +0.124 A 
ATOM     35  C   UNL     1      -3.231   4.362  -9.392  0.00  0.00    +0.040 A 
ATOM     36  C   UNL     1      -3.403   3.470  -8.351  0.00  0.00    +0.026 A 
ATOM     37  F   UNL     1      -4.164   5.786 -11.038  0.00  0.00    -0.205 F 
ENDBRANCH  27  31
ENDBRANCH  23  24
ENDBRANCH   9  23
TORSDOF 6
