REMARK  Name = ZINC06993068
REMARK  2 active torsions:
REMARK  status: ('A' for Active; 'I' for Inactive)
REMARK    1  A    between atoms: C_2  and  C_9
REMARK    2  A    between atoms: N_11  and  N_12
REMARK                            x       y       z     vdW  Elec       q    Type
REMARK                         _______ _______ _______ _____ _____    ______ ____
ROOT
ATOM      1  N   UNL     1      -1.265   7.383   0.053  0.00  0.00    -0.137 N 
ATOM      2  C   UNL     1      -1.575   8.143  -1.018  0.00  0.00    +0.263 C 
ATOM      3  O   UNL     1      -1.878   7.760  -2.127  0.00  0.00    -0.271 OA
ATOM      4  C   UNL     1      -1.464   9.574  -0.543  0.00  0.00    +0.114 C 
ATOM      5  C   UNL     1      -2.811  10.279  -0.663  0.00  0.00    +0.035 C 
ATOM      6  C   UNL     1      -2.685  11.717  -0.151  0.00  0.00    +0.003 C 
ATOM      7  C   UNL     1      -1.627  12.458  -0.972  0.00  0.00    +0.000 C 
ATOM      8  C   UNL     1      -0.278  11.753  -0.821  0.00  0.00    +0.003 C 
ATOM      9  C   UNL     1      -0.394  10.316  -1.335  0.00  0.00    +0.035 C 
ATOM     10  N   UNL     1      -1.070   9.453   0.867  0.00  0.00    -0.284 N 
ATOM     11  C   UNL     1      -0.984   8.134   1.126  0.00  0.00    +0.326 C 
ATOM     12  O   UNL     1      -0.682   7.676   2.211  0.00  0.00    -0.251 OA
ATOM     13  H   UNL     1      -0.908  10.179   1.489  0.00  0.00    +0.151 HD
ENDROOT
BRANCH   1  16
ATOM     14  C   UNL     1      -0.070   5.325   0.031  0.00  0.00    +0.261 C 
ATOM     15  O   UNL     1       0.974   5.947   0.024  0.00  0.00    -0.269 OA
ATOM     16  N   UNL     1      -1.246   5.983   0.046  0.00  0.00    -0.220 N 
ATOM     17  H   UNL     1      -2.080   5.486   0.051  0.00  0.00    +0.174 HD
BRANCH  14  19
ATOM     18  C   UNL     1      -1.248   3.130   0.031  0.00  0.00    +0.033 A 
ATOM     19  C   UNL     1      -0.050   3.846   0.023  0.00  0.00    +0.041 A 
ATOM     20  C   UNL     1       1.166   3.162   0.007  0.00  0.00    +0.033 A 
ATOM     21  C   UNL     1       1.179   1.782   0.000  0.00  0.00    +0.043 A 
ATOM     22  C   UNL     1      -0.013   1.076   0.008  0.00  0.00    +0.040 A 
ATOM     23  C   UNL     1      -1.222   1.749   0.017  0.00  0.00    +0.043 A 
ATOM     24 CL   UNL     1      -2.711   0.855   0.019  0.00  0.00    -0.083 Cl
ATOM     25 CL   UNL     1       2.691   0.929  -0.019  0.00  0.00    -0.083 Cl
ENDBRANCH  14  19
ENDBRANCH   1  16
TORSDOF 2
