REMARK  Name = ZINC10335669
REMARK  7 active torsions:
REMARK  status: ('A' for Active; 'I' for Inactive)
REMARK    1  A    between atoms: C_10  and  C_11
REMARK    2  A    between atoms: C_11  and  C_13
REMARK    3  A    between atoms: C_11  and  N_53
REMARK    4  A    between atoms: C_13  and  N_14
REMARK    5  A    between atoms: N_14  and  S_15
REMARK    6  A    between atoms: S_15  and  C_18
REMARK    7  A    between atoms: C_23  and  N_24
REMARK                            x       y       z     vdW  Elec       q    Type
REMARK                         _______ _______ _______ _____ _____    ______ ____
ROOT
ATOM      1  C   UNL     1      -0.403   2.293  -0.545  0.00  0.00    -0.021 C 
ENDROOT
BRANCH   1  11
ATOM      2  C   UNL     1       3.471  -0.397   1.445  0.00  0.00    +0.001 A 
ATOM      3  C   UNL     1       3.142   0.957   1.393  0.00  0.00    +0.001 A 
ATOM      4  C   UNL     1       2.006   1.378   0.772  0.00  0.00    +0.009 A 
ATOM      5  C   UNL     1       1.151   0.438   0.173  0.00  0.00    -0.016 A 
ATOM      6  C   UNL     1       1.486  -0.939   0.226  0.00  0.00    -0.018 A 
ATOM      7  C   UNL     1       2.667  -1.336   0.876  0.00  0.00    +0.008 A 
ATOM      8  C   UNL     1       0.632  -1.879  -0.373  0.00  0.00    +0.008 A 
ATOM      9  C   UNL     1      -0.504  -1.458  -0.995  0.00  0.00    +0.001 A 
ATOM     10  C   UNL     1      -0.835  -0.106  -1.043  0.00  0.00    +0.002 A 
ATOM     11  C   UNL     1      -0.029   0.834  -0.478  0.00  0.00    -0.052 A 
ENDBRANCH   1  11
BRANCH   1  16
ATOM     12  C   UNL     1      -1.519   3.982  -1.897  0.00  0.00    -0.078 C 
ATOM     13  C   UNL     1      -1.862   4.122  -3.402  0.00  0.00    -0.020 C 
ATOM     14  C   UNL     1      -0.857   3.160  -4.076  0.00  0.00    -0.020 C 
ATOM     15  C   UNL     1      -0.445   2.170  -2.971  0.00  0.00    -0.078 C 
ATOM     16  N   UNL     1      -1.205   2.550  -1.779  0.00  0.00    +0.385 N 
ATOM     17  H   UNL     1      -2.075   2.006  -1.735  0.00  0.00    -0.081 HD
ENDBRANCH   1  16
BRANCH   1  18
ATOM     18  C   UNL     1      -1.224   2.666   0.691  0.00  0.00    +0.095 C 
BRANCH  18  19
ATOM     19  N   UNL     1      -1.545   4.095   0.651  0.00  0.00    -0.191 NA
ATOM     20  H   UNL     1      -1.062   4.684   0.050  0.00  0.00    +0.148 HD
BRANCH  19  21
ATOM     21  S   UNL     1      -2.731   4.705   1.632  0.00  0.00    +0.061 S 
ATOM     22  O   UNL     1      -2.738   6.112   1.434  0.00  0.00    -0.153 OA
ATOM     23  O   UNL     1      -3.884   3.901   1.424  0.00  0.00    -0.153 OA
BRANCH  21  24
ATOM     24  C   UNL     1      -2.221   4.434   3.297  0.00  0.00    +0.135 A 
ATOM     25  C   UNL     1      -2.979   3.631   4.129  0.00  0.00    +0.031 A 
ATOM     26  C   UNL     1      -2.576   3.414   5.434  0.00  0.00    +0.002 A 
ATOM     27  C   UNL     1      -1.422   4.008   5.909  0.00  0.00    +0.002 A 
ATOM     28  C   UNL     1      -0.667   4.814   5.078  0.00  0.00    +0.035 A 
ATOM     29  C   UNL     1      -1.067   5.027   3.772  0.00  0.00    +0.152 A 
BRANCH  29  30
ATOM     30  N   UNL     1      -0.259   5.892   2.882  0.00  0.00    +0.058 N 
ATOM     31  O   UNL     1       0.687   6.513   3.332  0.00  0.00    -0.126 OA
ATOM     32  O   UNL     1      -0.540   5.981   1.700  0.00  0.00    -0.126 OA
ENDBRANCH  29  30
ENDBRANCH  21  24
ENDBRANCH  19  21
ENDBRANCH  18  19
ENDBRANCH   1  18
TORSDOF 7
