REMARK  Name = ZINC36157317
REMARK  10 active torsions:
REMARK  status: ('A' for Active; 'I' for Inactive)
REMARK    1  A    between atoms: C_4  and  C_7
REMARK    2  A    between atoms: C_7  and  N_8
REMARK    3  A    between atoms: N_8  and  C_9
REMARK    4  A    between atoms: N_8  and  C_27
REMARK    5  A    between atoms: C_9  and  C_10
REMARK    6  A    between atoms: C_13  and  C_15
REMARK    7  A    between atoms: C_15  and  C_16
REMARK    8  A    between atoms: C_15  and  C_21
REMARK    9  A    between atoms: C_15  and  O_26
REMARK   10  A    between atoms: C_27  and  C_28
REMARK                            x       y       z     vdW  Elec       q    Type
REMARK                         _______ _______ _______ _____ _____    ______ ____
ROOT
ATOM      1  C   UNL     1       5.691  -1.994   2.814  0.00  0.00    +0.089 A 
ATOM      2  C   UNL     1       5.357  -3.119   3.471  0.00  0.00    +0.043 A 
ATOM      3  C   UNL     1       5.911  -3.016   4.768  0.00  0.00    +0.048 A 
ATOM      4  C   UNL     1       6.551  -1.835   4.826  0.00  0.00    +0.147 A 
ATOM      5  O   UNL     1       6.420  -1.222   3.638  0.00  0.00    -0.463 OA
ENDROOT
BRANCH   1   6
ATOM      6  C   UNL     1       5.317  -1.659   1.393  0.00  0.00    -0.003 C 
BRANCH   6   7
ATOM      7  N   UNL     1       4.038  -0.937   1.381  0.00  0.00    +0.389 N 
ATOM      8  H   UNL     1       3.339  -1.482   1.863  0.00  0.00    -0.081 HD
BRANCH   7   9
ATOM      9  C   UNL     1       3.614  -0.716  -0.008  0.00  0.00    -0.042 C 
BRANCH   9  13
ATOM     10  C   UNL     1       2.763  -4.472  -1.855  0.00  0.00    +0.000 A 
ATOM     11  C   UNL     1       1.796  -3.841  -1.095  0.00  0.00    +0.000 A 
ATOM     12  C   UNL     1       2.072  -2.625  -0.497  0.00  0.00    +0.002 A 
ATOM     13  C   UNL     1       3.314  -2.041  -0.659  0.00  0.00    -0.064 A 
ATOM     14  C   UNL     1       4.281  -2.673  -1.418  0.00  0.00    +0.002 A 
ATOM     15  C   UNL     1       4.005  -3.888  -2.017  0.00  0.00    +0.000 A 
ENDBRANCH   9  13
ENDBRANCH   7   9
BRANCH   7  16
ATOM     16  C   UNL     1       4.200   0.358   2.056  0.00  0.00    -0.046 C 
BRANCH  16  17
ATOM     17  C   UNL     1       2.838   1.045   2.175  0.00  0.00    +0.102 C 
ATOM     18  C   UNL     1       2.997   2.402   2.892  0.00  0.00    +0.032 C 
ATOM     19  C   UNL     1       1.730   2.451   3.790  0.00  0.00    +0.030 C 
ATOM     20  C   UNL     1       1.566   0.953   4.149  0.00  0.00    +0.160 C 
ATOM     21  O   UNL     1       1.954   0.238   2.962  0.00  0.00    -0.378 OA
ENDBRANCH  16  17
ENDBRANCH   7  16
ENDBRANCH   6   7
ENDBRANCH   1   6
BRANCH   4  22
ATOM     22  C   UNL     1       7.295  -1.292   6.019  0.00  0.00    +0.186 C 
BRANCH  22  23
ATOM     23  C   UNL     1       8.423  -0.410   5.549  0.00  0.00    +0.034 A 
ATOM     24  C   UNL     1       9.621  -0.172   6.136  0.00  0.00    +0.015 A 
ATOM     25  C   UNL     1      10.512   0.685   5.517  0.00  0.00    +0.008 A 
ATOM     26  C   UNL     1      10.161   1.261   4.341  0.00  0.00    +0.045 A 
ATOM     27  S   UNL     1       8.530   0.587   4.072  0.00  0.00    -0.098 S 
ENDBRANCH  22  23
BRANCH  22  28
ATOM     28  C   UNL     1       6.352  -0.488   6.876  0.00  0.00    +0.034 A 
ATOM     29  C   UNL     1       6.378  -0.286   8.216  0.00  0.00    +0.015 A 
ATOM     30  C   UNL     1       5.398   0.498   8.795  0.00  0.00    +0.008 A 
ATOM     31  C   UNL     1       4.440   1.042   8.006  0.00  0.00    +0.045 A 
ATOM     32  S   UNL     1       4.914   0.451   6.389  0.00  0.00    -0.098 S 
ENDBRANCH  22  28
BRANCH  22  33
ATOM     33  O   UNL     1       7.826  -2.377   6.783  0.00  0.00    -0.371 OA
ATOM     34  H   UNL     1       8.442  -2.938   6.293  0.00  0.00    +0.212 HD
ENDBRANCH  22  33
ENDBRANCH   4  22
TORSDOF 10
