REMARK  Name = ZINC66860412
REMARK  7 active torsions:
REMARK  status: ('A' for Active; 'I' for Inactive)
REMARK    1  A    between atoms: C_1  and  N_2
REMARK    2  A    between atoms: C_4  and  C_14
REMARK    3  A    between atoms: C_5  and  C_7
REMARK    4  A    between atoms: C_15  and  C_16
REMARK    5  A    between atoms: C_15  and  C_18
REMARK    6  A    between atoms: N_24  and  C_25
REMARK    7  A    between atoms: N_24  and  C_26
REMARK                            x       y       z     vdW  Elec       q    Type
REMARK                         _______ _______ _______ _____ _____    ______ ____
ROOT
ATOM      1  C   UNL     1      -0.367  -3.270  -1.605  0.00  0.00    +0.034 C 
ATOM      2  C   UNL     1      -0.416  -3.105  -2.960  0.00  0.00    +0.097 C 
ENDROOT
BRANCH   2   3
ATOM      3  C   UNL     1      -0.475  -1.746  -3.536  0.00  0.00    +0.177 A 
ATOM      4  N   UNL     1      -0.316  -0.681  -2.752  0.00  0.00    -0.194 NA
ATOM      5  C   UNL     1      -0.370   0.541  -3.271  0.00  0.00    +0.217 A 
ATOM      6  N   UNL     1      -0.583   0.701  -4.574  0.00  0.00    -0.181 NA
ATOM      7  C   UNL     1      -0.742  -0.361  -5.358  0.00  0.00    +0.222 A 
ATOM      8  N   UNL     1      -0.683  -1.584  -4.842  0.00  0.00    -0.194 NA
ATOM      9  N   UNL     1      -0.964  -0.193  -6.710  0.00  0.00    -0.306 N 
ATOM     10  C   UNL     1      -1.024   1.156  -7.280  0.00  0.00    +0.132 C 
ATOM     11  C   UNL     1      -1.140  -1.362  -7.575  0.00  0.00    +0.132 C 
ATOM     12  N   UNL     1      -0.205   1.644  -2.459  0.00  0.00    -0.327 N 
ATOM     13  H   UNL     1       0.026   1.528  -1.524  0.00  0.00    +0.145 HD
ATOM     14  H   UNL     1      -0.319   2.536  -2.822  0.00  0.00    +0.145 HD
ENDBRANCH   2   3
BRANCH   1  18
ATOM     15  C   UNL     1      -2.376   0.808   0.454  0.00  0.00    +0.172 C 
ATOM     16  N   UNL     1      -1.490  -0.329   0.193  0.00  0.00    -0.273 N 
ATOM     17  C   UNL     1      -1.637  -1.209  -0.809  0.00  0.00    +0.116 A 
ATOM     18  C   UNL     1      -0.606  -2.130  -0.719  0.00  0.00    +0.022 A 
ATOM     19  C   UNL     1       0.200  -1.733   0.442  0.00  0.00    +0.101 A 
ATOM     20  N   UNL     1      -0.360  -0.657   0.948  0.00  0.00    -0.171 NA
BRANCH  19  21
ATOM     21  C   UNL     1       1.416  -2.413   0.946  0.00  0.00    +0.021 A 
ATOM     22  C   UNL     1       1.977  -3.468   0.226  0.00  0.00    +0.011 A 
ATOM     23  C   UNL     1       3.110  -4.098   0.700  0.00  0.00    +0.001 A 
ATOM     24  C   UNL     1       3.689  -3.686   1.887  0.00  0.00    +0.001 A 
ATOM     25  C   UNL     1       3.139  -2.640   2.606  0.00  0.00    +0.020 A 
ATOM     26  C   UNL     1       2.008  -1.998   2.139  0.00  0.00    +0.050 A 
ATOM     27 CL   UNL     1       1.322  -0.681   3.038  0.00  0.00    -0.083 Cl
ENDBRANCH  19  21
ENDBRANCH   1  18
BRANCH   2  28
ATOM     28  C   UNL     1      -0.408  -4.248  -3.822  0.00  0.00    +0.103 C 
ATOM     29  N   UNL     1      -0.403  -5.156  -4.505  0.00  0.00    -0.191 NA
ENDBRANCH   2  28
TORSDOF 4
