REMARK  Name = ZINC09599729
REMARK  8 active torsions:
REMARK  status: ('A' for Active; 'I' for Inactive)
REMARK    1  A    between atoms: C_1  and  N_2
REMARK    2  A    between atoms: C_3  and  C_5
REMARK    3  A    between atoms: C_9  and  N_10
REMARK    4  A    between atoms: C_11  and  C_13
REMARK    5  A    between atoms: C_16  and  S_19
REMARK    6  A    between atoms: S_19  and  N_22
REMARK    7  A    between atoms: N_22  and  C_23
REMARK    8  A    between atoms: N_22  and  C_24
REMARK                            x       y       z     vdW  Elec       q    Type
REMARK                         _______ _______ _______ _____ _____    ______ ____
ROOT
ATOM      1  N   UNL     1       2.768  -2.341   0.191  0.00  0.00    -0.275 N 
ATOM      2  C   UNL     1       3.687  -3.186   0.699  0.00  0.00    +0.249 C 
ATOM      3  O   UNL     1       3.531  -4.387   0.595  0.00  0.00    -0.270 OA
ATOM      4  H   UNL     1       2.892  -1.383   0.274  0.00  0.00    +0.156 HD
ENDROOT
BRANCH   1   9
ATOM      5  C   UNL     1       0.605  -2.130  -1.026  0.00  0.00    +0.069 A 
ATOM      6  C   UNL     1      -0.461  -2.898  -1.645  0.00  0.00    -0.023 A 
ATOM      7  C   UNL     1      -0.295  -4.236  -1.568  0.00  0.00    -0.004 A 
ATOM      8  S   UNL     1       1.232  -4.450  -0.700  0.00  0.00    -0.077 S 
ATOM      9  C   UNL     1       1.645  -2.842  -0.449  0.00  0.00    +0.085 A 
ATOM     10  C   UNL     1      -1.215  -5.290  -2.104  0.00  0.00    +0.043 C 
ATOM     11  C   UNL     1      -2.565  -4.632  -2.426  0.00  0.00    +0.005 C 
ATOM     12  C   UNL     1      -2.314  -3.352  -3.229  0.00  0.00    +0.005 C 
ATOM     13  C   UNL     1      -1.676  -2.291  -2.331  0.00  0.00    +0.037 C 
BRANCH   5  16
ATOM     14  C   UNL     1      -0.018   1.461   0.010  0.00  0.00    +0.128 C 
ATOM     15  N   UNL     1       0.002  -0.004   0.002  0.00  0.00    -0.314 N 
ATOM     16  C   UNL     1       0.585  -0.664  -1.018  0.00  0.00    +0.246 C 
ATOM     17  O   UNL     1       1.095  -0.044  -1.932  0.00  0.00    -0.270 OA
ATOM     18  H   UNL     1      -0.404  -0.499   0.731  0.00  0.00    +0.149 HD
ENDBRANCH   5  16
ENDBRANCH   1   9
BRANCH   2  19
ATOM     19  C   UNL     1       4.884  -2.652   1.381  0.00  0.00    +0.037 A 
ATOM     20  C   UNL     1       5.063  -1.273   1.506  0.00  0.00    +0.015 A 
ATOM     21  C   UNL     1       6.183  -0.781   2.144  0.00  0.00    +0.029 A 
ATOM     22  C   UNL     1       7.128  -1.651   2.659  0.00  0.00    +0.106 A 
ATOM     23  C   UNL     1       6.957  -3.019   2.538  0.00  0.00    +0.029 A 
ATOM     24  C   UNL     1       5.839  -3.524   1.908  0.00  0.00    +0.015 A 
BRANCH  22  25
ATOM     25  S   UNL     1       8.556  -1.015   3.472  0.00  0.00    +0.061 S 
ATOM     26  O   UNL     1       9.556  -2.020   3.384  0.00  0.00    -0.153 OA
ATOM     27  O   UNL     1       8.753   0.302   2.974  0.00  0.00    -0.153 OA
BRANCH  25  28
ATOM     28  N   UNL     1       8.178  -0.862   5.077  0.00  0.00    -0.177 NA
ATOM     29  C   UNL     1       8.420  -1.978   5.996  0.00  0.00    +0.132 C 
BRANCH  28  30
ATOM     30  C   UNL     1       7.602   0.388   5.579  0.00  0.00    +0.080 C 
ATOM     31  C   UNL     1       8.524   0.981   6.647  0.00  0.00    +0.020 C 
ATOM     32  C   UNL     1       7.922   2.287   7.170  0.00  0.00    +0.002 C 
ATOM     33  C   UNL     1       6.548   2.007   7.781  0.00  0.00    +0.000 C 
ATOM     34  C   UNL     1       5.627   1.413   6.713  0.00  0.00    +0.002 C 
ATOM     35  C   UNL     1       6.228   0.107   6.190  0.00  0.00    +0.020 C 
ENDBRANCH  28  30
ENDBRANCH  25  28
ENDBRANCH  22  25
ENDBRANCH   2  19
TORSDOF 6
