REMARK  Name = ZINC36365315
REMARK  3 active torsions:
REMARK  status: ('A' for Active; 'I' for Inactive)
REMARK    1  A    between atoms: C_4  and  N_7
REMARK    2  A    between atoms: C_16  and  C_23
REMARK    3  A    between atoms: C_28  and  C_31
REMARK                            x       y       z     vdW  Elec       q    Type
REMARK                         _______ _______ _______ _____ _____    ______ ____
ROOT
ATOM      1  N   UNL     1       3.652  -0.631  -0.045  0.00  0.00    -0.260 N 
ATOM      2  C   UNL     1       4.814   0.044  -0.150  0.00  0.00    +0.252 C 
ATOM      3  O   UNL     1       4.825   1.259  -0.100  0.00  0.00    -0.270 OA
ATOM      4  C   UNL     1       6.074  -0.708  -0.327  0.00  0.00    +0.041 A 
ATOM      5  C   UNL     1       7.308  -0.078  -0.174  0.00  0.00    +0.013 A 
ATOM      6  C   UNL     1       8.470  -0.807  -0.330  0.00  0.00    +0.001 A 
ATOM      7  C   UNL     1       8.410  -2.155  -0.633  0.00  0.00    +0.000 A 
ATOM      8  C   UNL     1       7.187  -2.784  -0.791  0.00  0.00    +0.005 A 
ATOM      9  C   UNL     1       6.020  -2.066  -0.646  0.00  0.00    -0.021 A 
ATOM     10  C   UNL     1       4.681  -2.727  -0.849  0.00  0.00    +0.130 C 
ATOM     11  C   UNL     1       3.639  -2.084   0.062  0.00  0.00    +0.058 C 
ATOM     12  C   UNL     1       2.234  -2.626  -0.282  0.00  0.00    +0.027 C 
ATOM     13  C   UNL     1       1.451  -2.409   1.038  0.00  0.00    +0.002 C 
ATOM     14  C   UNL     1       2.480  -2.722   2.144  0.00  0.00    +0.002 C 
ATOM     15  C   UNL     1       3.872  -2.511   1.523  0.00  0.00    +0.027 C 
ENDROOT
BRANCH  10  16
ATOM     16  C   UNL     1       4.257  -2.567  -2.287  0.00  0.00    +0.225 C 
ATOM     17  O   UNL     1       3.669  -1.567  -2.638  0.00  0.00    -0.275 OA
ATOM     18  N   UNL     1       4.532  -3.537  -3.182  0.00  0.00    -0.301 N 
ATOM     19  C   UNL     1       5.145  -4.801  -2.752  0.00  0.00    +0.108 C 
ATOM     20  C   UNL     1       6.403  -5.049  -3.591  0.00  0.00    +0.032 C 
ATOM     21  C   UNL     1       6.038  -5.001  -5.076  0.00  0.00    +0.078 C 
ATOM     22  C   UNL     1       5.491  -3.614  -5.424  0.00  0.00    +0.032 C 
ATOM     23  C   UNL     1       4.218  -3.352  -4.605  0.00  0.00    +0.108 C 
BRANCH  21  24
ATOM     24  C   UNL     1       7.266  -5.278  -5.904  0.00  0.00    +0.214 C 
ATOM     25  O   UNL     1       8.329  -5.494  -5.360  0.00  0.00    -0.276 OA
ATOM     26  N   UNL     1       7.184  -5.287  -7.249  0.00  0.00    -0.329 N 
ATOM     27  H   UNL     1       6.335  -5.115  -7.685  0.00  0.00    +0.145 HD
ATOM     28  H   UNL     1       7.975  -5.466  -7.782  0.00  0.00    +0.145 HD
ENDBRANCH  21  24
ENDBRANCH  10  16
BRANCH   1  32
ATOM     29  C   UNL     1       0.052   1.465  -0.011  0.00  0.00    +0.000 A 
ATOM     30  C   UNL     1       0.786   1.335   1.154  0.00  0.00    +0.002 A 
ATOM     31  C   UNL     1       1.980   0.641   1.146  0.00  0.00    +0.023 A 
ATOM     32  C   UNL     1       2.443   0.072  -0.034  0.00  0.00    +0.037 A 
ATOM     33  C   UNL     1       1.704   0.204  -1.202  0.00  0.00    +0.023 A 
ATOM     34  C   UNL     1       0.511   0.900  -1.187  0.00  0.00    +0.002 A 
ENDBRANCH   1  32
TORSDOF 3
