REMARK  Name = ZINC20568343
REMARK  10 active torsions:
REMARK  status: ('A' for Active; 'I' for Inactive)
REMARK    1  A    between atoms: C_1  and  C_2
REMARK    2  A    between atoms: C_2  and  C_35
REMARK    3  A    between atoms: C_6  and  C_22
REMARK    4  A    between atoms: C_8  and  C_20
REMARK    5  A    between atoms: C_9  and  N_19
REMARK    6  A    between atoms: N_10  and  C_11
REMARK    7  A    between atoms: C_15  and  O_17
REMARK    8  A    between atoms: O_17  and  C_18
REMARK    9  A    between atoms: C_25  and  S_28
REMARK   10  A    between atoms: S_28  and  N_31
REMARK                            x       y       z     vdW  Elec       q    Type
REMARK                         _______ _______ _______ _____ _____    ______ ____
ROOT
ATOM      1  C   UNL     1       2.515   6.742   2.559  0.00  0.00    +0.011 C 
ATOM      2  C   UNL     1       3.252   6.159   1.351  0.00  0.00    -0.023 C 
ATOM      3  C   UNL     1       2.333   5.187   0.608  0.00  0.00    +0.058 C 
ATOM      4  C   UNL     1       1.117   5.925   0.106  0.00  0.00    +0.025 C 
ATOM      5  C   UNL     1       1.188   7.227  -0.243  0.00  0.00    +0.025 C 
ATOM      6  C   UNL     1      -0.023   7.955  -0.769  0.00  0.00    +0.097 C 
ATOM      7  C   UNL     1      -1.287   7.223  -0.426  0.00  0.00    +0.077 C 
ATOM      8  C   UNL     1      -1.263   5.916  -0.065  0.00  0.00    +0.107 C 
ATOM      9  N   UNL     1      -0.066   5.239   0.009  0.00  0.00    -0.260 N 
ATOM     10  C   UNL     1       2.393   7.942  -0.130  0.00  0.00    +0.162 C 
ATOM     11  O   UNL     1       2.425   9.111  -0.460  0.00  0.00    -0.292 OA
ATOM     12  C   UNL     1       3.643   7.288   0.392  0.00  0.00    +0.086 C 
ATOM     13  C   UNL     1       4.507   5.422   1.822  0.00  0.00    +0.011 C 
ENDROOT
BRANCH   9  14
ATOM     14  C   UNL     1      -0.057   3.840  -0.021  0.00  0.00    +0.043 A 
ATOM     15  C   UNL     1      -0.205   3.118   1.157  0.00  0.00    +0.024 A 
ATOM     16  C   UNL     1      -0.196   1.737   1.127  0.00  0.00    +0.005 A 
ATOM     17  C   UNL     1      -0.041   1.070  -0.074  0.00  0.00    +0.046 A 
ATOM     18  C   UNL     1       0.113   1.786  -1.253  0.00  0.00    +0.122 A 
ATOM     19  C   UNL     1       0.099   3.172  -1.228  0.00  0.00    +0.069 A 
BRANCH  18  20
ATOM     20  O   UNL     1       0.271   1.129  -2.432  0.00  0.00    -0.495 OA
ATOM     21  C   UNL     1       0.270  -0.299  -2.383  0.00  0.00    +0.277 C 
ENDBRANCH  18  20
ENDBRANCH   9  14
BRANCH   6  22
ATOM     22  C   UNL     1       0.086   8.078  -2.267  0.00  0.00    -0.035 A 
ATOM     23  C   UNL     1       0.170   6.941  -3.049  0.00  0.00    +0.006 A 
ATOM     24  C   UNL     1       0.265   7.053  -4.424  0.00  0.00    +0.029 A 
ATOM     25  C   UNL     1       0.287   8.302  -5.016  0.00  0.00    +0.105 A 
ATOM     26  C   UNL     1       0.209   9.439  -4.233  0.00  0.00    +0.029 A 
ATOM     27  C   UNL     1       0.109   9.327  -2.859  0.00  0.00    +0.006 A 
BRANCH  25  28
ATOM     28  S   UNL     1       0.415   8.445  -6.767  0.00  0.00    +0.056 S 
ATOM     29  O   UNL     1      -0.076   7.227  -7.311  0.00  0.00    -0.153 OA
ATOM     30  O   UNL     1      -0.134   9.710  -7.112  0.00  0.00    -0.153 OA
BRANCH  28  31
ATOM     31  N   UNL     1       2.028   8.512  -7.136  0.00  0.00    -0.204 NA
ATOM     32  H   UNL     1       2.151   8.602  -8.226  0.00  0.00    +0.144 HD
ATOM     33  H   UNL     1       2.523   7.594  -6.786  0.00  0.00    +0.144 HD
ENDBRANCH  28  31
ENDBRANCH  25  28
ENDBRANCH   6  22
BRANCH   8  34
ATOM     34  N   UNL     1      -2.437   5.267   0.231  0.00  0.00    -0.345 N 
ATOM     35  H   UNL     1      -2.421   4.207   0.524  0.00  0.00    +0.144 HD
ATOM     36  H   UNL     1      -3.394   5.808   0.176  0.00  0.00    +0.144 HD
ENDBRANCH   8  34
BRANCH   7  37
ATOM     37  C   UNL     1      -2.539   7.915  -0.485  0.00  0.00    +0.099 C 
ATOM     38  N   UNL     1      -3.533   8.464  -0.532  0.00  0.00    -0.191 NA
ENDBRANCH   7  37
TORSDOF 7
