REMARK  Name = ZINC61981349
REMARK  6 active torsions:
REMARK  status: ('A' for Active; 'I' for Inactive)
REMARK    1  A    between atoms: C_1  and  N_2
REMARK    2  A    between atoms: C_3  and  C_5
REMARK    3  A    between atoms: C_5  and  N_6
REMARK    4  A    between atoms: C_9  and  N_12
REMARK    5  A    between atoms: N_12  and  C_13
REMARK    6  A    between atoms: N_17  and  C_19
REMARK                            x       y       z     vdW  Elec       q    Type
REMARK                         _______ _______ _______ _____ _____    ______ ____
ROOT
ATOM      1  N   UNL     1       1.293  -2.645  -2.235  0.00  0.00    +0.385 N 
ATOM      2  C   UNL     1       2.700  -2.229  -2.190  0.00  0.00    -0.077 C 
ATOM      3  C   UNL     1       3.401  -2.650  -3.484  0.00  0.00    -0.000 C 
ATOM      4  C   UNL     1       3.322  -4.172  -3.629  0.00  0.00    +0.050 C 
ATOM      5  C   UNL     1       1.852  -4.602  -3.600  0.00  0.00    -0.000 C 
ATOM      6  C   UNL     1       1.208  -4.109  -2.302  0.00  0.00    -0.077 C 
ATOM      7  H   UNL     1       0.852  -2.246  -3.050  0.00  0.00    -0.081 HD
ENDROOT
BRANCH   4   8
ATOM      8  N   UNL     1       3.926  -4.576  -4.906  0.00  0.00    -0.312 NA
ATOM      9  H   UNL     1       3.277  -4.451  -5.669  0.00  0.00    +0.122 HD
BRANCH   8  10
ATOM     10  C   UNL     1       4.407  -5.962  -4.846  0.00  0.00    +0.036 C 
ATOM     11  C   UNL     1       3.285  -6.951  -5.258  0.00  0.00    -0.002 C 
ATOM     12  C   UNL     1       4.107  -8.158  -5.777  0.00  0.00    -0.077 C 
ATOM     13  N   UNL     1       5.268  -7.555  -6.466  0.00  0.00    +0.383 N 
ATOM     14  C   UNL     1       5.500  -6.207  -5.908  0.00  0.00    -0.060 C 
ATOM     15  H   UNL     1       5.079  -7.487  -7.455  0.00  0.00    -0.081 HD
BRANCH  13  16
ATOM     16  C   UNL     1       6.458  -8.388  -6.249  0.00  0.00    -0.069 C 
ATOM     17  C   UNL     1       7.281  -8.779  -7.478  0.00  0.00    -0.017 C 
ATOM     18  C   UNL     1       6.419  -9.826  -6.770  0.00  0.00    -0.017 C 
ENDBRANCH  13  16
ENDBRANCH   8  10
ENDBRANCH   4   8
BRANCH   1  19
ATOM     19  C   UNL     1       0.606  -2.171  -1.026  0.00  0.00    +0.019 C 
BRANCH  19  22
ATOM     20  C   UNL     1      -0.018   1.461   0.010  0.00  0.00    +0.128 C 
ATOM     21  N   UNL     1       0.002  -0.004   0.002  0.00  0.00    -0.320 N 
ATOM     22  C   UNL     1       0.585  -0.664  -1.018  0.00  0.00    +0.196 C 
ATOM     23  O   UNL     1       1.093  -0.046  -1.929  0.00  0.00    -0.278 OA
ATOM     24  H   UNL     1      -0.404  -0.499   0.731  0.00  0.00    +0.148 HD
ENDBRANCH  19  22
ENDBRANCH   1  19
TORSDOF 5
