REMARK  Name = ZINC39672683
REMARK  7 active torsions:
REMARK  status: ('A' for Active; 'I' for Inactive)
REMARK    1  A    between atoms: C_1  and  C_2
REMARK    2  A    between atoms: C_7  and  C_8
REMARK    3  A    between atoms: C_8  and  C_9
REMARK    4  A    between atoms: C_13  and  C_22
REMARK    5  A    between atoms: N_24  and  C_25
REMARK    6  A    between atoms: C_25  and  C_26
REMARK    7  A    between atoms: C_28  and  C_31
REMARK                            x       y       z     vdW  Elec       q    Type
REMARK                         _______ _______ _______ _____ _____    ______ ____
ROOT
ATOM      1  C   UNL     1      -1.554   0.371   2.921  0.00  0.00    +0.220 C 
ATOM      2  O   UNL     1      -2.489   0.099   2.199  0.00  0.00    -0.275 OA
ATOM      3  N   UNL     1      -1.758   1.074   4.053  0.00  0.00    -0.300 N 
ATOM      4  C   UNL     1      -0.750   1.504   5.050  0.00  0.00    +0.121 C 
ATOM      5  C   UNL     1      -1.190   2.928   5.460  0.00  0.00    +0.100 C 
ATOM      6  C   UNL     1      -2.696   2.978   5.152  0.00  0.00    -0.004 C 
ATOM      7  C   UNL     1      -3.043   1.596   4.578  0.00  0.00    +0.115 C 
ATOM      8  C   UNL     1      -2.988   4.061   4.118  0.00  0.00    -0.010 C 
ATOM      9  C   UNL     1      -4.497   4.129   3.870  0.00  0.00    -0.082 C 
ATOM     10  N   UNL     1      -5.188   4.429   5.130  0.00  0.00    +0.379 N 
ATOM     11  C   UNL     1      -4.978   3.337   6.089  0.00  0.00    -0.082 C 
ATOM     12  C   UNL     1      -3.489   3.235   6.430  0.00  0.00    -0.010 C 
ATOM     13  H   UNL     1      -4.825   5.288   5.516  0.00  0.00    -0.086 HD
ATOM     14  H   UNL     1      -6.176   4.534   4.954  0.00  0.00    -0.086 HD
ENDROOT
BRANCH   5  15
ATOM     15  C   UNL     1      -0.945   3.149   6.931  0.00  0.00    +0.219 C 
ATOM     16  O   UNL     1      -1.008   2.216   7.703  0.00  0.00    -0.275 OA
ATOM     17  N   UNL     1      -0.656   4.384   7.387  0.00  0.00    -0.309 N 
ATOM     18  H   UNL     1      -0.605   5.130   6.770  0.00  0.00    +0.149 HD
BRANCH  17  19
ATOM     19  C   UNL     1      -0.418   4.599   8.817  0.00  0.00    +0.167 C 
BRANCH  19  20
ATOM     20  C   UNL     1      -0.118   6.056   9.062  0.00  0.00    +0.096 A 
ATOM     21  N   UNL     1      -0.955   7.024   9.339  0.00  0.00    -0.248 NA
ATOM     22  C   UNL     1      -0.537   8.259   9.530  0.00  0.00    +0.046 A 
ATOM     23  C   UNL     1       0.799   8.479   9.425  0.00  0.00    +0.070 A 
ATOM     24  S   UNL     1       1.376   6.831   9.055  0.00  0.00    -0.079 S 
ATOM     25  C   UNL     1      -1.498   9.376   9.848  0.00  0.00    +0.066 C 
ENDBRANCH  19  20
ENDBRANCH  17  19
ENDBRANCH   5  15
BRANCH   1  26
ATOM     26  C   UNL     1      -0.162  -0.076   2.554  0.00  0.00    +0.131 C 
BRANCH  26  33
ATOM     27  C   UNL     1      -0.070   1.349   0.042  0.00  0.00    +0.044 C 
ATOM     28  C   UNL     1      -0.162  -0.155   0.052  0.00  0.00    -0.047 A 
ATOM     29  C   UNL     1      -0.197  -0.853  -1.141  0.00  0.00    +0.003 A 
ATOM     30  C   UNL     1      -0.281  -2.233  -1.131  0.00  0.00    +0.000 A 
ATOM     31  C   UNL     1      -0.331  -2.914   0.070  0.00  0.00    +0.000 A 
ATOM     32  C   UNL     1      -0.295  -2.216   1.263  0.00  0.00    +0.004 A 
ATOM     33  C   UNL     1      -0.206  -0.837   1.254  0.00  0.00    -0.036 A 
ENDBRANCH  26  33
ENDBRANCH   1  26
TORSDOF 5
