REMARK  Name = ZINC36600901
REMARK  14 active torsions:
REMARK  status: ('A' for Active; 'I' for Inactive)
REMARK    1  A    between atoms: C_1  and  C_2
REMARK    2  A    between atoms: C_5  and  C_7
REMARK    3  A    between atoms: C_7  and  N_8
REMARK    4  A    between atoms: N_8  and  C_9
REMARK    5  A    between atoms: C_9  and  C_11
REMARK    6  A    between atoms: C_9  and  C_21
REMARK    7  A    between atoms: C_14  and  C_17
REMARK    8  A    between atoms: N_23  and  C_24
REMARK    9  A    between atoms: C_24  and  C_25
REMARK   10  A    between atoms: C_24  and  C_26
REMARK   11  A    between atoms: C_24  and  C_27
REMARK   12  A    between atoms: C_28  and  C_30
REMARK   13  A    between atoms: C_30  and  N_31
REMARK   14  A    between atoms: C_32  and  C_34
REMARK                            x       y       z     vdW  Elec       q    Type
REMARK                         _______ _______ _______ _____ _____    ______ ____
ROOT
ATOM      1  N   UNL     1       1.901  -3.727  -1.404  0.00  0.00    -0.277 N 
ATOM      2  C   UNL     1       0.851  -4.272  -2.049  0.00  0.00    +0.234 C 
ATOM      3  O   UNL     1       0.850  -4.337  -3.260  0.00  0.00    -0.274 OA
ENDROOT
BRANCH   1   4
ATOM      4  C   UNL     1       1.903  -3.648   0.059  0.00  0.00    +0.183 C 
BRANCH   4   9
ATOM      5  C   UNL     1       1.159   1.079   1.651  0.00  0.00    +0.086 C 
ATOM      6  C   UNL     1       0.885  -0.328   1.188  0.00  0.00    +0.102 A 
ATOM      7  C   UNL     1      -0.330  -0.882   1.030  0.00  0.00    +0.045 A 
ATOM      8  C   UNL     1      -0.122  -2.207   0.583  0.00  0.00    +0.046 A 
ATOM      9  C   UNL     1       1.209  -2.384   0.495  0.00  0.00    +0.122 A 
ATOM     10  O   UNL     1       1.813  -1.241   0.857  0.00  0.00    -0.463 OA
ENDBRANCH   4   9
ENDBRANCH   1   4
BRANCH   1  11
ATOM     11  C   UNL     1       3.042  -3.212  -2.166  0.00  0.00    +0.193 C 
BRANCH  11  12
ATOM     12  C   UNL     1       3.906  -4.362  -2.615  0.00  0.00    -0.018 A 
ATOM     13  C   UNL     1       4.235  -5.367  -1.725  0.00  0.00    +0.006 A 
ATOM     14  C   UNL     1       5.028  -6.422  -2.136  0.00  0.00    +0.013 A 
ATOM     15  C   UNL     1       5.492  -6.472  -3.438  0.00  0.00    +0.055 A 
ATOM     16  C   UNL     1       5.162  -5.467  -4.328  0.00  0.00    +0.013 A 
ATOM     17  C   UNL     1       4.365  -4.414  -3.917  0.00  0.00    +0.006 A 
BRANCH  15  18
ATOM     18  C   UNL     1       6.357  -7.621  -3.886  0.00  0.00    +0.417 C 
ATOM     19  F   UNL     1       5.548  -8.648  -4.383  0.00  0.00    -0.166 F 
ATOM     20  F   UNL     1       7.228  -7.185  -4.891  0.00  0.00    -0.166 F 
ATOM     21  F   UNL     1       7.100  -8.097  -2.800  0.00  0.00    -0.166 F 
ENDBRANCH  15  18
ENDBRANCH  11  12
BRANCH  11  22
ATOM     22  C   UNL     1       3.850  -2.285  -1.296  0.00  0.00    +0.238 C 
ATOM     23  O   UNL     1       3.542  -2.121  -0.134  0.00  0.00    -0.273 OA
ATOM     24  N   UNL     1       4.916  -1.638  -1.808  0.00  0.00    -0.309 N 
ATOM     25  H   UNL     1       5.163  -1.770  -2.737  0.00  0.00    +0.149 HD
BRANCH  24  26
ATOM     26  C   UNL     1       5.702  -0.737  -0.961  0.00  0.00    +0.026 C 
ATOM     27  C   UNL     1       6.278  -1.520   0.220  0.00  0.00    +0.031 C 
ATOM     28  C   UNL     1       6.846  -0.137  -1.781  0.00  0.00    +0.031 C 
ATOM     29  C   UNL     1       4.804   0.386  -0.440  0.00  0.00    +0.031 C 
ENDBRANCH  24  26
ENDBRANCH  11  22
ENDBRANCH   1  11
BRANCH   2  30
ATOM     30  C   UNL     1      -0.322  -4.802  -1.265  0.00  0.00    +0.200 C 
BRANCH  30  31
ATOM     31  N   UNL     1      -1.325  -5.339  -2.188  0.00  0.00    -0.303 N 
ATOM     32  C   UNL     1      -2.467  -5.869  -1.709  0.00  0.00    +0.244 C 
ATOM     33  O   UNL     1      -2.666  -5.902  -0.510  0.00  0.00    -0.270 OA
ATOM     34  H   UNL     1      -1.166  -5.312  -3.145  0.00  0.00    +0.150 HD
BRANCH  32  35
ATOM     35  C   UNL     1      -3.478  -6.411  -2.641  0.00  0.00    +0.037 A 
ATOM     36  C   UNL     1      -3.251  -6.380  -4.018  0.00  0.00    +0.013 A 
ATOM     37  C   UNL     1      -4.199  -6.888  -4.882  0.00  0.00    +0.001 A 
ATOM     38  C   UNL     1      -5.373  -7.426  -4.387  0.00  0.00    +0.000 A 
ATOM     39  C   UNL     1      -5.605  -7.460  -3.024  0.00  0.00    +0.001 A 
ATOM     40  C   UNL     1      -4.663  -6.962  -2.148  0.00  0.00    +0.013 A 
ENDBRANCH  32  35
ENDBRANCH  30  31
ENDBRANCH   2  30
TORSDOF 10
