REMARK  Name = ZINC66640570
REMARK  7 active torsions:
REMARK  status: ('A' for Active; 'I' for Inactive)
REMARK    1  A    between atoms: C_1  and  C_2
REMARK    2  A    between atoms: C_12  and  C_16
REMARK    3  A    between atoms: N_18  and  C_19
REMARK    4  A    between atoms: C_19  and  C_20
REMARK    5  A    between atoms: N_24  and  C_25
REMARK    6  A    between atoms: C_25  and  C_26
REMARK    7  A    between atoms: C_25  and  C_27
REMARK                            x       y       z     vdW  Elec       q    Type
REMARK                         _______ _______ _______ _____ _____    ______ ____
ROOT
ATOM      1  C   UNL     1      -0.019   1.526   0.010  0.00  0.00    +0.008 C 
ATOM      2  C   UNL     1       0.002  -0.004   0.002  0.00  0.00    -0.009 C 
ATOM      3  C   UNL     1      -1.434  -0.535   0.014  0.00  0.00    +0.009 C 
ATOM      4  C   UNL     1      -1.422  -2.045  -0.245  0.00  0.00    +0.054 C 
ATOM      5  C   UNL     1      -0.427  -2.687   0.694  0.00  0.00    +0.020 A 
ATOM      6  C   UNL     1       0.531  -2.001   1.354  0.00  0.00    -0.019 A 
ATOM      7  C   UNL     1       1.271  -2.963   2.145  0.00  0.00    +0.004 A 
ATOM      8  C   UNL     1       2.357  -2.838   3.017  0.00  0.00    +0.010 A 
ATOM      9  C   UNL     1       2.821  -3.997   3.618  0.00  0.00    +0.001 A 
ATOM     10  C   UNL     1       2.247  -5.229   3.379  0.00  0.00    +0.015 A 
ATOM     11  C   UNL     1       1.159  -5.386   2.511  0.00  0.00    +0.061 A 
ATOM     12  C   UNL     1       0.672  -4.222   1.889  0.00  0.00    +0.059 A 
ATOM     13  N   UNL     1      -0.346  -4.018   1.011  0.00  0.00    -0.357 N 
ATOM     14  H   UNL     1      -0.927  -4.711   0.661  0.00  0.00    +0.166 HD
ATOM     15  C   UNL     1       0.742  -0.513   1.245  0.00  0.00    +0.040 C 
ENDROOT
BRANCH  11  16
ATOM     16  C   UNL     1       0.554  -6.708   2.262  0.00  0.00    +0.246 C 
ATOM     17  O   UNL     1      -0.390  -6.811   1.503  0.00  0.00    -0.270 OA
ATOM     18  N   UNL     1       1.048  -7.802   2.875  0.00  0.00    -0.304 N 
ATOM     19  H   UNL     1       1.801  -7.720   3.481  0.00  0.00    +0.149 HD
BRANCH  18  20
ATOM     20  C   UNL     1       0.446  -9.115   2.627  0.00  0.00    +0.181 C 
BRANCH  20  21
ATOM     21  C   UNL     1       1.177 -10.161   3.428  0.00  0.00    +0.149 A 
ATOM     22  N   UNL     1       2.178  -9.942   4.219  0.00  0.00    -0.157 NA
ATOM     23  N   UNL     1       2.573 -11.167   4.773  0.00  0.00    -0.254 N 
ATOM     24  C   UNL     1       1.757 -12.117   4.270  0.00  0.00    +0.176 A 
ATOM     25  N   UNL     1       0.887 -11.503   3.442  0.00  0.00    -0.303 N 
ATOM     26  S   UNL     1       1.811 -13.791   4.623  0.00  0.00    -0.011 S 
ATOM     27  H   UNL     1       3.299 -11.306   5.401  0.00  0.00    +0.191 HD
BRANCH  25  28
ATOM     28  C   UNL     1      -0.182 -12.158   2.684  0.00  0.00    +0.085 C 
ATOM     29  C   UNL     1       0.424 -13.202   1.745  0.00  0.00    +0.030 C 
ATOM     30  C   UNL     1      -1.148 -12.842   3.653  0.00  0.00    +0.030 C 
ENDBRANCH  25  28
ENDBRANCH  20  21
ENDBRANCH  18  20
ENDBRANCH  11  16
TORSDOF 4
