REMARK  Name = ZINC39445011
REMARK  7 active torsions:
REMARK  status: ('A' for Active; 'I' for Inactive)
REMARK    1  A    between atoms: C_1  and  C_2
REMARK    2  A    between atoms: C_9  and  C_23
REMARK    3  A    between atoms: C_11  and  C_13
REMARK    4  A    between atoms: C_13  and  N_14
REMARK    5  A    between atoms: N_14  and  C_15
REMARK    6  A    between atoms: N_14  and  C_16
REMARK    7  A    between atoms: C_16  and  C_17
REMARK                            x       y       z     vdW  Elec       q    Type
REMARK                         _______ _______ _______ _____ _____    ______ ____
ROOT
ATOM      1  C   UNL     1       0.838   1.276   0.826  0.00  0.00    +0.047 C 
ATOM      2  C   UNL     1       0.521  -0.184   0.627  0.00  0.00    -0.011 C 
ATOM      3  C   UNL     1       0.362  -0.682  -0.623  0.00  0.00    +0.008 C 
ATOM      4  C   UNL     1       0.067  -2.045  -0.800  0.00  0.00    +0.016 C 
ATOM      5  C   UNL     1      -0.058  -2.853   0.272  0.00  0.00    +0.077 C 
ATOM      6  N   UNL     1       0.098  -2.368   1.538  0.00  0.00    -0.288 N 
ATOM      7  C   UNL     1       0.392  -1.046   1.753  0.00  0.00    +0.124 C 
ATOM      8  N   UNL     1       0.516  -0.746   3.029  0.00  0.00    -0.254 NA
ATOM      9  C   UNL     1       0.304  -1.937   3.857  0.00  0.00    +0.212 C 
ATOM     10  C   UNL     1       0.007  -3.053   2.839  0.00  0.00    +0.097 C 
ENDROOT
BRANCH   9  11
ATOM     11  C   UNL     1       1.541  -2.250   4.658  0.00  0.00    +0.242 C 
ATOM     12  O   UNL     1       2.611  -1.782   4.330  0.00  0.00    -0.273 OA
ATOM     13  N   UNL     1       1.459  -3.050   5.740  0.00  0.00    -0.300 N 
ATOM     14  C   UNL     1       0.172  -3.629   6.147  0.00  0.00    +0.108 C 
ATOM     15  C   UNL     1       0.331  -5.147   6.272  0.00  0.00    +0.019 C 
ATOM     16  C   UNL     1       1.489  -5.457   7.224  0.00  0.00    +0.003 C 
ATOM     17  C   UNL     1       2.788  -4.880   6.656  0.00  0.00    +0.019 C 
ATOM     18  C   UNL     1       2.657  -3.364   6.531  0.00  0.00    +0.108 C 
ENDBRANCH   9  11
BRANCH  10  19
ATOM     19  C   UNL     1      -1.394  -3.632   3.046  0.00  0.00    -0.053 C 
BRANCH  19  20
ATOM     20  N   UNL     1      -2.398  -2.638   2.647  0.00  0.00    +0.383 N 
ATOM     21  C   UNL     1      -2.366  -1.505   3.582  0.00  0.00    -0.096 C 
ATOM     22  H   UNL     1      -2.195  -2.310   1.714  0.00  0.00    -0.082 HD
BRANCH  20  23
ATOM     23  C   UNL     1      -3.732  -3.253   2.669  0.00  0.00    -0.021 C 
BRANCH  23  24
ATOM     24  C   UNL     1      -4.747  -2.271   2.142  0.00  0.00    +0.046 A 
ATOM     25  C   UNL     1      -5.208  -2.196   0.824  0.00  0.00    +0.042 A 
ATOM     26  C   UNL     1      -6.108  -1.188   0.754  0.00  0.00    +0.105 A 
ATOM     27  N   UNL     1      -6.214  -0.645   1.985  0.00  0.00    -0.285 N 
ATOM     28  N   UNL     1      -5.354  -1.346   2.841  0.00  0.00    -0.181 NA
ATOM     29  H   UNL     1      -6.787   0.097   2.234  0.00  0.00    +0.188 HD
ENDBRANCH  23  24
ENDBRANCH  20  23
ENDBRANCH  19  20
ENDBRANCH  10  19
TORSDOF 5
