REMARK  Name = ZINC39962607
REMARK  9 active torsions:
REMARK  status: ('A' for Active; 'I' for Inactive)
REMARK    1  A    between atoms: C_1  and  C_2
REMARK    2  A    between atoms: C_4  and  C_16
REMARK    3  A    between atoms: C_6  and  C_14
REMARK    4  A    between atoms: C_7  and  N_13
REMARK    5  A    between atoms: C_19  and  O_24
REMARK    6  A    between atoms: C_20  and  O_22
REMARK    7  A    between atoms: O_22  and  C_23
REMARK    8  A    between atoms: O_24  and  C_25
REMARK    9  A    between atoms: C_25  and  C_26
REMARK                            x       y       z     vdW  Elec       q    Type
REMARK                         _______ _______ _______ _____ _____    ______ ____
ROOT
ATOM      1  C   UNL     1      -2.762   0.875  -0.717  0.00  0.00    -0.031 A 
ATOM      2  C   UNL     1      -2.274   1.168  -1.977  0.00  0.00    +0.008 A 
ATOM      3  C   UNL     1      -2.478   2.420  -2.526  0.00  0.00    +0.050 A 
ATOM      4  C   UNL     1      -3.174   3.384  -1.814  0.00  0.00    +0.162 A 
ATOM      5  C   UNL     1      -3.665   3.089  -0.546  0.00  0.00    +0.162 A 
ATOM      6  C   UNL     1      -3.461   1.831  -0.003  0.00  0.00    +0.054 A 
ENDROOT
BRANCH   1  10
ATOM      7  C   UNL     1      -0.018   1.503   0.010  0.00  0.00    +0.067 C 
ATOM      8  C   UNL     1       0.002  -0.004   0.002  0.00  0.00    +0.066 C 
ATOM      9  C   UNL     1      -1.064  -0.768   0.003  0.00  0.00    +0.030 C 
ATOM     10  C   UNL     1      -2.537  -0.492  -0.122  0.00  0.00    +0.098 C 
ATOM     11  C   UNL     1      -3.075  -1.565  -1.050  0.00  0.00    +0.097 C 
ATOM     12  C   UNL     1      -2.317  -2.612  -1.438  0.00  0.00    +0.195 C 
ATOM     13  O   UNL     1      -1.033  -2.841  -1.107  0.00  0.00    -0.448 OA
ATOM     14  C   UNL     1      -0.528  -2.199   0.066  0.00  0.00    +0.343 C 
ATOM     15  N   UNL     1       0.921  -1.985   0.002  0.00  0.00    -0.138 NA
ATOM     16  N   UNL     1       1.127  -0.765  -0.013  0.00  0.00    -0.155 NA
BRANCH  12  17
ATOM     17  N   UNL     1      -2.917  -3.538  -2.254  0.00  0.00    -0.329 N 
ATOM     18  H   UNL     1      -3.842  -3.421  -2.523  0.00  0.00    +0.145 HD
ATOM     19  H   UNL     1      -2.417  -4.310  -2.562  0.00  0.00    +0.145 HD
ENDBRANCH  12  17
BRANCH  11  20
ATOM     20  C   UNL     1      -4.422  -1.466  -1.525  0.00  0.00    +0.101 C 
ATOM     21  N   UNL     1      -5.491  -1.387  -1.903  0.00  0.00    -0.191 NA
ENDBRANCH  11  20
ENDBRANCH   1  10
BRANCH   5  22
ATOM     22  O   UNL     1      -4.348   4.032   0.156  0.00  0.00    -0.491 OA
ATOM     23  C   UNL     1      -4.823   3.659   1.451  0.00  0.00    +0.277 C 
ENDBRANCH   5  22
BRANCH   4  24
ATOM     24  O   UNL     1      -3.375   4.616  -2.353  0.00  0.00    -0.484 OA
BRANCH  24  25
ATOM     25  C   UNL     1      -2.841   4.848  -3.659  0.00  0.00    +0.264 C 
BRANCH  25  26
ATOM     26  C   UNL     1      -3.160   6.257  -4.088  0.00  0.00    -0.009 A 
ATOM     27  C   UNL     1      -4.335   6.524  -4.767  0.00  0.00    +0.008 A 
ATOM     28  C   UNL     1      -4.628   7.815  -5.162  0.00  0.00    +0.022 A 
ATOM     29  C   UNL     1      -3.746   8.842  -4.878  0.00  0.00    +0.059 A 
ATOM     30  C   UNL     1      -2.570   8.576  -4.198  0.00  0.00    +0.060 A 
ATOM     31  C   UNL     1      -2.280   7.283  -3.799  0.00  0.00    +0.028 A 
ATOM     32 CL   UNL     1      -1.461   9.863  -3.841  0.00  0.00    -0.082 Cl
ATOM     33 CL   UNL     1      -4.113  10.465  -5.374  0.00  0.00    -0.082 Cl
ENDBRANCH  25  26
ENDBRANCH  24  25
ENDBRANCH   4  24
TORSDOF 7
