REMARK  Name = ZINC24234954
REMARK  5 active torsions:
REMARK  status: ('A' for Active; 'I' for Inactive)
REMARK    1  A    between atoms: C_1  and  C_2
REMARK    2  A    between atoms: C_7  and  N_12
REMARK    3  A    between atoms: C_9  and  C_11
REMARK    4  A    between atoms: N_15  and  C_16
REMARK    5  A    between atoms: C_21  and  N_22
REMARK                            x       y       z     vdW  Elec       q    Type
REMARK                         _______ _______ _______ _____ _____    ______ ____
ROOT
ATOM      1  N   UNL     1      -0.010   1.099   2.451  0.00  0.00    -0.296 N 
ATOM      2  C   UNL     1      -0.122   1.760   3.620  0.00  0.00    +0.304 C 
ATOM      3  O   UNL     1      -0.815   2.757   3.691  0.00  0.00    -0.252 OA
ATOM      4  N   UNL     1       0.534   1.317   4.711  0.00  0.00    -0.267 N 
ATOM      5  H   UNL     1       0.617   0.198   2.387  0.00  0.00    +0.151 HD
ATOM      6  H   UNL     1       1.085   0.366   4.672  0.00  0.00    +0.156 HD
ENDROOT
BRANCH   1  12
ATOM      7  C   UNL     1      -0.017   1.132  -2.493  0.00  0.00    +0.008 C 
ATOM      8  C   UNL     1      -0.742   1.609  -1.233  0.00  0.00    -0.009 C 
ATOM      9  C   UNL     1      -2.170   1.059  -1.228  0.00  0.00    +0.003 C 
ATOM     10  C   UNL     1      -2.895   1.536   0.032  0.00  0.00    +0.002 C 
ATOM     11  C   UNL     1      -2.151   1.032   1.271  0.00  0.00    +0.022 C 
ATOM     12  C   UNL     1      -0.723   1.581   1.266  0.00  0.00    +0.078 C 
ATOM     13  C   UNL     1       0.003   1.105   0.005  0.00  0.00    +0.009 C 
ATOM     14  C   UNL     1       1.431   1.655   0.001  0.00  0.00    +0.009 C 
ENDBRANCH   1  12
BRANCH   4  15
ATOM     15  C   UNL     1       0.513   2.066   5.893  0.00  0.00    +0.065 A 
ATOM     16  C   UNL     1       0.305   3.439   5.843  0.00  0.00    +0.025 A 
ATOM     17  C   UNL     1       0.285   4.175   7.011  0.00  0.00    +0.002 A 
ATOM     18  C   UNL     1       0.471   3.548   8.229  0.00  0.00    +0.002 A 
ATOM     19  C   UNL     1       0.678   2.182   8.282  0.00  0.00    +0.034 A 
ATOM     20  C   UNL     1       0.695   1.439   7.118  0.00  0.00    +0.147 A 
BRANCH  20  21
ATOM     21  N   UNL     1       0.910  -0.025   7.176  0.00  0.00    +0.058 N 
ATOM     22  O   UNL     1       0.980  -0.588   8.254  0.00  0.00    -0.126 OA
ATOM     23  O   UNL     1       1.018  -0.665   6.146  0.00  0.00    -0.126 OA
ENDBRANCH  20  21
ENDBRANCH   4  15
TORSDOF 3
