REMARK  Name = ZINC38965015
REMARK  6 active torsions:
REMARK  status: ('A' for Active; 'I' for Inactive)
REMARK    1  A    between atoms: C_2  and  C_3
REMARK    2  A    between atoms: C_3  and  N_4
REMARK    3  A    between atoms: C_5  and  C_30
REMARK    4  A    between atoms: C_8  and  S_9
REMARK    5  A    between atoms: S_9  and  C_10
REMARK    6  A    between atoms: C_12  and  C_23
REMARK                            x       y       z     vdW  Elec       q    Type
REMARK                         _______ _______ _______ _____ _____    ______ ____
ROOT
ATOM      1  C   UNL     1       0.349  -5.649  -0.090  0.00  0.00    +0.171 C 
ATOM      2  C   UNL     1      -0.111  -6.436  -1.302  0.00  0.00    -0.008 C 
ATOM      3  C   UNL     1       0.438  -7.710  -1.478  0.00  0.00    +0.002 A 
ATOM      4  C   UNL     1       0.064  -8.509  -2.578  0.00  0.00    +0.011 A 
ATOM      5  C   UNL     1       0.609  -9.744  -2.730  0.00  0.00    +0.021 A 
ATOM      6  C   UNL     1       1.537 -10.244  -1.817  0.00  0.00    +0.043 A 
ATOM      7  C   UNL     1       1.940  -9.513  -0.726  0.00  0.00    +0.044 A 
ATOM      8  C   UNL     1       1.414  -8.228  -0.512  0.00  0.00    +0.042 A 
ATOM      9  N   UNL     1       1.807  -7.516   0.550  0.00  0.00    -0.284 N 
ATOM     10  C   UNL     1       1.360  -6.306   0.821  0.00  0.00    +0.235 C 
ATOM     11  O   UNL     1       1.763  -5.717   1.807  0.00  0.00    -0.274 OA
ATOM     12 CL   UNL     1       2.199 -11.830  -2.064  0.00  0.00    -0.083 Cl
ATOM     13  H   UNL     1       2.455  -7.912   1.153  0.00  0.00    +0.155 HD
ENDROOT
BRANCH   2  14
ATOM     14  C   UNL     1      -1.056  -5.905  -2.214  0.00  0.00    -0.001 A 
ATOM     15  C   UNL     1      -0.623  -5.256  -3.383  0.00  0.00    +0.010 A 
ATOM     16  C   UNL     1      -1.549  -4.744  -4.263  0.00  0.00    +0.001 A 
ATOM     17  C   UNL     1      -2.905  -4.867  -4.001  0.00  0.00    +0.001 A 
ATOM     18  C   UNL     1      -3.344  -5.504  -2.853  0.00  0.00    +0.020 A 
ATOM     19  C   UNL     1      -2.433  -6.030  -1.960  0.00  0.00    +0.048 A 
ATOM     20 CL   UNL     1      -2.985  -6.835  -0.524  0.00  0.00    -0.083 Cl
ENDBRANCH   2  14
BRANCH   1  21
ATOM     21  S   UNL     1       1.062  -4.088  -0.679  0.00  0.00    -0.068 S 
BRANCH  21  26
ATOM     22  N   UNL     1       1.842  -1.896   0.874  0.00  0.00    -0.298 N 
ATOM     23  C   UNL     1       1.844  -1.579   2.213  0.00  0.00    +0.167 A 
ATOM     24  N   UNL     1       1.351  -2.614   2.854  0.00  0.00    -0.128 NA
ATOM     25  N   UNL     1       1.045  -3.542   2.020  0.00  0.00    -0.122 NA
ATOM     26  C   UNL     1       1.319  -3.155   0.794  0.00  0.00    +0.193 A 
BRANCH  23  27
ATOM     27  C   UNL     1       2.314  -0.314   2.816  0.00  0.00    +0.037 A 
ATOM     28  C   UNL     1       2.931  -0.310   4.072  0.00  0.00    +0.014 A 
ATOM     29  C   UNL     1       3.352   0.901   4.593  0.00  0.00    +0.020 A 
ATOM     30  C   UNL     1       3.152   2.058   3.861  0.00  0.00    +0.111 A 
ATOM     31  N   UNL     1       2.567   2.025   2.680  0.00  0.00    -0.263 NA
ATOM     32  C   UNL     1       2.154   0.896   2.140  0.00  0.00    +0.122 A 
ENDBRANCH  23  27
BRANCH  22  33
ATOM     33  C   UNL     1       2.300  -1.055  -0.235  0.00  0.00    +0.152 C 
BRANCH  33  35
ATOM     34  C   UNL     1       1.151   0.968  -0.975  0.00  0.00    +0.005 C 
ATOM     35  C   UNL     1       1.122  -0.334  -0.838  0.00  0.00    -0.013 C 
ENDBRANCH  33  35
ENDBRANCH  22  33
ENDBRANCH  21  26
ENDBRANCH   1  21
TORSDOF 6
