REMARK  Name = ZINC14476987
REMARK  6 active torsions:
REMARK  status: ('A' for Active; 'I' for Inactive)
REMARK    1  A    between atoms: C_1  and  C_2
REMARK    2  A    between atoms: C_5  and  N_9
REMARK    3  A    between atoms: C_6  and  C_8
REMARK    4  A    between atoms: N_9  and  S_10
REMARK    5  A    between atoms: S_10  and  C_13
REMARK    6  A    between atoms: C_26  and  C_29
REMARK                            x       y       z     vdW  Elec       q    Type
REMARK                         _______ _______ _______ _____ _____    ______ ____
ROOT
ATOM      1  C   UNL     1       3.576   2.080   3.126  0.00  0.00    +0.109 A 
ATOM      2  C   UNL     1       3.063   0.931   3.699  0.00  0.00    +0.030 A 
ATOM      3  C   UNL     1       2.023   0.258   3.092  0.00  0.00    +0.025 A 
ATOM      4  C   UNL     1       1.484   0.728   1.900  0.00  0.00    +0.031 A 
ATOM      5  C   UNL     1       2.017   1.884   1.320  0.00  0.00    -0.018 A 
ATOM      6  C   UNL     1       3.051   2.553   1.938  0.00  0.00    +0.034 A 
ATOM      7  C   UNL     1       1.442   2.329   0.031  0.00  0.00    +0.049 C 
ATOM      8  C   UNL     1       1.478   3.752  -0.394  0.00  0.00    -0.023 C 
ATOM      9  C   UNL     1       0.406   4.000  -1.136  0.00  0.00    -0.030 C 
ATOM     10  C   UNL     1      -0.463   2.745  -1.236  0.00  0.00    +0.033 C 
ATOM     11  C   UNL     1      -0.082   2.002   0.051  0.00  0.00    +0.029 C 
ATOM     12  C   UNL     1      -0.172   0.487   0.031  0.00  0.00    +0.106 C 
ATOM     13  N   UNL     1       0.419   0.036   1.310  0.00  0.00    -0.336 N 
ATOM     14  H   UNL     1       0.062  -0.752   1.748  0.00  0.00    +0.147 HD
ENDROOT
BRANCH  12  15
ATOM     15  C   UNL     1      -1.611   0.052  -0.063  0.00  0.00    -0.007 A 
ATOM     16  C   UNL     1      -2.316  -0.259   1.085  0.00  0.00    +0.007 A 
ATOM     17  C   UNL     1      -3.637  -0.658   0.999  0.00  0.00    +0.002 A 
ATOM     18  C   UNL     1      -4.254  -0.747  -0.235  0.00  0.00    +0.021 A 
ATOM     19  C   UNL     1      -3.550  -0.438  -1.384  0.00  0.00    +0.060 A 
ATOM     20  C   UNL     1      -2.229  -0.031  -1.298  0.00  0.00    +0.064 A 
ATOM     21 CL   UNL     1      -1.347   0.366  -2.739  0.00  0.00    -0.082 Cl
ATOM     22 CL   UNL     1      -4.325  -0.550  -2.934  0.00  0.00    -0.082 Cl
ENDBRANCH  12  15
BRANCH   1  23
ATOM     23  S   UNL     1       4.900   2.940   3.909  0.00  0.00    +0.072 S 
ATOM     24  O   UNL     1       4.835   4.285   3.455  0.00  0.00    -0.150 OA
ATOM     25  O   UNL     1       4.848   2.598   5.287  0.00  0.00    -0.150 OA
BRANCH  23  26
ATOM     26  N   UNL     1       6.312   2.309   3.318  0.00  0.00    -0.216 N 
ATOM     27  H   UNL     1       6.945   1.889   3.921  0.00  0.00    +0.174 HD
BRANCH  26  32
ATOM     28  C   UNL     1       7.447   2.603  -2.231  0.00  0.00    +0.044 C 
ATOM     29  C   UNL     1       7.145   2.524  -0.756  0.00  0.00    -0.050 A 
ATOM     30  C   UNL     1       6.474   3.561  -0.133  0.00  0.00    +0.005 A 
ATOM     31  C   UNL     1       6.196   3.493   1.218  0.00  0.00    +0.025 A 
ATOM     32  C   UNL     1       6.591   2.381   1.951  0.00  0.00    +0.051 A 
ATOM     33  C   UNL     1       7.269   1.344   1.323  0.00  0.00    -0.028 A 
ATOM     34  C   UNL     1       7.539   1.416  -0.029  0.00  0.00    +0.008 A 
ATOM     35  C   UNL     1       7.705   0.139   2.116  0.00  0.00    +0.046 C 
ENDBRANCH  26  32
ENDBRANCH  23  26
ENDBRANCH   1  23
TORSDOF 4
