REMARK  Name = ZINC06165964
REMARK  7 active torsions:
REMARK  status: ('A' for Active; 'I' for Inactive)
REMARK    1  A    between atoms: C_4  and  N_27
REMARK    2  A    between atoms: C_5  and  C_7
REMARK    3  A    between atoms: N_8  and  N_9
REMARK    4  A    between atoms: C_10  and  C_12
REMARK    5  A    between atoms: C_17  and  N_18
REMARK    6  A    between atoms: N_18  and  S_19
REMARK    7  A    between atoms: S_19  and  C_22
REMARK                            x       y       z     vdW  Elec       q    Type
REMARK                         _______ _______ _______ _____ _____    ______ ____
ROOT
ATOM      1  C   UNL     1       5.350   7.633  -0.009  0.00  0.00    +0.061 A 
ATOM      2  C   UNL     1       6.511   6.866   0.111  0.00  0.00    +0.015 A 
ATOM      3  C   UNL     1       7.746   7.471   0.031  0.00  0.00    +0.001 A 
ATOM      4  C   UNL     1       7.844   8.839  -0.167  0.00  0.00    +0.002 A 
ATOM      5  C   UNL     1       6.707   9.611  -0.287  0.00  0.00    +0.025 A 
ATOM      6  C   UNL     1       5.452   9.018  -0.215  0.00  0.00    +0.060 A 
ENDROOT
BRANCH   1   8
ATOM      7  N   UNL     1       3.932   5.662   0.268  0.00  0.00    -0.203 N 
ATOM      8  C   UNL     1       4.025   6.992   0.075  0.00  0.00    +0.265 C 
ATOM      9  O   UNL     1       3.017   7.664  -0.029  0.00  0.00    -0.268 OA
ATOM     10  H   UNL     1       4.736   5.126   0.351  0.00  0.00    +0.178 HD
BRANCH   7  12
ATOM     11  C   UNL     1       2.583   3.771   0.534  0.00  0.00    +0.140 C 
ATOM     12  N   UNL     1       2.673   5.052   0.348  0.00  0.00    -0.187 NA
BRANCH  11  17
ATOM     13  C   UNL     1      -0.088   1.145   0.777  0.00  0.00    +0.001 A 
ATOM     14  C   UNL     1      -1.231   1.924   0.772  0.00  0.00    +0.002 A 
ATOM     15  C   UNL     1      -1.137   3.303   0.699  0.00  0.00    +0.033 A 
ATOM     16  C   UNL     1       0.099   3.910   0.619  0.00  0.00    +0.135 A 
ATOM     17  C   UNL     1       1.258   3.129   0.618  0.00  0.00    +0.025 A 
ATOM     18  C   UNL     1       1.155   1.738   0.698  0.00  0.00    +0.012 A 
BRANCH  16  19
ATOM     19  N   UNL     1       0.198   5.384   0.535  0.00  0.00    +0.057 N 
ATOM     20  O   UNL     1       0.879   5.996   1.339  0.00  0.00    -0.126 OA
ATOM     21  O   UNL     1      -0.403   5.986  -0.337  0.00  0.00    -0.126 OA
ENDBRANCH  16  19
ENDBRANCH  11  17
ENDBRANCH   7  12
ENDBRANCH   1   8
BRANCH   6  22
ATOM     22  N   UNL     1       4.306   9.792  -0.341  0.00  0.00    -0.215 N 
ATOM     23  H   UNL     1       3.515   9.575   0.177  0.00  0.00    +0.174 HD
BRANCH  22  24
ATOM     24  S   UNL     1       4.290  11.085  -1.375  0.00  0.00    +0.079 S 
ATOM     25  O   UNL     1       2.957  11.579  -1.387  0.00  0.00    -0.149 OA
ATOM     26  O   UNL     1       5.401  11.899  -1.026  0.00  0.00    -0.149 OA
BRANCH  24  27
ATOM     27  C   UNL     1       4.609  10.463  -2.992  0.00  0.00    +0.146 A 
ATOM     28  C   UNL     1       3.732  10.026  -3.928  0.00  0.00    +0.036 A 
ATOM     29  C   UNL     1       4.215   9.577  -5.143  0.00  0.00    +0.010 A 
ATOM     30  C   UNL     1       5.552   9.587  -5.362  0.00  0.00    +0.047 A 
ATOM     31  S   UNL     1       6.174  10.251  -3.826  0.00  0.00    -0.077 S 
ENDBRANCH  24  27
ENDBRANCH  22  24
ENDBRANCH   6  22
TORSDOF 7
