REMARK  Name = ZINC37615540
REMARK  6 active torsions:
REMARK  status: ('A' for Active; 'I' for Inactive)
REMARK    1  A    between atoms: C_1  and  C_2
REMARK    2  A    between atoms: C_2  and  C_3
REMARK    3  A    between atoms: C_2  and  C_6
REMARK    4  A    between atoms: C_2  and  N_21
REMARK    5  A    between atoms: N_8  and  C_9
REMARK    6  A    between atoms: C_14  and  C_17
REMARK                            x       y       z     vdW  Elec       q    Type
REMARK                         _______ _______ _______ _____ _____    ______ ____
ROOT
ATOM      1  C   UNL     1       0.707  -0.490  -1.238  0.00  0.00    +0.202 C 
ATOM      2  O   UNL     1       1.889  -0.763  -1.196  0.00  0.00    -0.277 OA
ATOM      3  N   UNL     1       0.026  -0.622  -2.393  0.00  0.00    -0.314 N 
ATOM      4  H   UNL     1      -0.919  -0.404  -2.426  0.00  0.00    +0.149 HD
ENDROOT
BRANCH   3   5
ATOM      5  C   UNL     1       0.712  -1.094  -3.598  0.00  0.00    +0.073 C 
ATOM      6  C   UNL     1       1.383   0.088  -4.300  0.00  0.00    +0.022 C 
ATOM      7  C   UNL     1       2.099  -0.405  -5.559  0.00  0.00    +0.002 C 
ATOM      8  C   UNL     1       1.083  -1.049  -6.504  0.00  0.00    +0.012 C 
ATOM      9  C   UNL     1       0.412  -2.231  -5.803  0.00  0.00    +0.095 C 
ATOM     10  C   UNL     1      -0.304  -1.738  -4.544  0.00  0.00    +0.034 C 
BRANCH   9  11
ATOM     11  C   UNL     1      -0.604  -2.875  -6.748  0.00  0.00    +0.393 C 
ATOM     12  F   UNL     1       0.050  -3.326  -7.899  0.00  0.00    -0.170 F 
ATOM     13  F   UNL     1      -1.218  -3.956  -6.107  0.00  0.00    -0.170 F 
ATOM     14  F   UNL     1      -1.574  -1.931  -7.103  0.00  0.00    -0.170 F 
ENDBRANCH   9  11
ENDBRANCH   3   5
BRANCH   1  16
ATOM     15  C   UNL     1      -0.019   1.526   0.010  0.00  0.00    -0.001 C 
ATOM     16  C   UNL     1       0.002  -0.004   0.002  0.00  0.00    +0.007 C 
BRANCH  16  17
ATOM     17  N   UNL     1      -1.376  -0.512   0.012  0.00  0.00    +0.388 N 
ATOM     18  H   UNL     1      -1.864  -0.178  -0.805  0.00  0.00    -0.089 HD
ATOM     19  H   UNL     1      -1.362  -1.521   0.007  0.00  0.00    -0.089 HD
ATOM     20  H   UNL     1      -1.848  -0.187   0.843  0.00  0.00    -0.089 HD
ENDBRANCH  16  17
BRANCH  16  21
ATOM     21  C   UNL     1       0.742  -0.511   1.242  0.00  0.00    -0.014 C 
ATOM     22  C   UNL     1       1.566   0.504   2.037  0.00  0.00    +0.003 C 
ATOM     23  C   UNL     1       0.248  -0.027   2.606  0.00  0.00    +0.003 C 
ENDBRANCH  16  21
ENDBRANCH   1  16
TORSDOF 5
