REMARK  Name = ZINC21005547
REMARK  7 active torsions:
REMARK  status: ('A' for Active; 'I' for Inactive)
REMARK    1  A    between atoms: C_1  and  C_2
REMARK    2  A    between atoms: C_2  and  O_3
REMARK    3  A    between atoms: O_3  and  C_4
REMARK    4  A    between atoms: C_4  and  C_6
REMARK    5  A    between atoms: C_7  and  C_29
REMARK    6  A    between atoms: C_18  and  C_20
REMARK    7  A    between atoms: C_24  and  N_26
REMARK                            x       y       z     vdW  Elec       q    Type
REMARK                         _______ _______ _______ _____ _____    ______ ____
ROOT
ATOM      1  C   UNL     1       2.062  -2.548   2.169  0.00  0.00    +0.085 C 
ATOM      2  C   UNL     1       1.476  -3.696   2.588  0.00  0.00    +0.053 C 
ATOM      3  N   UNL     1       1.515  -4.098   3.909  0.00  0.00    -0.284 N 
ATOM      4  C   UNL     1       2.401  -3.445   4.752  0.00  0.00    +0.202 A 
ATOM      5  N   UNL     1       2.784  -3.793   5.951  0.00  0.00    -0.214 NA
ATOM      6  C   UNL     1       3.662  -2.885   6.421  0.00  0.00    +0.091 A 
ATOM      7  C   UNL     1       4.357  -2.798   7.633  0.00  0.00    +0.030 A 
ATOM      8  C   UNL     1       5.198  -1.713   7.798  0.00  0.00    +0.002 A 
ATOM      9  C   UNL     1       5.353  -0.749   6.817  0.00  0.00    +0.002 A 
ATOM     10  C   UNL     1       4.676  -0.814   5.609  0.00  0.00    +0.028 A 
ATOM     11  C   UNL     1       3.825  -1.895   5.419  0.00  0.00    +0.071 A 
ATOM     12  N   UNL     1       3.019  -2.271   4.382  0.00  0.00    -0.300 N 
ATOM     13  C   UNL     1       2.794  -1.616   3.095  0.00  0.00    +0.160 C 
ATOM     14  H   UNL     1       0.944  -4.811   4.235  0.00  0.00    +0.155 HD
ENDROOT
BRANCH  13  15
ATOM     15  C   UNL     1       1.971  -0.372   3.307  0.00  0.00    -0.018 A 
ATOM     16  C   UNL     1       0.708  -0.465   3.863  0.00  0.00    +0.006 A 
ATOM     17  C   UNL     1      -0.047   0.675   4.058  0.00  0.00    +0.003 A 
ATOM     18  C   UNL     1       0.459   1.910   3.698  0.00  0.00    +0.033 A 
ATOM     19  C   UNL     1       1.722   2.004   3.143  0.00  0.00    +0.127 A 
ATOM     20  C   UNL     1       2.479   0.863   2.951  0.00  0.00    +0.038 A 
BRANCH  19  21
ATOM     21  N   UNL     1       2.264   3.326   2.756  0.00  0.00    +0.056 N 
ATOM     22  O   UNL     1       1.603   4.324   2.926  0.00  0.00    -0.126 OA
ATOM     23  O   UNL     1       3.368   3.408   2.270  0.00  0.00    -0.126 OA
ENDBRANCH  19  21
ENDBRANCH  13  15
BRANCH   2  24
ATOM     24  C   UNL     1       0.774  -4.543   1.603  0.00  0.00    -0.003 A 
ATOM     25  C   UNL     1       1.283  -5.800   1.268  0.00  0.00    +0.010 A 
ATOM     26  C   UNL     1       0.622  -6.585   0.347  0.00  0.00    +0.001 A 
ATOM     27  C   UNL     1      -0.544  -6.131  -0.245  0.00  0.00    +0.000 A 
ATOM     28  C   UNL     1      -1.054  -4.887   0.082  0.00  0.00    +0.001 A 
ATOM     29  C   UNL     1      -0.406  -4.094   1.006  0.00  0.00    +0.010 A 
ENDBRANCH   2  24
BRANCH   1  30
ATOM     30  C   UNL     1       1.988  -2.216   0.803  0.00  0.00    +0.339 C 
ATOM     31  O   UNL     1       1.513  -3.008   0.009  0.00  0.00    -0.245 OA
BRANCH  30  32
ATOM     32  O   UNL     1       2.443  -1.020   0.373  0.00  0.00    -0.462 OA
BRANCH  32  34
ATOM     33  C   UNL     1       2.898   0.643  -1.321  0.00  0.00    +0.048 C 
ATOM     34  C   UNL     1       2.336  -0.749  -1.026  0.00  0.00    +0.229 C 
ENDBRANCH  32  34
ENDBRANCH  30  32
ENDBRANCH   1  30
TORSDOF 6
