REMARK  Name = ZINC09661627
REMARK  6 active torsions:
REMARK  status: ('A' for Active; 'I' for Inactive)
REMARK    1  A    between atoms: C_4  and  C_7
REMARK    2  A    between atoms: C_7  and  N_8
REMARK    3  A    between atoms: N_13  and  C_28
REMARK    4  A    between atoms: C_16  and  C_18
REMARK    5  A    between atoms: N_20  and  C_21
REMARK    6  A    between atoms: C_21  and  C_22
REMARK                            x       y       z     vdW  Elec       q    Type
REMARK                         _______ _______ _______ _____ _____    ______ ____
ROOT
ATOM      1  N   UNL     1       7.747  -2.507  -0.362  0.00  0.00    -0.347 N 
ATOM      2  C   UNL     1       7.069  -1.422  -0.780  0.00  0.00    +0.101 A 
ATOM      3  C   UNL     1       5.756  -1.239  -0.430  0.00  0.00    +0.085 A 
ATOM      4  C   UNL     1       4.730  -0.232  -0.687  0.00  0.00    +0.283 A 
ATOM      5  O   UNL     1       4.851   0.785  -1.351  0.00  0.00    -0.265 OA
ATOM      6  N   UNL     1       3.622  -0.650  -0.037  0.00  0.00    -0.196 N 
ATOM      7  N   UNL     1       3.868  -1.864   0.610  0.00  0.00    -0.162 NA
ATOM      8  C   UNL     1       5.095  -2.257   0.418  0.00  0.00    +0.112 A 
ATOM      9  C   UNL     1       5.906  -3.418   0.835  0.00  0.00    +0.081 A 
ATOM     10  C   UNL     1       7.202  -3.476   0.414  0.00  0.00    +0.101 A 
ENDROOT
BRANCH   6  11
ATOM     11  C   UNL     1       2.400   0.031  -0.021  0.00  0.00    +0.069 A 
ATOM     12  C   UNL     1       1.206  -0.680  -0.014  0.00  0.00    +0.028 A 
ATOM     13  C   UNL     1       0.002  -0.004   0.002  0.00  0.00    +0.002 A 
ATOM     14  C   UNL     1      -0.017   1.379   0.010  0.00  0.00    +0.000 A 
ATOM     15  C   UNL     1       1.170   2.090   0.002  0.00  0.00    +0.002 A 
ATOM     16  C   UNL     1       2.377   1.420  -0.013  0.00  0.00    +0.028 A 
ENDBRANCH   6  11
BRANCH   9  17
ATOM     17  C   UNL     1       5.333  -4.480   1.677  0.00  0.00    +0.248 C 
ATOM     18  O   UNL     1       4.174  -4.409   2.041  0.00  0.00    -0.270 OA
ATOM     19  N   UNL     1       6.092  -5.530   2.045  0.00  0.00    -0.309 N 
ATOM     20  H   UNL     1       7.016  -5.587   1.755  0.00  0.00    +0.149 HD
BRANCH  19  21
ATOM     21  C   UNL     1       5.522  -6.588   2.884  0.00  0.00    +0.136 C 
BRANCH  21  22
ATOM     22  C   UNL     1       6.586  -7.653   3.155  0.00  0.00    +0.135 C 
ATOM     23  C   UNL     1       5.996  -8.771   4.037  0.00  0.00    +0.035 C 
ATOM     24  C   UNL     1       6.170 -10.055   3.190  0.00  0.00    +0.031 C 
ATOM     25  C   UNL     1       7.292  -9.643   2.202  0.00  0.00    +0.160 C 
ATOM     26  O   UNL     1       6.998  -8.258   1.917  0.00  0.00    -0.375 OA
ENDBRANCH  21  22
ENDBRANCH  19  21
ENDBRANCH   9  17
BRANCH   1  27
ATOM     27  C   UNL     1       9.148  -2.649  -0.767  0.00  0.00    +0.156 C 
BRANCH  27  31
ATOM     28  C   UNL     1       9.353  -4.782  -4.463  0.00  0.00    +0.000 A 
ATOM     29  C   UNL     1       9.250  -3.403  -4.465  0.00  0.00    +0.000 A 
ATOM     30  C   UNL     1       9.184  -2.713  -3.269  0.00  0.00    +0.005 A 
ATOM     31  C   UNL     1       9.220  -3.401  -2.071  0.00  0.00    -0.028 A 
ATOM     32  C   UNL     1       9.328  -4.779  -2.068  0.00  0.00    +0.005 A 
ATOM     33  C   UNL     1       9.390  -5.470  -3.264  0.00  0.00    +0.000 A 
ENDBRANCH  27  31
ENDBRANCH   1  27
TORSDOF 6
