REMARK  Name = ZINC02769727
REMARK  10 active torsions:
REMARK  status: ('A' for Active; 'I' for Inactive)
REMARK    1  A    between atoms: C_1  and  O_2
REMARK    2  A    between atoms: O_2  and  C_3
REMARK    3  A    between atoms: C_6  and  C_18
REMARK    4  A    between atoms: C_8  and  C_9
REMARK    5  A    between atoms: C_9  and  O_10
REMARK    6  A    between atoms: O_10  and  C_11
REMARK    7  A    between atoms: C_27  and  C_35
REMARK    8  A    between atoms: C_28  and  N_34
REMARK    9  A    between atoms: C_29  and  C_30
REMARK   10  A    between atoms: C_29  and  C_32
REMARK                            x       y       z     vdW  Elec       q    Type
REMARK                         _______ _______ _______ _____ _____    ______ ____
ROOT
ATOM      1  C   UNL     1       7.194   4.715  -0.041  0.00  0.00    +0.066 C 
ATOM      2  C   UNL     1       7.523   4.326  -1.483  0.00  0.00    +0.030 C 
ATOM      3  C   UNL     1       6.507   3.371  -2.062  0.00  0.00    +0.009 C 
ATOM      4  C   UNL     1       5.505   4.082  -2.968  0.00  0.00    +0.005 C 
ATOM      5  C   UNL     1       6.281   4.776  -4.097  0.00  0.00    +0.027 C 
ATOM      6  C   UNL     1       7.199   5.801  -3.462  0.00  0.00    -0.022 C 
ATOM      7  C   UNL     1       7.728   5.587  -2.273  0.00  0.00    -0.029 C 
ATOM      8  C   UNL     1       8.576   6.638  -1.653  0.00  0.00    +0.074 C 
ATOM      9  C   UNL     1       8.864   6.562  -0.329  0.00  0.00    +0.054 C 
ATOM     10  C   UNL     1       8.392   5.452   0.560  0.00  0.00    +0.188 C 
ENDROOT
BRANCH   1  14
ATOM     11  C   UNL     1       3.768   7.269   0.000  0.00  0.00    +0.126 A 
ATOM     12  C   UNL     1       5.035   7.808  -0.177  0.00  0.00    +0.046 A 
ATOM     13  C   UNL     1       6.140   6.980  -0.193  0.00  0.00    +0.007 A 
ATOM     14  C   UNL     1       5.986   5.616  -0.024  0.00  0.00    -0.040 A 
ATOM     15  C   UNL     1       4.726   5.077   0.160  0.00  0.00    +0.014 A 
ATOM     16  C   UNL     1       3.617   5.901   0.174  0.00  0.00    +0.032 A 
BRANCH  11  18
ATOM     17  C   UNL     1       2.909   9.479  -0.176  0.00  0.00    +0.277 C 
ATOM     18  O   UNL     1       2.679   8.081   0.009  0.00  0.00    -0.495 OA
ENDBRANCH  11  18
BRANCH  16  19
ATOM     19  C   UNL     1       2.244   5.314   0.374  0.00  0.00    +0.268 C 
BRANCH  19  20
ATOM     20  O   UNL     1       2.349   3.896   0.522  0.00  0.00    -0.486 OA
BRANCH  20  21
ATOM     21  C   UNL     1       1.193   3.208   0.712  0.00  0.00    +0.139 A 
ATOM     22  C   UNL     1      -0.018   3.883   0.754  0.00  0.00    +0.047 A 
ATOM     23  C   UNL     1      -1.193   3.181   0.947  0.00  0.00    +0.004 A 
ATOM     24  C   UNL     1      -1.163   1.806   1.093  0.00  0.00    +0.002 A 
ATOM     25  C   UNL     1       0.043   1.131   1.057  0.00  0.00    +0.023 A 
ATOM     26  C   UNL     1       1.222   1.828   0.864  0.00  0.00    +0.083 A 
ATOM     27 CL   UNL     1       2.735   0.980   0.811  0.00  0.00    -0.080 Cl
ENDBRANCH  20  21
ENDBRANCH  19  20
ENDBRANCH  16  19
ENDBRANCH   1  14
BRANCH   9  28
ATOM     28  N   UNL     1       9.625   7.553   0.224  0.00  0.00    -0.358 N 
ATOM     29  H   UNL     1       9.876   7.521   1.294  0.00  0.00    +0.142 HD
ATOM     30  H   UNL     1       9.987   8.383  -0.401  0.00  0.00    +0.142 HD
ENDBRANCH   9  28
BRANCH  10  31
ATOM     31  C   UNL     1       8.004   6.014   1.864  0.00  0.00    +0.091 C 
ATOM     32  N   UNL     1       7.705   6.447   2.871  0.00  0.00    -0.194 NA
ENDBRANCH  10  31
BRANCH  10  33
ATOM     33  C   UNL     1       9.494   4.496   0.758  0.00  0.00    +0.091 C 
ATOM     34  N   UNL     1      10.344   3.759   0.910  0.00  0.00    -0.194 NA
ENDBRANCH  10  33
BRANCH   8  35
ATOM     35  C   UNL     1       9.084   7.719  -2.444  0.00  0.00    +0.101 C 
ATOM     36  N   UNL     1       9.488   8.576  -3.071  0.00  0.00    -0.191 NA
ENDBRANCH   8  35
TORSDOF 9
