REMARK  Name = ZINC58370705
REMARK  9 active torsions:
REMARK  status: ('A' for Active; 'I' for Inactive)
REMARK    1  A    between atoms: C_1  and  C_2
REMARK    2  A    between atoms: C_3  and  S_8
REMARK    3  A    between atoms: C_4  and  C_7
REMARK    4  A    between atoms: S_8  and  N_11
REMARK    5  A    between atoms: N_11  and  C_12
REMARK    6  A    between atoms: C_12  and  C_14
REMARK    7  A    between atoms: C_12  and  C_15
REMARK    8  A    between atoms: C_20  and  N_23
REMARK    9  A    between atoms: C_27  and  C_29
REMARK                            x       y       z     vdW  Elec       q    Type
REMARK                         _______ _______ _______ _____ _____    ______ ____
ROOT
ATOM      1  C   UNL     1       3.804  -0.792  -2.921  0.00  0.00    +0.234 C 
ATOM      2  O   UNL     1       3.943   0.332  -2.490  0.00  0.00    -0.274 OA
ATOM      3  N   UNL     1       4.864  -1.621  -2.998  0.00  0.00    -0.300 N 
ATOM      4  C   UNL     1       4.736  -2.944  -3.624  0.00  0.00    +0.106 C 
ATOM      5  C   UNL     1       5.810  -3.083  -4.707  0.00  0.00    +0.004 C 
ATOM      6  C   UNL     1       7.186  -2.807  -4.095  0.00  0.00    -0.065 C 
ATOM      7  C   UNL     1       7.227  -1.376  -3.554  0.00  0.00    +0.004 C 
ATOM      8  C   UNL     1       6.171  -1.216  -2.463  0.00  0.00    +0.106 C 
ENDROOT
BRANCH   6   9
ATOM      9  N   UNL     1       8.221  -2.972  -5.124  0.00  0.00    +0.389 N 
ATOM     10  C   UNL     1       9.569  -2.793  -4.527  0.00  0.00    -0.077 C 
ATOM     11  C   UNL     1      10.500  -3.526  -5.526  0.00  0.00    -0.020 C 
ATOM     12  C   UNL     1       9.654  -4.748  -5.952  0.00  0.00    -0.008 C 
ATOM     13  C   UNL     1       8.196  -4.351  -5.657  0.00  0.00    +0.019 C 
ATOM     14  H   UNL     1       8.079  -2.308  -5.870  0.00  0.00    -0.080 HD
BRANCH  13  15
ATOM     15  C   UNL     1       7.384  -4.396  -6.926  0.00  0.00    +0.197 C 
ATOM     16  O   UNL     1       6.872  -3.384  -7.354  0.00  0.00    -0.278 OA
ATOM     17  N   UNL     1       7.228  -5.561  -7.585  0.00  0.00    -0.331 N 
ATOM     18  H   UNL     1       7.638  -6.371  -7.242  0.00  0.00    +0.145 HD
ATOM     19  H   UNL     1       6.705  -5.590  -8.402  0.00  0.00    +0.145 HD
ENDBRANCH  13  15
ENDBRANCH   6   9
BRANCH   1  20
ATOM     20  C   UNL     1       2.445  -1.264  -3.372  0.00  0.00    +0.159 C 
ATOM     21  C   UNL     1       2.296  -1.026  -4.876  0.00  0.00    +0.035 C 
BRANCH  20  22
ATOM     22  N   UNL     1       1.407  -0.518  -2.655  0.00  0.00    -0.178 NA
ATOM     23  H   UNL     1       1.549   0.414  -2.428  0.00  0.00    +0.149 HD
BRANCH  22  24
ATOM     24  S   UNL     1      -0.008  -1.268  -2.233  0.00  0.00    +0.064 S 
ATOM     25  O   UNL     1      -0.480  -1.931  -3.398  0.00  0.00    -0.153 OA
ATOM     26  O   UNL     1      -0.786  -0.304  -1.537  0.00  0.00    -0.153 OA
BRANCH  24  29
ATOM     27  C   UNL     1       0.163  -1.101   1.090  0.00  0.00    +0.071 C 
ATOM     28  C   UNL     1       0.446  -2.370   0.330  0.00  0.00    +0.107 A 
ATOM     29  C   UNL     1       0.397  -2.525  -1.067  0.00  0.00    +0.169 A 
ATOM     30  C   UNL     1       0.712  -3.802  -1.358  0.00  0.00    +0.161 A 
ATOM     31  O   UNL     1       0.954  -4.443  -0.205  0.00  0.00    -0.358 OA
ATOM     32  N   UNL     1       0.785  -3.515   0.852  0.00  0.00    -0.081 NA
ATOM     33  C   UNL     1       0.780  -4.405  -2.738  0.00  0.00    +0.091 C 
ENDBRANCH  24  29
ENDBRANCH  22  24
ENDBRANCH  20  22
ENDBRANCH   1  20
TORSDOF 6
