REMARK  Name = ZINC58948225
REMARK  4 active torsions:
REMARK  status: ('A' for Active; 'I' for Inactive)
REMARK    1  A    between atoms: C_2  and  N_22
REMARK    2  A    between atoms: C_4  and  S_8
REMARK    3  A    between atoms: S_8  and  C_9
REMARK    4  A    between atoms: C_9  and  C_10
REMARK                            x       y       z     vdW  Elec       q    Type
REMARK                         _______ _______ _______ _____ _____    ______ ____
ROOT
ATOM      1  C   UNL     1       3.304  -2.635  -0.043  0.00  0.00    +0.173 C 
ENDROOT
BRANCH   1   2
ATOM      2  C   UNL     1       4.519  -3.526  -0.058  0.00  0.00    +0.229 C 
ATOM      3  O   UNL     1       5.629  -3.038  -0.066  0.00  0.00    -0.275 OA
ATOM      4  N   UNL     1       4.372  -4.866  -0.064  0.00  0.00    -0.264 N 
ATOM      5  C   UNL     1       5.492  -5.688  -0.078  0.00  0.00    +0.165 A 
ATOM      6  N   UNL     1       6.760  -5.341  -0.083  0.00  0.00    -0.229 NA
ATOM      7  C   UNL     1       7.737  -6.244  -0.097  0.00  0.00    +0.054 A 
ATOM      8  C   UNL     1       7.319  -7.536  -0.107  0.00  0.00    +0.014 A 
ATOM      9  S   UNL     1       5.556  -7.372  -0.087  0.00  0.00    -0.057 S 
ATOM     10  C   UNL     1       8.162  -8.766  -0.126  0.00  0.00    +0.044 C 
ATOM     11  C   UNL     1       9.596  -8.359  -0.502  0.00  0.00    +0.006 C 
ATOM     12  C   UNL     1      10.004  -7.149   0.343  0.00  0.00    +0.006 C 
ATOM     13  C   UNL     1       9.222  -5.910  -0.101  0.00  0.00    +0.056 C 
ATOM     14  H   UNL     1       3.484  -5.256  -0.057  0.00  0.00    +0.157 HD
ENDBRANCH   1   2
BRANCH   1  15
ATOM     15  S   UNL     1       3.828  -0.898  -0.039  0.00  0.00    -0.078 S 
BRANCH  15  19
ATOM     16  C   UNL     1      -0.017   1.384   0.010  0.00  0.00    +0.113 A 
ATOM     17  C   UNL     1       0.002  -0.004   0.002  0.00  0.00    +0.124 A 
ATOM     18  N   UNL     1       1.172  -0.652  -0.013  0.00  0.00    -0.209 NA
ATOM     19  C   UNL     1       2.314   0.004  -0.020  0.00  0.00    +0.171 A 
ATOM     20  N   UNL     1       2.349   1.366  -0.013  0.00  0.00    -0.302 N 
ATOM     21  C   UNL     1       1.200   2.073   0.002  0.00  0.00    +0.254 A 
ATOM     22  O   UNL     1       1.222   3.294   0.008  0.00  0.00    -0.268 OA
ATOM     23  H   UNL     1       3.202   1.828  -0.019  0.00  0.00    +0.171 HD
BRANCH  17  24
ATOM     24  N   UNL     1      -1.182  -0.713   0.010  0.00  0.00    -0.343 N 
ATOM     25  H   UNL     1      -2.030  -0.241   0.021  0.00  0.00    +0.144 HD
ATOM     26  H   UNL     1      -1.167  -1.683   0.005  0.00  0.00    +0.144 HD
ENDBRANCH  17  24
ENDBRANCH  15  19
ENDBRANCH   1  15
TORSDOF 4
