REMARK  Name = ZINC11399586
REMARK  9 active torsions:
REMARK  status: ('A' for Active; 'I' for Inactive)
REMARK    1  A    between atoms: C_1  and  C_2
REMARK    2  A    between atoms: C_2  and  O_3
REMARK    3  A    between atoms: O_3  and  C_4
REMARK    4  A    between atoms: C_4  and  C_6
REMARK    5  A    between atoms: C_7  and  C_14
REMARK    6  A    between atoms: C_8  and  C_12
REMARK    7  A    between atoms: C_9  and  N_11
REMARK    8  A    between atoms: C_14  and  O_15
REMARK    9  A    between atoms: O_15  and  C_16
REMARK                            x       y       z     vdW  Elec       q    Type
REMARK                         _______ _______ _______ _____ _____    ______ ____
ROOT
ATOM      1  C   UNL     1       0.002  -0.004   0.002  0.00  0.00    +0.106 A 
ATOM      2  C   UNL     1      -1.064  -0.881   0.013  0.00  0.00    +0.030 A 
ATOM      3  C   UNL     1      -0.775  -2.236  -0.003  0.00  0.00    +0.087 A 
ATOM      4  C   UNL     1       0.572  -2.617  -0.017  0.00  0.00    +0.082 A 
ATOM      5  S   UNL     1       1.409  -1.099  -0.017  0.00  0.00    -0.066 S 
ENDROOT
BRANCH   4   6
ATOM      6  N   UNL     1       1.102  -3.887  -0.030  0.00  0.00    -0.352 N 
ATOM      7  H   UNL     1       2.064  -4.011  -0.039  0.00  0.00    +0.143 HD
ATOM      8  H   UNL     1       0.514  -4.658  -0.029  0.00  0.00    +0.143 HD
ENDBRANCH   4   6
BRANCH   1   9
ATOM      9  C   UNL     1      -0.017   1.414   0.010  0.00  0.00    +0.346 C 
ATOM     10  O   UNL     1      -1.079   2.008   0.018  0.00  0.00    -0.244 OA
BRANCH   9  11
ATOM     11  O   UNL     1       1.142   2.104   0.003  0.00  0.00    -0.461 OA
BRANCH  11  13
ATOM     12  C   UNL     1       2.454   4.134   0.001  0.00  0.00    +0.048 C 
ATOM     13  C   UNL     1       1.048   3.530   0.011  0.00  0.00    +0.229 C 
ENDBRANCH  11  13
ENDBRANCH   9  11
ENDBRANCH   1   9
BRANCH   3  14
ATOM     14  C   UNL     1      -1.820  -3.215   0.001  0.00  0.00    +0.102 C 
ATOM     15  N   UNL     1      -2.649  -3.991   0.005  0.00  0.00    -0.191 NA
ENDBRANCH   3  14
BRANCH   2  16
ATOM     16  C   UNL     1      -2.486  -0.385   0.037  0.00  0.00    +0.267 C 
BRANCH  16  17
ATOM     17  O   UNL     1      -2.956  -0.220  -1.302  0.00  0.00    -0.486 OA
BRANCH  17  18
ATOM     18  C   UNL     1      -4.231   0.225  -1.459  0.00  0.00    +0.139 A 
ATOM     19  C   UNL     1      -5.013   0.498  -0.346  0.00  0.00    +0.048 A 
ATOM     20  C   UNL     1      -6.309   0.950  -0.507  0.00  0.00    +0.019 A 
ATOM     21  C   UNL     1      -6.827   1.131  -1.777  0.00  0.00    +0.019 A 
ATOM     22  C   UNL     1      -6.049   0.860  -2.889  0.00  0.00    +0.039 A 
ATOM     23  C   UNL     1      -4.750   0.413  -2.732  0.00  0.00    +0.084 A 
ATOM     24 CL   UNL     1      -3.772   0.080  -4.127  0.00  0.00    -0.080 Cl
ATOM     25 BR   UNL     1      -8.601   1.750  -1.994  0.00  0.00    -0.050 Br
ENDBRANCH  17  18
ENDBRANCH  16  17
ENDBRANCH   2  16
TORSDOF 8
