REMARK  Name = ZINC35593244
REMARK  11 active torsions:
REMARK  status: ('A' for Active; 'I' for Inactive)
REMARK    1  A    between atoms: C_1  and  C_2
REMARK    2  A    between atoms: C_2  and  C_3
REMARK    3  A    between atoms: C_3  and  N_4
REMARK    4  A    between atoms: C_5  and  C_7
REMARK    5  A    between atoms: C_7  and  N_8
REMARK    6  A    between atoms: C_11  and  C_21
REMARK    7  A    between atoms: N_13  and  C_14
REMARK    8  A    between atoms: C_21  and  C_22
REMARK    9  A    between atoms: C_21  and  C_23
REMARK   10  A    between atoms: C_21  and  C_24
REMARK   11  A    between atoms: C_25  and  C_31
REMARK                            x       y       z     vdW  Elec       q    Type
REMARK                         _______ _______ _______ _____ _____    ______ ____
ROOT
ATOM      1  N   UNL     1      -6.555 -10.766   0.042  0.00  0.00    -0.246 N 
ATOM      2  C   UNL     1      -6.442  -9.523   0.681  0.00  0.00    +0.136 A 
ATOM      3  C   UNL     1      -6.923  -9.265   1.920  0.00  0.00    +0.034 A 
ATOM      4  C   UNL     1      -6.637  -7.933   2.223  0.00  0.00    +0.075 A 
ATOM      5  N   UNL     1      -6.002  -7.408   1.202  0.00  0.00    -0.169 NA
ATOM      6  N   UNL     1      -5.863  -8.393   0.212  0.00  0.00    -0.218 N 
ATOM      7  C   UNL     1      -7.633 -10.268   2.793  0.00  0.00    +0.113 C 
ATOM      8  S   UNL     1      -9.311 -10.543   2.119  0.00  0.00    -0.138 S 
ATOM      9  C   UNL     1      -8.993 -10.585   0.323  0.00  0.00    +0.166 C 
ATOM     10  C   UNL     1      -7.751 -11.364   0.018  0.00  0.00    +0.231 C 
ATOM     11  O   UNL     1      -7.830 -12.545  -0.248  0.00  0.00    -0.274 OA
ENDROOT
BRANCH   6  12
ATOM     12  C   UNL     1      -5.239  -8.235  -1.034  0.00  0.00    +0.068 A 
ATOM     13  C   UNL     1      -5.820  -8.771  -2.176  0.00  0.00    +0.030 A 
ATOM     14  C   UNL     1      -5.203  -8.614  -3.401  0.00  0.00    +0.040 A 
ATOM     15  C   UNL     1      -4.006  -7.925  -3.493  0.00  0.00    +0.124 A 
ATOM     16  C   UNL     1      -3.425  -7.390  -2.355  0.00  0.00    +0.040 A 
ATOM     17  C   UNL     1      -4.041  -7.539  -1.128  0.00  0.00    +0.030 A 
ATOM     18  F   UNL     1      -3.405  -7.773  -4.693  0.00  0.00    -0.205 F 
ENDBRANCH   6  12
BRANCH   7  19
ATOM     19  C   UNL     1      -7.729  -9.736   4.199  0.00  0.00    -0.012 A 
ATOM     20  C   UNL     1      -8.831  -8.994   4.584  0.00  0.00    +0.006 A 
ATOM     21  C   UNL     1      -8.920  -8.506   5.874  0.00  0.00    +0.000 A 
ATOM     22  C   UNL     1      -7.907  -8.759   6.780  0.00  0.00    +0.001 A 
ATOM     23  C   UNL     1      -6.805  -9.500   6.397  0.00  0.00    +0.020 A 
ATOM     24  C   UNL     1      -6.719  -9.994   5.108  0.00  0.00    +0.046 A 
ATOM     25 CL   UNL     1      -5.338 -10.930   4.627  0.00  0.00    -0.083 Cl
ENDBRANCH   7  19
BRANCH   4  26
ATOM     26  C   UNL     1      -6.995  -7.222   3.502  0.00  0.00    +0.007 C 
ATOM     27  C   UNL     1      -6.362  -7.953   4.687  0.00  0.00    +0.017 C 
ATOM     28  C   UNL     1      -6.471  -5.785   3.450  0.00  0.00    +0.017 C 
ATOM     29  C   UNL     1      -8.516  -7.205   3.667  0.00  0.00    +0.017 C 
ENDBRANCH   4  26
BRANCH   1  30
ATOM     30  C   UNL     1      -5.391 -11.393  -0.590  0.00  0.00    +0.210 C 
BRANCH  30  32
ATOM     31  N   UNL     1      -3.451 -12.757   0.111  0.00  0.00    -0.314 N 
ATOM     32  C   UNL     1      -4.622 -12.177   0.442  0.00  0.00    +0.231 C 
ATOM     33  O   UNL     1      -5.056 -12.287   1.569  0.00  0.00    -0.274 OA
ATOM     34  H   UNL     1      -3.067 -12.609  -0.767  0.00  0.00    +0.149 HD
BRANCH  31  35
ATOM     35  C   UNL     1      -2.757 -13.611   1.079  0.00  0.00    +0.104 C 
BRANCH  35  37
ATOM     36  C   UNL     1      -0.805 -15.130   1.428  0.00  0.00    +0.005 C 
ATOM     37  C   UNL     1      -1.529 -14.239   0.417  0.00  0.00    +0.015 C 
ENDBRANCH  35  37
ENDBRANCH  31  35
ENDBRANCH  30  32
ENDBRANCH   1  30
TORSDOF 7
