REMARK  Name = ZINC14644454
REMARK  13 active torsions:
REMARK  status: ('A' for Active; 'I' for Inactive)
REMARK    1  A    between atoms: C_1  and  C_2
REMARK    2  A    between atoms: C_2  and  C_3
REMARK    3  A    between atoms: C_3  and  O_4
REMARK    4  A    between atoms: O_4  and  C_5
REMARK    5  A    between atoms: C_5  and  C_7
REMARK    6  A    between atoms: C_10  and  O_13
REMARK    7  A    between atoms: O_13  and  C_14
REMARK    8  A    between atoms: C_14  and  C_15
REMARK    9  A    between atoms: N_17  and  N_18
REMARK   10  A    between atoms: C_19  and  C_21
REMARK   11  A    between atoms: C_21  and  C_23
REMARK   12  A    between atoms: C_21  and  O_24
REMARK   13  A    between atoms: O_24  and  C_25
REMARK                            x       y       z     vdW  Elec       q    Type
REMARK                         _______ _______ _______ _____ _____    ______ ____
ROOT
ATOM      1  C   UNL     1      -0.033   0.050  -0.551  0.00  0.00    +0.267 C 
ATOM      2  O   UNL     1       1.001  -0.564  -0.397  0.00  0.00    -0.271 OA
ATOM      3  N   UNL     1      -0.030   1.397  -0.506  0.00  0.00    -0.231 N 
ATOM      4  H   UNL     1      -0.857   1.888  -0.634  0.00  0.00    +0.173 HD
ENDROOT
BRANCH   3   5
ATOM      5  N   UNL     1       1.168   2.088  -0.280  0.00  0.00    -0.231 N 
ATOM      6  C   UNL     1       1.171   3.435  -0.234  0.00  0.00    +0.270 C 
ATOM      7  O   UNL     1       0.136   4.049  -0.389  0.00  0.00    -0.270 OA
ATOM      8  H   UNL     1       1.995   1.597  -0.156  0.00  0.00    +0.173 HD
BRANCH   6   9
ATOM      9  C   UNL     1       2.459   4.178   0.009  0.00  0.00    +0.257 C 
ATOM     10  C   UNL     1       3.413   3.942  -1.164  0.00  0.00    +0.062 C 
BRANCH   9  11
ATOM     11  O   UNL     1       2.188   5.575   0.129  0.00  0.00    -0.479 OA
BRANCH  11  12
ATOM     12  C   UNL     1       3.078   6.319   0.838  0.00  0.00    +0.136 A 
ATOM     13  C   UNL     1       4.245   5.738   1.311  0.00  0.00    +0.048 A 
ATOM     14  C   UNL     1       5.151   6.496   2.027  0.00  0.00    +0.023 A 
ATOM     15  C   UNL     1       4.890   7.831   2.282  0.00  0.00    +0.042 A 
ATOM     16  C   UNL     1       3.724   8.411   1.817  0.00  0.00    +0.039 A 
ATOM     17  C   UNL     1       2.817   7.657   1.095  0.00  0.00    +0.061 A 
ATOM     18 BR   UNL     1       1.222   8.450   0.459  0.00  0.00    -0.046 Br
ATOM     19 CL   UNL     1       6.027   8.779   3.188  0.00  0.00    -0.084 Cl
ENDBRANCH  11  12
ENDBRANCH   9  11
ENDBRANCH   6   9
ENDBRANCH   3   5
BRANCH   1  20
ATOM     20  C   UNL     1      -1.321  -0.693  -0.795  0.00  0.00    +0.326 C 
BRANCH  20  21
ATOM     21  O   UNL     1      -1.067  -2.099  -0.798  0.00  0.00    -0.483 OA
BRANCH  21  25
ATOM     22  C   UNL     1      -4.300  -4.587  -1.429  0.00  0.00    +0.059 A 
ATOM     23  C   UNL     1      -3.026  -5.129  -1.232  0.00  0.00    +0.018 A 
ATOM     24  C   UNL     1      -1.951  -4.295  -1.022  0.00  0.00    +0.046 A 
ATOM     25  C   UNL     1      -2.130  -2.917  -1.006  0.00  0.00    +0.121 A 
ATOM     26  C   UNL     1      -3.395  -2.374  -1.196  0.00  0.00    +0.046 A 
ATOM     27  C   UNL     1      -4.475  -3.200  -1.412  0.00  0.00    +0.018 A 
BRANCH  22  28
ATOM     28  C   UNL     1      -5.455  -5.476  -1.655  0.00  0.00    +0.339 C 
ATOM     29  O   UNL     1      -5.300  -6.681  -1.670  0.00  0.00    -0.245 OA
BRANCH  28  30
ATOM     30  O   UNL     1      -6.681  -4.951  -1.845  0.00  0.00    -0.461 OA
BRANCH  30  31
ATOM     31  C   UNL     1      -7.771  -5.886  -2.062  0.00  0.00    +0.232 C 
BRANCH  31  33
ATOM     32  C   UNL     1     -10.225  -6.096  -2.485  0.00  0.00    +0.007 C 
ATOM     33  C   UNL     1      -9.076  -5.111  -2.256  0.00  0.00    +0.038 C 
ENDBRANCH  31  33
ENDBRANCH  30  31
ENDBRANCH  28  30
ENDBRANCH  22  28
ENDBRANCH  21  25
ENDBRANCH  20  21
ENDBRANCH   1  20
TORSDOF 11
