REMARK  Name = ZINC05724067
REMARK  10 active torsions:
REMARK  status: ('A' for Active; 'I' for Inactive)
REMARK    1  A    between atoms: C_1  and  C_2
REMARK    2  A    between atoms: C_2  and  C_40
REMARK    3  A    between atoms: C_6  and  C_28
REMARK    4  A    between atoms: C_8  and  O_9
REMARK    5  A    between atoms: C_10  and  C_12
REMARK    6  A    between atoms: C_12  and  C_14
REMARK    7  A    between atoms: N_16  and  C_17
REMARK    8  A    between atoms: C_24  and  O_27
REMARK    9  A    between atoms: C_28  and  C_29
REMARK   10  A    between atoms: C_38  and  O_39
REMARK                            x       y       z     vdW  Elec       q    Type
REMARK                         _______ _______ _______ _____ _____    ______ ____
ROOT
ATOM      1  C   UNL     1       1.302   3.438   3.438  0.00  0.00    +0.016 C 
ATOM      2  C   UNL     1      -0.172   3.153   3.729  0.00  0.00    +0.004 C 
ATOM      3  C   UNL     1      -1.034   3.715   2.595  0.00  0.00    +0.086 C 
ATOM      4  C   UNL     1      -0.663   3.021   1.304  0.00  0.00    +0.145 C 
ATOM      5  O   UNL     1      -0.333   3.655   0.331  0.00  0.00    -0.297 OA
ATOM      6  C   UNL     1      -0.718   1.507   1.265  0.00  0.00    +0.125 C 
ATOM      7  C   UNL     1      -0.032   0.996   2.516  0.00  0.00    +0.112 C 
ATOM      8  C   UNL     1      -0.387   1.640   3.837  0.00  0.00    +0.048 C 
ATOM      9  C   UNL     1      -0.569   3.818   5.048  0.00  0.00    +0.016 C 
ENDROOT
BRANCH   7  10
ATOM     10  O   UNL     1       0.776   0.101   2.459  0.00  0.00    -0.510 OA
ATOM     11  H   UNL     1       1.119  -0.098   3.377  0.00  0.00    +0.292 HD
ENDBRANCH   7  10
BRANCH   8  12
ATOM     12  C   UNL     1      -0.832   0.580   4.811  0.00  0.00    +0.247 C 
ATOM     13  O   UNL     1      -1.370  -0.423   4.408  0.00  0.00    -0.282 OA
BRANCH  12  14
ATOM     14  C   UNL     1      -0.607   0.769   6.271  0.00  0.00    +0.288 C 
ATOM     15  O   UNL     1      -0.066   1.778   6.677  0.00  0.00    -0.266 OA
ATOM     16  N   UNL     1      -1.005  -0.179   7.143  0.00  0.00    -0.278 N 
ATOM     17  H   UNL     1      -1.386  -1.009   6.816  0.00  0.00    +0.155 HD
BRANCH  16  18
ATOM     18  C   UNL     1      -0.868   0.033   8.513  0.00  0.00    +0.042 A 
ATOM     19  C   UNL     1       0.098   0.893   8.991  0.00  0.00    +0.024 A 
ATOM     20  C   UNL     1       0.237   1.117  10.357  0.00  0.00    +0.002 A 
ATOM     21  C   UNL     1      -0.564   0.484  11.259  0.00  0.00    +0.008 A 
ATOM     22  C   UNL     1      -1.557  -0.405  10.814  0.00  0.00    -0.016 A 
ATOM     23  C   UNL     1      -1.714  -0.636   9.425  0.00  0.00    +0.007 A 
ATOM     24  C   UNL     1      -2.705  -1.524   8.981  0.00  0.00    +0.055 A 
ATOM     25  C   UNL     1      -3.505  -2.154   9.891  0.00  0.00    +0.118 A 
ATOM     26  C   UNL     1      -3.349  -1.925  11.262  0.00  0.00    +0.046 A 
ATOM     27  C   UNL     1      -2.397  -1.070  11.724  0.00  0.00    +0.012 A 
BRANCH  25  28
ATOM     28  O   UNL     1      -4.465  -3.014   9.460  0.00  0.00    -0.507 OA
ATOM     29  H   UNL     1      -5.320  -2.596   9.289  0.00  0.00    +0.292 HD
ENDBRANCH  25  28
ENDBRANCH  16  18
ENDBRANCH  12  14
ENDBRANCH   8  12
BRANCH   6  30
ATOM     30  C   UNL     1       0.013   0.991   0.024  0.00  0.00    +0.061 C 
BRANCH  30  31
ATOM     31  C   UNL     1      -0.730   1.451  -1.233  0.00  0.00    +0.043 C 
ATOM     32  C   UNL     1      -1.965   2.163  -1.732  0.00  0.00    +0.193 C 
ATOM     33  O   UNL     1      -2.846   2.637  -1.048  0.00  0.00    -0.287 OA
ATOM     34  C   UNL     1      -1.899   2.174  -3.204  0.00  0.00    +0.033 A 
ATOM     35  C   UNL     1      -2.781   2.701  -4.151  0.00  0.00    +0.012 A 
ATOM     36  C   UNL     1      -2.500   2.587  -5.499  0.00  0.00    +0.001 A 
ATOM     37  C   UNL     1      -1.346   1.951  -5.922  0.00  0.00    +0.001 A 
ATOM     38  C   UNL     1      -0.461   1.422  -5.003  0.00  0.00    +0.012 A 
ATOM     39  C   UNL     1      -0.819   0.154  -3.255  0.00  0.00    +0.028 A 
ATOM     40  C   UNL     1       0.043   1.056  -2.469  0.00  0.00    +0.131 C 
BRANCH  40  41
ATOM     41  O   UNL     1       1.163   1.414  -2.760  0.00  0.00    -0.506 OA
ATOM     42  H   UNL     1       1.514   2.023  -2.049  0.00  0.00    +0.292 HD
ENDBRANCH  40  41
ENDBRANCH  30  31
ENDBRANCH   6  30
TORSDOF 8
