REMARK  Name = ZINC16033760
REMARK  5 active torsions:
REMARK  status: ('A' for Active; 'I' for Inactive)
REMARK    1  A    between atoms: C_1  and  C_2
REMARK    2  A    between atoms: C_17  and  C_20
REMARK    3  A    between atoms: C_20  and  C_21
REMARK    4  A    between atoms: N_26  and  C_29
REMARK    5  A    between atoms: C_29  and  C_30
REMARK                            x       y       z     vdW  Elec       q    Type
REMARK                         _______ _______ _______ _____ _____    ______ ____
ROOT
ATOM      1  C   UNL     1       0.521   0.941   0.551  0.00  0.00    +0.044 C 
ATOM      2  C   UNL     1       0.569  -0.549   0.333  0.00  0.00    -0.049 A 
ATOM      3  C   UNL     1       0.291  -1.077  -0.916  0.00  0.00    +0.011 A 
ATOM      4  C   UNL     1       0.335  -2.438  -1.115  0.00  0.00    +0.005 A 
ATOM      5  C   UNL     1       0.660  -3.297  -0.069  0.00  0.00    +0.057 A 
ATOM      6  C   UNL     1       0.939  -2.759   1.185  0.00  0.00    +0.063 A 
ATOM      7  C   UNL     1       0.897  -1.392   1.379  0.00  0.00    +0.025 A 
ATOM      8 CL   UNL     1       1.345  -3.808   2.508  0.00  0.00    -0.082 Cl
ATOM      9  N   UNL     1       0.645  -4.623  -0.510  0.00  0.00    -0.282 N 
ATOM     10  C   UNL     1       0.321  -4.720  -1.814  0.00  0.00    +0.243 C 
ATOM     11  O   UNL     1       0.232  -5.740  -2.464  0.00  0.00    -0.273 OA
ATOM     12  C   UNL     1       0.091  -3.318  -2.308  0.00  0.00    +0.136 C 
ATOM     13  C   UNL     1       1.029  -2.970  -3.469  0.00  0.00    +0.122 C 
ATOM     14  C   UNL     1       0.176  -2.069  -4.406  0.00  0.00    +0.107 C 
ATOM     15  C   UNL     1      -1.197  -1.961  -3.708  0.00  0.00    +0.076 C 
ATOM     16  N   UNL     1      -1.279  -3.151  -2.829  0.00  0.00    -0.295 NA
ATOM     17  C   UNL     1       0.885  -0.735  -4.346  0.00  0.00    +0.227 C 
ATOM     18  O   UNL     1       0.546   0.265  -4.942  0.00  0.00    -0.275 OA
ATOM     19  N   UNL     1       1.944  -0.830  -3.534  0.00  0.00    -0.237 N 
ATOM     20  C   UNL     1       2.127  -2.051  -2.984  0.00  0.00    +0.229 C 
ATOM     21  O   UNL     1       3.019  -2.366  -2.225  0.00  0.00    -0.275 OA
ATOM     22  H   UNL     1       0.845  -5.385   0.056  0.00  0.00    +0.155 HD
ATOM     23  H   UNL     1      -1.565  -3.960  -3.359  0.00  0.00    +0.124 HD
ENDROOT
BRANCH  15  24
ATOM     24  C   UNL     1      -2.323  -1.964  -4.744  0.00  0.00    +0.115 C 
BRANCH  24  25
ATOM     25  C   UNL     1      -3.642  -1.735  -4.053  0.00  0.00    +0.212 C 
ATOM     26  O   UNL     1      -3.679  -1.585  -2.850  0.00  0.00    -0.276 OA
ATOM     27  N   UNL     1      -4.782  -1.697  -4.771  0.00  0.00    -0.329 N 
ATOM     28  H   UNL     1      -4.753  -1.817  -5.733  0.00  0.00    +0.145 HD
ATOM     29  H   UNL     1      -5.631  -1.550  -4.326  0.00  0.00    +0.145 HD
ENDBRANCH  24  25
ENDBRANCH  15  24
BRANCH  19  30
ATOM     30  C   UNL     1       2.840   0.298  -3.266  0.00  0.00    +0.153 C 
BRANCH  30  31
ATOM     31  C   UNL     1       4.046   0.206  -4.165  0.00  0.00    -0.011 A 
ATOM     32  C   UNL     1       5.207  -0.388  -3.707  0.00  0.00    +0.006 A 
ATOM     33  C   UNL     1       6.312  -0.472  -4.532  0.00  0.00    +0.000 A 
ATOM     34  C   UNL     1       6.258   0.039  -5.816  0.00  0.00    +0.001 A 
ATOM     35  C   UNL     1       5.098   0.633  -6.275  0.00  0.00    +0.020 A 
ATOM     36  C   UNL     1       3.989   0.712  -5.452  0.00  0.00    +0.046 A 
ATOM     37 CL   UNL     1       2.529   1.453  -6.030  0.00  0.00    -0.083 Cl
ENDBRANCH  30  31
ENDBRANCH  19  30
TORSDOF 4
