REMARK  Name = ZINC39654510
REMARK  10 active torsions:
REMARK  status: ('A' for Active; 'I' for Inactive)
REMARK    1  A    between atoms: C_1  and  C_2
REMARK    2  A    between atoms: C_2  and  C_3
REMARK    3  A    between atoms: C_6  and  C_9
REMARK    4  A    between atoms: C_9  and  C_10
REMARK    5  A    between atoms: C_10  and  N_11
REMARK    6  A    between atoms: C_12  and  C_14
REMARK    7  A    between atoms: C_25  and  C_27
REMARK    8  A    between atoms: C_28  and  C_38
REMARK    9  A    between atoms: C_31  and  C_32
REMARK   10  A    between atoms: C_34  and  C_37
REMARK                            x       y       z     vdW  Elec       q    Type
REMARK                         _______ _______ _______ _____ _____    ______ ____
ROOT
ATOM      1  C   UNL     1     -10.222  -0.998   0.084  0.00  0.00    +0.100 C 
ATOM      2  C   UNL     1     -10.450  -1.907   1.312  0.00  0.00    +0.121 C 
ATOM      3  N   UNL     1     -11.038  -1.012   2.336  0.00  0.00    -0.296 N 
ATOM      4  C   UNL     1     -11.964  -0.139   1.575  0.00  0.00    +0.115 C 
ATOM      5  C   UNL     1     -11.219   0.159   0.259  0.00  0.00    -0.004 C 
ATOM      6  C   UNL     1     -10.475   1.487   0.364  0.00  0.00    -0.010 C 
ATOM      7  C   UNL     1     -11.490   2.628   0.480  0.00  0.00    -0.082 C 
ATOM      8  N   UNL     1     -12.366   2.627  -0.698  0.00  0.00    +0.379 N 
ATOM      9  C   UNL     1     -13.147   1.385  -0.741  0.00  0.00    -0.082 C 
ATOM     10  C   UNL     1     -12.202   0.191  -0.908  0.00  0.00    -0.010 C 
ATOM     11  C   UNL     1     -10.789  -0.996   3.661  0.00  0.00    +0.252 C 
ATOM     12  O   UNL     1     -11.357  -0.194   4.377  0.00  0.00    -0.270 OA
ATOM     13  H   UNL     1     -12.994   3.416  -0.649  0.00  0.00    -0.086 HD
ATOM     14  H   UNL     1     -11.805   2.699  -1.533  0.00  0.00    -0.086 HD
ENDROOT
BRANCH  11  15
ATOM     15  C   UNL     1      -9.828  -1.950   4.241  0.00  0.00    +0.108 A 
ATOM     16  C   UNL     1      -8.436  -1.743   4.409  0.00  0.00    +0.093 A 
ATOM     17  N   UNL     1      -7.931  -2.809   4.953  0.00  0.00    -0.082 NA
ATOM     18  O   UNL     1      -8.965  -3.751   5.161  0.00  0.00    -0.352 OA
ATOM     19  C   UNL     1     -10.118  -3.215   4.730  0.00  0.00    +0.201 A 
ATOM     20  C   UNL     1      -7.674  -0.501   4.023  0.00  0.00    +0.070 C 
BRANCH  19  21
ATOM     21  C   UNL     1     -11.450  -3.857   4.766  0.00  0.00    +0.152 A 
ATOM     22  C   UNL     1     -11.742  -5.148   5.271  0.00  0.00    +0.079 A 
ATOM     23  C   UNL     1     -13.061  -5.363   5.126  0.00  0.00    +0.135 A 
ATOM     24  O   UNL     1     -13.605  -4.276   4.557  0.00  0.00    -0.359 OA
ATOM     25  N   UNL     1     -12.574  -3.330   4.340  0.00  0.00    -0.075 NA
ATOM     26  C   UNL     1     -13.802  -6.611   5.531  0.00  0.00    +0.089 C 
ENDBRANCH  19  21
ENDBRANCH  11  15
BRANCH   1  28
ATOM     27  N   UNL     1      -8.243  -0.086  -1.086  0.00  0.00    -0.315 N 
ATOM     28  C   UNL     1      -8.808  -0.475   0.073  0.00  0.00    +0.218 C 
ATOM     29  O   UNL     1      -8.180  -0.405   1.108  0.00  0.00    -0.275 OA
ATOM     30  H   UNL     1      -8.745  -0.142  -1.914  0.00  0.00    +0.149 HD
BRANCH  27  31
ATOM     31  C   UNL     1      -6.869   0.422  -1.097  0.00  0.00    +0.109 C 
BRANCH  31  32
ATOM     32  C   UNL     1      -6.472   0.791  -2.528  0.00  0.00    +0.054 C 
BRANCH  32  36
ATOM     33  C   UNL     1      -2.466   2.273  -2.560  0.00  0.00    -0.048 A 
ATOM     34  C   UNL     1      -2.704   0.921  -2.727  0.00  0.00    +0.004 A 
ATOM     35  C   UNL     1      -4.001   0.442  -2.717  0.00  0.00    +0.004 A 
ATOM     36  C   UNL     1      -5.059   1.314  -2.538  0.00  0.00    -0.046 A 
ATOM     37  C   UNL     1      -4.820   2.665  -2.370  0.00  0.00    +0.004 A 
ATOM     38  C   UNL     1      -3.523   3.144  -2.377  0.00  0.00    +0.004 A 
BRANCH  33  40
ATOM     39  C   UNL     1      -0.489   2.775  -1.150  0.00  0.00    +0.009 C 
ATOM     40  C   UNL     1      -1.052   2.795  -2.572  0.00  0.00    +0.032 C 
ENDBRANCH  33  40
ENDBRANCH  32  36
ENDBRANCH  31  32
ENDBRANCH  27  31
ENDBRANCH   1  28
TORSDOF 7
