REMARK  Name = ZINC16480516
REMARK  13 active torsions:
REMARK  status: ('A' for Active; 'I' for Inactive)
REMARK    1  A    between atoms: C_1  and  C_2
REMARK    2  A    between atoms: C_2  and  C_3
REMARK    3  A    between atoms: C_3  and  C_4
REMARK    4  A    between atoms: C_4  and  N_5
REMARK    5  A    between atoms: N_5  and  C_6
REMARK    6  A    between atoms: C_7  and  N_19
REMARK    7  A    between atoms: N_8  and  C_15
REMARK    8  A    between atoms: C_15  and  C_16
REMARK    9  A    between atoms: C_16  and  C_17
REMARK   10  A    between atoms: C_16  and  C_18
REMARK   11  A    between atoms: C_20  and  C_22
REMARK   12  A    between atoms: C_22  and  N_23
REMARK   13  A    between atoms: N_26  and  C_29
REMARK                            x       y       z     vdW  Elec       q    Type
REMARK                         _______ _______ _______ _____ _____    ______ ____
ROOT
ATOM      1  N   UNL     1       1.434  -2.542   2.329  0.00  0.00    -0.263 N 
ATOM      2  C   UNL     1       2.720  -2.872   2.088  0.00  0.00    +0.234 C 
ATOM      3  O   UNL     1       3.384  -3.400   2.956  0.00  0.00    -0.274 OA
ENDROOT
BRANCH   1   4
ATOM      4  C   UNL     1       0.894  -2.704   3.622  0.00  0.00    +0.140 A 
ATOM      5  C   UNL     1      -0.106  -3.625   3.854  0.00  0.00    +0.127 A 
ATOM      6  N   UNL     1      -0.613  -3.760   5.126  0.00  0.00    -0.280 N 
ATOM      7  C   UNL     1      -0.139  -3.003   6.131  0.00  0.00    +0.331 A 
ATOM      8  O   UNL     1      -0.600  -3.137   7.249  0.00  0.00    -0.246 OA
ATOM      9  N   UNL     1       0.836  -2.100   5.924  0.00  0.00    -0.273 N 
ATOM     10  H   UNL     1       1.161  -1.566   6.666  0.00  0.00    +0.173 HD
ATOM     11  C   UNL     1       1.371  -1.932   4.699  0.00  0.00    +0.277 A 
ATOM     12  O   UNL     1       2.258  -1.114   4.522  0.00  0.00    -0.266 OA
BRANCH   5  13
ATOM     13  N   UNL     1      -0.591  -4.399   2.827  0.00  0.00    -0.343 N 
ATOM     14  H   UNL     1      -0.274  -4.256   1.921  0.00  0.00    +0.144 HD
ATOM     15  H   UNL     1      -1.251  -5.087   3.007  0.00  0.00    +0.144 HD
ENDBRANCH   5  13
BRANCH   6  16
ATOM     16  C   UNL     1      -1.675  -4.735   5.387  0.00  0.00    +0.131 C 
BRANCH  16  17
ATOM     17  C   UNL     1      -1.052  -6.080   5.766  0.00  0.00    +0.003 C 
ATOM     18  C   UNL     1      -2.157  -7.061   6.159  0.00  0.00    +0.009 C 
ATOM     19  C   UNL     1      -0.275  -6.637   4.572  0.00  0.00    +0.009 C 
ENDBRANCH  16  17
ENDBRANCH   6  16
ENDBRANCH   1   4
BRANCH   1  20
ATOM     20  C   UNL     1       0.599  -2.014   1.247  0.00  0.00    +0.114 C 
BRANCH  20  21
ATOM     21  C   UNL     1       0.626  -0.485   1.281  0.00  0.00    +0.019 C 
BRANCH  21  23
ATOM     22  C   UNL     1      -0.220   1.595   0.186  0.00  0.00    +0.004 C 
ATOM     23  C   UNL     1      -0.247   0.066   0.151  0.00  0.00    -0.002 C 
ENDBRANCH  21  23
ENDBRANCH  20  21
ENDBRANCH   1  20
BRANCH   2  24
ATOM     24  C   UNL     1       3.333  -2.586   0.741  0.00  0.00    +0.181 C 
BRANCH  24  25
ATOM     25  N   UNL     1       4.731  -3.037   0.733  0.00  0.00    -0.291 NA
ATOM     26  C   UNL     1       5.544  -2.249   1.669  0.00  0.00    +0.104 C 
ATOM     27  C   UNL     1       6.944  -2.862   1.767  0.00  0.00    +0.120 C 
ATOM     28  N   UNL     1       7.498  -2.980   0.409  0.00  0.00    -0.326 N 
ATOM     29  C   UNL     1       6.681  -3.638  -0.621  0.00  0.00    +0.120 C 
ATOM     30  C   UNL     1       5.290  -2.994  -0.624  0.00  0.00    +0.104 C 
BRANCH  28  31
ATOM     31  C   UNL     1       8.767  -2.479   0.106  0.00  0.00    +0.048 A 
ATOM     32  C   UNL     1       9.886  -3.291   0.241  0.00  0.00    +0.024 A 
ATOM     33  C   UNL     1      11.139  -2.794  -0.060  0.00  0.00    +0.002 A 
ATOM     34  C   UNL     1      11.281  -1.488  -0.493  0.00  0.00    +0.002 A 
ATOM     35  C   UNL     1      10.170  -0.677  -0.628  0.00  0.00    +0.022 A 
ATOM     36  C   UNL     1       8.912  -1.170  -0.335  0.00  0.00    +0.062 A 
ATOM     37 CL   UNL     1       7.517  -0.152  -0.511  0.00  0.00    -0.082 Cl
ENDBRANCH  28  31
ENDBRANCH  24  25
ENDBRANCH   2  24
TORSDOF 10
