REMARK  Name = ZINC54932348
REMARK  7 active torsions:
REMARK  status: ('A' for Active; 'I' for Inactive)
REMARK    1  A    between atoms: C_1  and  C_2
REMARK    2  A    between atoms: C_2  and  C_3
REMARK    3  A    between atoms: C_3  and  C_5
REMARK    4  A    between atoms: C_3  and  N_23
REMARK    5  A    between atoms: C_5  and  C_7
REMARK    6  A    between atoms: C_5  and  O_14
REMARK    7  A    between atoms: O_14  and  C_15
REMARK                            x       y       z     vdW  Elec       q    Type
REMARK                         _______ _______ _______ _____ _____    ______ ____
ROOT
ATOM      1  C   UNL     1      -1.420  -2.123  -0.106  0.00  0.00    +0.189 C 
ENDROOT
BRANCH   1   2
ATOM      2  C   UNL     1      -2.719  -2.881  -0.013  0.00  0.00    -0.009 A 
ATOM      3  C   UNL     1      -3.476  -3.099  -1.149  0.00  0.00    +0.008 A 
ATOM      4  C   UNL     1      -4.667  -3.795  -1.064  0.00  0.00    +0.015 A 
ATOM      5  C   UNL     1      -5.102  -4.274   0.159  0.00  0.00    +0.018 A 
ATOM      6  C   UNL     1      -4.344  -4.056   1.296  0.00  0.00    +0.015 A 
ATOM      7  C   UNL     1      -3.151  -3.365   1.209  0.00  0.00    +0.008 A 
ATOM      8 BR   UNL     1      -6.732  -5.225   0.276  0.00  0.00    -0.050 Br
ENDBRANCH   1   2
BRANCH   1   9
ATOM      9  C   UNL     1      -1.699  -0.621  -0.022  0.00  0.00    -0.029 C 
BRANCH   9  10
ATOM     10  N   UNL     1      -2.354  -0.315   1.257  0.00  0.00    +0.383 N 
ATOM     11  H   UNL     1      -2.538   0.675   1.312  0.00  0.00    -0.089 HD
ATOM     12  H   UNL     1      -3.224  -0.823   1.319  0.00  0.00    -0.089 HD
ATOM     13  H   UNL     1      -1.750  -0.588   2.018  0.00  0.00    -0.089 HD
ENDBRANCH   9  10
BRANCH   9  15
ATOM     14  C   UNL     1      -0.669   1.651  -0.159  0.00  0.00    +0.002 C 
ATOM     15  C   UNL     1      -0.381   0.149  -0.117  0.00  0.00    -0.016 C 
ENDBRANCH   9  15
ENDBRANCH   1   9
BRANCH   1  16
ATOM     16  O   UNL     1      -0.783  -2.420  -1.350  0.00  0.00    -0.486 OA
BRANCH  16  17
ATOM     17  C   UNL     1       0.573  -2.512  -1.343  0.00  0.00    +0.127 A 
ATOM     18  C   UNL     1       1.258  -2.752  -2.525  0.00  0.00    +0.084 A 
ATOM     19  C   UNL     1       2.639  -2.844  -2.516  0.00  0.00    +0.130 A 
ATOM     20  C   UNL     1       3.336  -2.698  -1.329  0.00  0.00    +0.077 A 
ATOM     21  C   UNL     1       2.652  -2.459  -0.148  0.00  0.00    +0.130 A 
ATOM     22  C   UNL     1       1.272  -2.360  -0.155  0.00  0.00    +0.084 A 
ATOM     23  F   UNL     1       3.334  -2.316   1.009  0.00  0.00    -0.205 F 
ATOM     24  F   UNL     1       3.307  -3.078  -3.667  0.00  0.00    -0.205 F 
ENDBRANCH  16  17
ENDBRANCH   1  16
TORSDOF 6
