REMARK  Name = ZINC48970525
REMARK  8 active torsions:
REMARK  status: ('A' for Active; 'I' for Inactive)
REMARK    1  A    between atoms: C_1  and  C_2
REMARK    2  A    between atoms: C_2  and  N_3
REMARK    3  A    between atoms: N_3  and  C_4
REMARK    4  A    between atoms: C_4  and  C_5
REMARK    5  A    between atoms: C_11  and  C_18
REMARK    6  A    between atoms: C_12  and  C_17
REMARK    7  A    between atoms: C_13  and  C_16
REMARK    8  A    between atoms: N_19  and  O_20
REMARK                            x       y       z     vdW  Elec       q    Type
REMARK                         _______ _______ _______ _____ _____    ______ ____
ROOT
ATOM      1  N   UNL     1      -1.458  -0.399   0.086  0.00  0.00    -0.309 N 
ATOM      2  C   UNL     1      -1.968  -0.826   1.302  0.00  0.00    +0.153 A 
ATOM      3  C   UNL     1      -1.260  -0.581   2.493  0.00  0.00    +0.064 A 
ATOM      4  C   UNL     1      -1.825  -1.037   3.689  0.00  0.00    -0.016 A 
ATOM      5  C   UNL     1      -3.041  -1.698   3.620  0.00  0.00    +0.035 A 
ATOM      6  N   UNL     1      -3.631  -1.882   2.456  0.00  0.00    -0.280 N 
ATOM      7  N   UNL     1      -3.127  -1.465   1.352  0.00  0.00    -0.158 NA
ATOM      8  C   UNL     1      -3.691  -2.208   4.881  0.00  0.00    +0.065 C 
ATOM      9  C   UNL     1      -1.134  -0.816   5.009  0.00  0.00    +0.046 C 
ATOM     10  H   UNL     1      -4.481  -2.348   2.433  0.00  0.00    +0.189 HD
ENDROOT
BRANCH   3  11
ATOM     11  C   UNL     1       0.035   0.133   2.481  0.00  0.00    +0.166 C 
ATOM     12  N   UNL     1       0.061   1.433   2.415  0.00  0.00    -0.071 NA
ATOM     13  N   UNL     1       1.220  -0.581   2.541  0.00  0.00    -0.340 N 
ATOM     14  H   UNL     1       1.203  -1.551   2.533  0.00  0.00    +0.144 HD
ATOM     15  H   UNL     1       2.067  -0.111   2.590  0.00  0.00    +0.144 HD
BRANCH  12  16
ATOM     16  O   UNL     1       1.301   2.116   2.404  0.00  0.00    -0.408 OA
ATOM     17  H   UNL     1       1.219   3.078   2.353  0.00  0.00    +0.328 HD
ENDBRANCH  12  16
ENDBRANCH   3  11
BRANCH   1  19
ATOM     18  C   UNL     1       0.764  -1.333  -0.331  0.00  0.00    +0.024 C 
ATOM     19  C   UNL     1      -0.705  -1.328  -0.761  0.00  0.00    +0.103 C 
ENDBRANCH   1  19
BRANCH   1  20
ATOM     20  C   UNL     1      -1.671   0.983  -0.353  0.00  0.00    +0.148 C 
BRANCH  20  21
ATOM     21  C   UNL     1      -2.950   1.065  -1.147  0.00  0.00    +0.007 A 
ATOM     22  C   UNL     1      -4.209   1.316  -0.712  0.00  0.00    +0.013 A 
ATOM     23  C   UNL     1      -5.242   1.345  -1.631  0.00  0.00    +0.008 A 
ATOM     24  C   UNL     1      -4.964   1.122  -2.939  0.00  0.00    +0.045 A 
ATOM     25  S   UNL     1      -3.198   0.867  -2.903  0.00  0.00    -0.100 S 
ENDBRANCH  20  21
ENDBRANCH   1  20
TORSDOF 5
