REMARK  Name = ZINC32428473
REMARK  9 active torsions:
REMARK  status: ('A' for Active; 'I' for Inactive)
REMARK    1  A    between atoms: C_1  and  C_2
REMARK    2  A    between atoms: C_5  and  S_9
REMARK    3  A    between atoms: C_6  and  C_8
REMARK    4  A    between atoms: S_9  and  N_12
REMARK    5  A    between atoms: C_15  and  C_18
REMARK    6  A    between atoms: N_20  and  C_21
REMARK    7  A    between atoms: C_21  and  C_22
REMARK    8  A    between atoms: C_22  and  C_24
REMARK    9  A    between atoms: C_22  and  N_25
REMARK                            x       y       z     vdW  Elec       q    Type
REMARK                         _______ _______ _______ _____ _____    ______ ____
ROOT
ATOM      1  N   UNL     1       0.970  -0.476  -1.269  0.00  0.00    -0.177 NA
ATOM      2  C   UNL     1       0.383  -0.029   0.002  0.00  0.00    +0.110 C 
ATOM      3  C   UNL     1       0.357   1.503   0.021  0.00  0.00    +0.030 C 
ATOM      4  C   UNL     1       1.766   2.037  -0.243  0.00  0.00    +0.077 C 
ATOM      5  C   UNL     1       2.236   1.579  -1.626  0.00  0.00    +0.030 C 
ATOM      6  C   UNL     1       2.284   0.048  -1.663  0.00  0.00    +0.110 C 
ENDROOT
BRANCH   4   7
ATOM      7  C   UNL     1       1.751   3.543  -0.191  0.00  0.00    +0.216 C 
ATOM      8  O   UNL     1       0.714   4.131   0.034  0.00  0.00    -0.276 OA
ATOM      9  N   UNL     1       2.888   4.236  -0.396  0.00  0.00    -0.317 N 
ATOM     10  H   UNL     1       3.828   3.702  -0.600  0.00  0.00    +0.149 HD
BRANCH   9  11
ATOM     11  C   UNL     1       2.873   5.700  -0.345  0.00  0.00    +0.089 C 
BRANCH  11  12
ATOM     12  C   UNL     1       4.282   6.234  -0.609  0.00  0.00    -0.054 C 
ATOM     13  C   UNL     1       4.244   7.762  -0.680  0.00  0.00    -0.012 C 
BRANCH  12  14
ATOM     14  N   UNL     1       4.779   5.697  -1.883  0.00  0.00    +0.385 N 
ATOM     15  C   UNL     1       6.134   6.190  -2.170  0.00  0.00    -0.073 C 
ATOM     16  C   UNL     1       6.762   5.306  -3.261  0.00  0.00    +0.024 C 
ATOM     17  C   UNL     1       5.750   5.135  -4.346  0.00  0.00    -0.011 A 
ATOM     18  C   UNL     1       4.421   5.428  -4.274  0.00  0.00    -0.054 A 
ATOM     19  C   UNL     1       3.668   5.188  -5.420  0.00  0.00    +0.009 A 
ATOM     20  C   UNL     1       4.262   4.686  -6.528  0.00  0.00    +0.045 A 
ATOM     21  S   UNL     1       5.960   4.526  -5.995  0.00  0.00    -0.101 S 
ATOM     22  C   UNL     1       3.843   5.987  -2.977  0.00  0.00    -0.042 C 
ATOM     23  H   UNL     1       4.844   4.602  -1.794  0.00  0.00    -0.081 HD
ENDBRANCH  12  14
ENDBRANCH  11  12
ENDBRANCH   9  11
ENDBRANCH   4   7
BRANCH   1  24
ATOM     24  S   UNL     1       0.164  -1.550  -2.239  0.00  0.00    +0.061 S 
ATOM     25  O   UNL     1       1.155  -2.268  -2.961  0.00  0.00    -0.153 OA
ATOM     26  O   UNL     1      -0.798  -2.196  -1.417  0.00  0.00    -0.153 OA
BRANCH  24  31
ATOM     27  C   UNL     1      -2.924   1.678  -6.295  0.00  0.00    +0.044 C 
ATOM     28  C   UNL     1      -2.153   0.872  -5.282  0.00  0.00    -0.050 A 
ATOM     29  C   UNL     1      -1.089   0.087  -5.688  0.00  0.00    +0.005 A 
ATOM     30  C   UNL     1      -0.382  -0.652  -4.759  0.00  0.00    +0.029 A 
ATOM     31  C   UNL     1      -0.738  -0.607  -3.424  0.00  0.00    +0.108 A 
ATOM     32  C   UNL     1      -1.804   0.174  -3.019  0.00  0.00    -0.024 A 
ATOM     33  C   UNL     1      -2.509   0.917  -3.947  0.00  0.00    +0.008 A 
ATOM     34  C   UNL     1      -2.196   0.218  -1.564  0.00  0.00    +0.046 C 
ENDBRANCH  24  31
ENDBRANCH   1  24
TORSDOF 6
