REMARK  Name = ZINC05729033
REMARK  7 active torsions:
REMARK  status: ('A' for Active; 'I' for Inactive)
REMARK    1  A    between atoms: C_4  and  C_7
REMARK    2  A    between atoms: C_7  and  O_8
REMARK    3  A    between atoms: O_8  and  C_9
REMARK    4  A    between atoms: C_13  and  C_15
REMARK    5  A    between atoms: C_24  and  C_32
REMARK    6  A    between atoms: C_26  and  C_27
REMARK    7  A    between atoms: C_26  and  C_29
REMARK                            x       y       z     vdW  Elec       q    Type
REMARK                         _______ _______ _______ _____ _____    ______ ____
ROOT
ATOM      1  C   UNL     1       0.002  -0.004   0.002  0.00  0.00    +0.066 C 
ATOM      2  C   UNL     1       1.012  -0.855   0.774  0.00  0.00    +0.027 C 
ATOM      3  C   UNL     1       0.824  -2.331   0.511  0.00  0.00    +0.009 C 
ATOM      4  C   UNL     1       1.813  -2.854  -0.529  0.00  0.00    +0.005 C 
ATOM      5  C   UNL     1       3.236  -2.598  -0.015  0.00  0.00    +0.027 C 
ATOM      6  C   UNL     1       3.406  -1.110   0.145  0.00  0.00    -0.026 C 
ATOM      7  C   UNL     1       2.390  -0.355   0.458  0.00  0.00    -0.047 C 
ATOM      8  C   UNL     1       2.592   1.118   0.479  0.00  0.00    +0.164 C 
ATOM      9  C   UNL     1       1.511   1.937   0.482  0.00  0.00    +0.065 C 
ATOM     10  C   UNL     1       0.096   1.442   0.490  0.00  0.00    +0.188 C 
ATOM     11  N   UNL     1       1.723   3.288   0.477  0.00  0.00    -0.304 NA
ATOM     12  H   UNL     1       0.968   3.897   0.480  0.00  0.00    +0.186 HD
ENDROOT
BRANCH   1  17
ATOM     13  C   UNL     1      -3.067  -1.354   1.744  0.00  0.00    +0.121 A 
ATOM     14  C   UNL     1      -3.948  -1.492   0.680  0.00  0.00    +0.045 A 
ATOM     15  C   UNL     1      -3.546  -1.149  -0.596  0.00  0.00    +0.004 A 
ATOM     16  C   UNL     1      -2.271  -0.663  -0.814  0.00  0.00    +0.004 A 
ATOM     17  C   UNL     1      -1.390  -0.529   0.243  0.00  0.00    -0.037 A 
ATOM     18  C   UNL     1      -1.786  -0.871   1.522  0.00  0.00    +0.049 A 
BRANCH  13  19
ATOM     19  O   UNL     1      -3.459  -1.691   3.001  0.00  0.00    -0.487 OA
BRANCH  19  20
ATOM     20  C   UNL     1      -4.793  -2.182   3.154  0.00  0.00    +0.264 C 
BRANCH  20  24
ATOM     21  C   UNL     1      -5.511  -3.088   7.266  0.00  0.00    +0.000 A 
ATOM     22  C   UNL     1      -5.785  -1.823   6.779  0.00  0.00    +0.000 A 
ATOM     23  C   UNL     1      -5.553  -1.530   5.449  0.00  0.00    +0.007 A 
ATOM     24  C   UNL     1      -5.046  -2.501   4.605  0.00  0.00    -0.010 A 
ATOM     25  C   UNL     1      -4.777  -3.767   5.091  0.00  0.00    +0.007 A 
ATOM     26  C   UNL     1      -5.005  -4.059   6.423  0.00  0.00    +0.000 A 
ENDBRANCH  20  24
ENDBRANCH  19  20
ENDBRANCH  13  19
ENDBRANCH   1  17
BRANCH  10  27
ATOM     27  C   UNL     1      -0.718   2.299  -0.387  0.00  0.00    +0.091 C 
ATOM     28  N   UNL     1      -1.347   2.960  -1.064  0.00  0.00    -0.195 NA
ENDBRANCH  10  27
BRANCH  10  29
ATOM     29  C   UNL     1      -0.433   1.521   1.862  0.00  0.00    +0.091 C 
ATOM     30  N   UNL     1      -0.841   1.582   2.920  0.00  0.00    -0.195 NA
ENDBRANCH  10  29
BRANCH   8  31
ATOM     31  C   UNL     1       3.915   1.666   0.494  0.00  0.00    +0.076 C 
ATOM     32  N   UNL     1       4.964   2.101   0.507  0.00  0.00    -0.196 NA
ENDBRANCH   8  31
TORSDOF 7
