REMARK  Name = ZINC36556615
REMARK  19 active torsions:
REMARK  status: ('A' for Active; 'I' for Inactive)
REMARK    1  A    between atoms: C_1  and  C_2
REMARK    2  A    between atoms: C_7  and  C_8
REMARK    3  A    between atoms: C_8  and  C_9
REMARK    4  A    between atoms: N_11  and  C_12
REMARK    5  A    between atoms: N_11  and  C_19
REMARK    6  A    between atoms: C_12  and  C_13
REMARK    7  A    between atoms: C_16  and  C_18
REMARK    8  A    between atoms: C_19  and  C_21
REMARK    9  A    between atoms: C_19  and  C_30
REMARK   10  A    between atoms: C_21  and  C_23
REMARK   11  A    between atoms: C_21  and  C_24
REMARK   12  A    between atoms: N_32  and  C_33
REMARK   13  A    between atoms: C_33  and  C_34
REMARK   14  A    between atoms: C_33  and  C_35
REMARK   15  A    between atoms: C_33  and  C_36
REMARK   16  A    between atoms: C_36  and  C_37
REMARK   17  A    between atoms: C_37  and  C_38
REMARK   18  A    between atoms: C_37  and  C_39
REMARK   19  A    between atoms: C_37  and  C_40
REMARK                            x       y       z     vdW  Elec       q    Type
REMARK                         _______ _______ _______ _____ _____    ______ ____
ROOT
ATOM      1  C   UNL     1      -3.226   3.242   5.482  0.00  0.00    +0.169 C 
ENDROOT
BRANCH   1   2
ATOM      2  C   UNL     1      -3.209   2.556   6.824  0.00  0.00    +0.235 C 
ATOM      3  O   UNL     1      -2.167   2.437   7.431  0.00  0.00    -0.274 OA
ATOM      4  N   UNL     1      -4.354   2.074   7.348  0.00  0.00    -0.309 N 
ATOM      5  H   UNL     1      -5.179   2.123   6.840  0.00  0.00    +0.149 HD
BRANCH   4   6
ATOM      6  C   UNL     1      -4.351   1.474   8.685  0.00  0.00    +0.030 C 
ATOM      7  C   UNL     1      -3.309   0.355   8.740  0.00  0.00    +0.031 C 
ATOM      8  C   UNL     1      -4.005   2.545   9.723  0.00  0.00    +0.031 C 
BRANCH   6   9
ATOM      9  C   UNL     1      -5.736   0.898   8.988  0.00  0.00    +0.031 C 
BRANCH   9  10
ATOM     10  C   UNL     1      -6.003  -0.296   8.071  0.00  0.00    -0.036 C 
ATOM     11  C   UNL     1      -5.102  -1.464   8.478  0.00  0.00    +0.010 C 
ATOM     12  C   UNL     1      -7.469  -0.716   8.194  0.00  0.00    +0.010 C 
ATOM     13  C   UNL     1      -5.705   0.097   6.622  0.00  0.00    +0.010 C 
ENDBRANCH   9  10
ENDBRANCH   6   9
ENDBRANCH   4   6
ENDBRANCH   1   2
BRANCH   1  16
ATOM     14  C   UNL     1      -1.014   4.248   5.658  0.00  0.00    +0.221 C 
ATOM     15  O   UNL     1      -1.398   4.850   6.639  0.00  0.00    -0.275 OA
ATOM     16  N   UNL     1      -1.852   3.418   5.006  0.00  0.00    -0.282 N 
BRANCH  14  17
ATOM     17  C   UNL     1       0.400   4.429   5.169  0.00  0.00    +0.131 C 
BRANCH  17  24
ATOM     18  C   UNL     1       1.654   3.497   7.599  0.00  0.00    +0.044 C 
ATOM     19  C   UNL     1       1.721   4.956   7.229  0.00  0.00    -0.047 A 
ATOM     20  C   UNL     1       2.388   5.848   8.049  0.00  0.00    +0.003 A 
ATOM     21  C   UNL     1       2.449   7.186   7.709  0.00  0.00    +0.000 A 
ATOM     22  C   UNL     1       1.844   7.633   6.549  0.00  0.00    +0.000 A 
ATOM     23  C   UNL     1       1.179   6.742   5.729  0.00  0.00    +0.004 A 
ATOM     24  C   UNL     1       1.121   5.402   6.066  0.00  0.00    -0.036 A 
ENDBRANCH  17  24
ENDBRANCH  14  17
BRANCH  16  25
ATOM     25  C   UNL     1      -1.388   2.691   3.822  0.00  0.00    +0.182 C 
BRANCH  25  26
ATOM     26  C   UNL     1      -0.767   1.385   4.245  0.00  0.00    +0.122 A 
ATOM     27  C   UNL     1      -1.396   0.197   4.305  0.00  0.00    +0.046 A 
ATOM     28  C   UNL     1      -0.444  -0.749   4.749  0.00  0.00    +0.045 A 
ATOM     29  C   UNL     1       0.710  -0.083   4.934  0.00  0.00    +0.102 A 
ATOM     30  O   UNL     1       0.510   1.208   4.622  0.00  0.00    -0.463 OA
ATOM     31  C   UNL     1       2.009  -0.685   5.406  0.00  0.00    +0.086 C 
ENDBRANCH  25  26
ENDBRANCH  16  25
ENDBRANCH   1  16
BRANCH   1  32
ATOM     32  C   UNL     1      -3.898   4.609   5.617  0.00  0.00    +0.045 C 
ATOM     33  C   UNL     1      -3.804   5.358   4.285  0.00  0.00    +0.015 C 
BRANCH  32  34
ATOM     34  C   UNL     1      -5.347   4.423   5.986  0.00  0.00    -0.042 A 
ATOM     35  C   UNL     1      -6.178   3.679   5.170  0.00  0.00    +0.004 A 
ATOM     36  C   UNL     1      -7.508   3.508   5.509  0.00  0.00    +0.000 A 
ATOM     37  C   UNL     1      -8.005   4.080   6.665  0.00  0.00    +0.000 A 
ATOM     38  C   UNL     1      -7.174   4.823   7.481  0.00  0.00    +0.000 A 
ATOM     39  C   UNL     1      -5.844   4.991   7.145  0.00  0.00    +0.004 A 
ENDBRANCH  32  34
ENDBRANCH   1  32
TORSDOF 11
