REMARK  Name = ZINC20714220
REMARK  7 active torsions:
REMARK  status: ('A' for Active; 'I' for Inactive)
REMARK    1  A    between atoms: C_1  and  C_2
REMARK    2  A    between atoms: C_5  and  N_9
REMARK    3  A    between atoms: C_6  and  C_8
REMARK    4  A    between atoms: N_9  and  S_10
REMARK    5  A    between atoms: S_10  and  C_13
REMARK    6  A    between atoms: C_26  and  C_29
REMARK    7  A    between atoms: C_34  and  C_35
REMARK                            x       y       z     vdW  Elec       q    Type
REMARK                         _______ _______ _______ _____ _____    ______ ____
ROOT
ATOM      1  C   UNL     1      -3.590   3.869  -1.069  0.00  0.00    +0.109 A 
ATOM      2  C   UNL     1      -3.760   4.627   0.076  0.00  0.00    +0.030 A 
ATOM      3  C   UNL     1      -3.467   5.976   0.053  0.00  0.00    +0.025 A 
ATOM      4  C   UNL     1      -3.014   6.569  -1.118  0.00  0.00    +0.031 A 
ATOM      5  C   UNL     1      -2.845   5.815  -2.269  0.00  0.00    -0.018 A 
ATOM      6  C   UNL     1      -3.138   4.458  -2.232  0.00  0.00    +0.034 A 
ATOM      7  C   UNL     1      -2.353   6.408  -3.550  0.00  0.00    +0.049 C 
ATOM      8  C   UNL     1      -3.472   6.570  -4.550  0.00  0.00    -0.023 C 
ATOM      9  C   UNL     1      -3.302   7.667  -5.248  0.00  0.00    -0.030 C 
ATOM     10  C   UNL     1      -2.040   8.384  -4.811  0.00  0.00    +0.033 C 
ATOM     11  C   UNL     1      -1.790   7.833  -3.376  0.00  0.00    +0.029 C 
ATOM     12  C   UNL     1      -2.680   8.632  -2.420  0.00  0.00    +0.105 C 
ATOM     13  N   UNL     1      -2.730   7.939  -1.127  0.00  0.00    -0.336 N 
ATOM     14  H   UNL     1      -2.546   8.497  -0.197  0.00  0.00    +0.147 HD
ENDROOT
BRANCH  12  15
ATOM     15  C   UNL     1      -4.071   8.737  -2.990  0.00  0.00    -0.024 A 
ATOM     16  C   UNL     1      -4.960   7.688  -2.843  0.00  0.00    +0.006 A 
ATOM     17  C   UNL     1      -6.237   7.787  -3.361  0.00  0.00    +0.000 A 
ATOM     18  C   UNL     1      -6.623   8.930  -4.036  0.00  0.00    +0.000 A 
ATOM     19  C   UNL     1      -5.732   9.977  -4.188  0.00  0.00    +0.004 A 
ATOM     20  C   UNL     1      -4.456   9.880  -3.664  0.00  0.00    -0.045 A 
ATOM     21  C   UNL     1      -3.486  11.021  -3.830  0.00  0.00    +0.044 C 
ENDBRANCH  12  15
BRANCH   1  22
ATOM     22  S   UNL     1      -3.958   2.147  -1.043  0.00  0.00    +0.072 S 
ATOM     23  O   UNL     1      -4.242   1.772  -2.384  0.00  0.00    -0.150 OA
ATOM     24  O   UNL     1      -4.883   1.945   0.016  0.00  0.00    -0.150 OA
BRANCH  22  25
ATOM     25  N   UNL     1      -2.568   1.355  -0.615  0.00  0.00    -0.216 N 
ATOM     26  H   UNL     1      -2.104   0.642  -1.313  0.00  0.00    +0.174 HD
BRANCH  25  31
ATOM     27  C   UNL     1      -0.200   2.330   4.444  0.00  0.00    +0.044 C 
ATOM     28  C   UNL     1      -0.829   2.068   3.100  0.00  0.00    -0.050 A 
ATOM     29  C   UNL     1      -2.207   2.065   2.972  0.00  0.00    +0.005 A 
ATOM     30  C   UNL     1      -2.787   1.825   1.742  0.00  0.00    +0.025 A 
ATOM     31  C   UNL     1      -1.985   1.592   0.631  0.00  0.00    +0.051 A 
ATOM     32  C   UNL     1      -0.603   1.591   0.765  0.00  0.00    -0.028 A 
ATOM     33  C   UNL     1      -0.029   1.831   1.998  0.00  0.00    +0.008 A 
ATOM     34  C   UNL     1       0.271   1.334  -0.436  0.00  0.00    +0.046 C 
ENDBRANCH  25  31
ENDBRANCH  22  25
ENDBRANCH   1  22
TORSDOF 4
