REMARK  Name = ZINC39595472
REMARK  11 active torsions:
REMARK  status: ('A' for Active; 'I' for Inactive)
REMARK    1  A    between atoms: C_1  and  C_2
REMARK    2  A    between atoms: C_2  and  C_3
REMARK    3  A    between atoms: C_3  and  C_4
REMARK    4  A    between atoms: C_4  and  C_6
REMARK    5  A    between atoms: C_4  and  C_7
REMARK    6  A    between atoms: C_11  and  C_20
REMARK    7  A    between atoms: N_22  and  C_23
REMARK    8  A    between atoms: C_23  and  C_24
REMARK    9  A    between atoms: C_24  and  C_26
REMARK   10  A    between atoms: C_24  and  O_27
REMARK   11  A    between atoms: O_27  and  C_28
REMARK                            x       y       z     vdW  Elec       q    Type
REMARK                         _______ _______ _______ _____ _____    ______ ____
ROOT
ATOM      1  C   UNL     1      -2.787  -2.266  -0.160  0.00  0.00    +0.218 C 
ATOM      2  O   UNL     1      -3.707  -1.504  -0.372  0.00  0.00    -0.275 OA
ATOM      3  N   UNL     1      -3.020  -3.589  -0.046  0.00  0.00    -0.300 N 
ATOM      4  C   UNL     1      -2.054  -4.653   0.315  0.00  0.00    +0.121 C 
ATOM      5  C   UNL     1      -2.851  -5.609   1.231  0.00  0.00    +0.100 C 
ATOM      6  C   UNL     1      -4.324  -5.379   0.852  0.00  0.00    -0.004 C 
ATOM      7  C   UNL     1      -4.301  -4.306  -0.247  0.00  0.00    +0.115 C 
ATOM      8  C   UNL     1      -5.107  -4.872   2.059  0.00  0.00    -0.010 C 
ATOM      9  C   UNL     1      -6.579  -4.705   1.673  0.00  0.00    -0.082 C 
ATOM     10  N   UNL     1      -7.117  -5.994   1.221  0.00  0.00    +0.379 N 
ATOM     11  C   UNL     1      -6.420  -6.429   0.005  0.00  0.00    -0.082 C 
ATOM     12  C   UNL     1      -4.941  -6.669   0.320  0.00  0.00    -0.010 C 
ATOM     13  H   UNL     1      -6.989  -6.684   1.946  0.00  0.00    -0.086 HD
ATOM     14  H   UNL     1      -8.102  -5.896   1.025  0.00  0.00    -0.086 HD
ENDROOT
BRANCH   5  15
ATOM     15  C   UNL     1      -2.456  -7.039   0.966  0.00  0.00    +0.218 C 
ATOM     16  O   UNL     1      -2.161  -7.389  -0.157  0.00  0.00    -0.275 OA
ATOM     17  N   UNL     1      -2.431  -7.930   1.978  0.00  0.00    -0.312 N 
ATOM     18  H   UNL     1      -2.668  -7.650   2.876  0.00  0.00    +0.149 HD
BRANCH  17  19
ATOM     19  C   UNL     1      -2.048  -9.320   1.721  0.00  0.00    +0.148 C 
BRANCH  19  20
ATOM     20  C   UNL     1      -2.102 -10.114   3.028  0.00  0.00    +0.187 C 
ATOM     21  C   UNL     1      -1.701 -11.566   2.759  0.00  0.00    +0.053 C 
BRANCH  20  22
ATOM     22  O   UNL     1      -1.198  -9.537   3.973  0.00  0.00    -0.488 OA
BRANCH  22  23
ATOM     23  C   UNL     1      -1.467  -9.745   5.289  0.00  0.00    +0.121 A 
ATOM     24  C   UNL     1      -0.705  -9.113   6.261  0.00  0.00    +0.048 A 
ATOM     25  C   UNL     1      -0.979  -9.325   7.599  0.00  0.00    +0.042 A 
ATOM     26  C   UNL     1      -2.014 -10.167   7.969  0.00  0.00    +0.124 A 
ATOM     27  C   UNL     1      -2.775 -10.798   7.000  0.00  0.00    +0.042 A 
ATOM     28  C   UNL     1      -2.507 -10.583   5.662  0.00  0.00    +0.048 A 
ATOM     29  F   UNL     1      -2.280 -10.373   9.277  0.00  0.00    -0.205 F 
ENDBRANCH  22  23
ENDBRANCH  20  22
ENDBRANCH  19  20
ENDBRANCH  17  19
ENDBRANCH   5  15
BRANCH   1  30
ATOM     30  C   UNL     1      -1.384  -1.734  -0.024  0.00  0.00    +0.072 C 
ATOM     31  C   UNL     1      -1.068  -1.500   1.455  0.00  0.00    +0.017 C 
BRANCH  30  32
ATOM     32  C   UNL     1      -1.264  -0.412  -0.786  0.00  0.00    +0.012 C 
BRANCH  32  34
ATOM     33  C   UNL     1       0.309   1.386  -1.515  0.00  0.00    +0.004 C 
ATOM     34  C   UNL     1       0.189   0.065  -0.753  0.00  0.00    -0.003 C 
ENDBRANCH  32  34
ENDBRANCH  30  32
ENDBRANCH   1  30
TORSDOF 8
