REMARK  Name = ZINC41270078
REMARK  7 active torsions:
REMARK  status: ('A' for Active; 'I' for Inactive)
REMARK    1  A    between atoms: C_1  and  C_2
REMARK    2  A    between atoms: C_2  and  C_3
REMARK    3  A    between atoms: C_6  and  S_8
REMARK    4  A    between atoms: S_8  and  N_11
REMARK    5  A    between atoms: N_11  and  C_12
REMARK    6  A    between atoms: C_15  and  C_18
REMARK    7  A    between atoms: C_25  and  C_27
REMARK                            x       y       z     vdW  Elec       q    Type
REMARK                         _______ _______ _______ _____ _____    ______ ____
ROOT
ATOM      1  C   UNL     1       3.098  -4.647  -6.191  0.00  0.00    +0.074 A 
ATOM      2  C   UNL     1       3.888  -4.219  -7.255  0.00  0.00    +0.027 A 
ATOM      3  C   UNL     1       3.769  -4.820  -8.487  0.00  0.00    +0.015 A 
ATOM      4  C   UNL     1       2.854  -5.861  -8.670  0.00  0.00    +0.037 A 
ATOM      5  C   UNL     1       2.062  -6.288  -7.599  0.00  0.00    +0.015 A 
ATOM      6  C   UNL     1       2.190  -5.687  -6.368  0.00  0.00    +0.027 A 
ENDROOT
BRANCH   4   7
ATOM      7  C   UNL     1       2.723  -6.507  -9.989  0.00  0.00    +0.247 C 
ATOM      8  O   UNL     1       2.865  -5.852 -11.004  0.00  0.00    -0.270 OA
ATOM      9  N   UNL     1       2.448  -7.824 -10.071  0.00  0.00    -0.290 N 
ATOM     10  C   UNL     1       2.174  -8.617  -8.862  0.00  0.00    +0.136 C 
ATOM     11  C   UNL     1       3.061  -9.867  -8.892  0.00  0.00    +0.179 C 
ATOM     12  O   UNL     1       2.887 -10.537 -10.143  0.00  0.00    -0.376 OA
ATOM     13  C   UNL     1       3.286  -9.767 -11.280  0.00  0.00    +0.182 C 
ATOM     14  C   UNL     1       2.405  -8.510 -11.372  0.00  0.00    +0.099 C 
ATOM     15  C   UNL     1       2.943  -7.581 -12.462  0.00  0.00    +0.030 C 
ENDBRANCH   4   7
BRANCH   1  16
ATOM     16  N   UNL     1       3.220  -4.038  -4.947  0.00  0.00    -0.097 NA
BRANCH  16  17
ATOM     17  S   UNL     1       4.300  -2.800  -4.734  0.00  0.00    +0.098 S 
ATOM     18  O   UNL     1       3.836  -1.715  -5.526  0.00  0.00    -0.148 OA
ATOM     19  O   UNL     1       5.596  -3.360  -4.894  0.00  0.00    -0.148 OA
BRANCH  17  23
ATOM     20  C   UNL     1       3.660  -1.200  -0.639  0.00  0.00    -0.009 A 
ATOM     21  C   UNL     1       4.597  -2.175  -0.734  0.00  0.00    +0.013 A 
ATOM     22  C   UNL     1       4.862  -2.731  -1.972  0.00  0.00    +0.037 A 
ATOM     23  C   UNL     1       4.177  -2.285  -3.053  0.00  0.00    +0.148 A 
ATOM     24  S   UNL     1       3.114  -1.046  -2.332  0.00  0.00    -0.073 S 
BRANCH  20  26
ATOM     25  C   UNL     1       4.050   0.812   0.758  0.00  0.00    +0.009 C 
ATOM     26  C   UNL     1       3.196  -0.445   0.580  0.00  0.00    +0.039 C 
ENDBRANCH  20  26
ENDBRANCH  17  23
ENDBRANCH  16  17
ENDBRANCH   1  16
TORSDOF 5
