REMARK  Name = ZINC04048001
REMARK  6 active torsions:
REMARK  status: ('A' for Active; 'I' for Inactive)
REMARK    1  A    between atoms: C_1  and  C_2
REMARK    2  A    between atoms: C_4  and  C_15
REMARK    3  A    between atoms: C_5  and  C_14
REMARK    4  A    between atoms: N_6  and  C_7
REMARK    5  A    between atoms: N_16  and  N_17
REMARK    6  A    between atoms: C_21  and  N_24
REMARK                            x       y       z     vdW  Elec       q    Type
REMARK                         _______ _______ _______ _____ _____    ______ ____
ROOT
ATOM      1  C   UNL     1       1.707   3.307   0.003  0.00  0.00    +0.064 C 
ATOM      2  C   UNL     1       1.263   1.867   0.000  0.00  0.00    +0.022 A 
ATOM      3  C   UNL     1      -0.018   1.465   0.010  0.00  0.00    +0.032 A 
ATOM      4  C   UNL     1       0.002  -0.004   0.002  0.00  0.00    +0.016 A 
ATOM      5  C   UNL     1       1.434  -0.361  -0.014  0.00  0.00    +0.030 A 
ATOM      6  N   UNL     1       2.117   0.784  -0.014  0.00  0.00    -0.317 N 
ATOM      7  C   UNL     1       2.013  -1.753  -0.027  0.00  0.00    +0.064 C 
ENDROOT
BRANCH   6   8
ATOM      8  C   UNL     1       3.513   0.875  -0.028  0.00  0.00    +0.048 A 
ATOM      9  C   UNL     1       4.164   1.433  -1.121  0.00  0.00    +0.026 A 
ATOM     10  C   UNL     1       5.542   1.522  -1.131  0.00  0.00    +0.003 A 
ATOM     11  C   UNL     1       6.274   1.055  -0.055  0.00  0.00    +0.014 A 
ATOM     12  C   UNL     1       5.630   0.499   1.036  0.00  0.00    +0.015 A 
ATOM     13  C   UNL     1       4.251   0.412   1.054  0.00  0.00    +0.040 A 
ATOM     14  I   UNL     1       6.745  -0.205   2.664  0.00  0.00    -0.044 I 
ENDBRANCH   6   8
BRANCH   4  15
ATOM     15  C   UNL     1      -1.087  -0.867   0.008  0.00  0.00    +0.140 C 
ATOM     16  N   UNL     1      -0.892  -2.195  -0.000  0.00  0.00    -0.189 NA
BRANCH  16  17
ATOM     17  N   UNL     1      -1.903  -2.996   0.005  0.00  0.00    -0.221 N 
ATOM     18  C   UNL     1      -1.702  -4.359  -0.003  0.00  0.00    +0.138 A 
ATOM     19  C   UNL     1      -2.802  -5.221   0.009  0.00  0.00    +0.047 A 
ATOM     20  C   UNL     1      -2.584  -6.588  -0.006  0.00  0.00    +0.037 A 
ATOM     21  C   UNL     1      -1.275  -7.050  -0.021  0.00  0.00    +0.144 A 
ATOM     22  C   UNL     1      -0.231  -6.136  -0.027  0.00  0.00    +0.145 A 
ATOM     23  N   UNL     1      -0.466  -4.842  -0.018  0.00  0.00    -0.237 NA
ATOM     24  H   UNL     1      -2.805  -2.639   0.016  0.00  0.00    +0.176 HD
BRANCH  21  25
ATOM     25  N   UNL     1      -0.996  -8.504  -0.032  0.00  0.00    +0.058 N 
ATOM     26  O   UNL     1       0.248  -8.936  -0.046  0.00  0.00    -0.126 OA
ATOM     27  O   UNL     1      -1.992  -9.366  -0.026  0.00  0.00    -0.126 OA
ENDBRANCH  21  25
ENDBRANCH  16  17
ENDBRANCH   4  15
TORSDOF 4
