REMARK  Name = ZINC48730951
REMARK  6 active torsions:
REMARK  status: ('A' for Active; 'I' for Inactive)
REMARK    1  A    between atoms: C_5  and  N_7
REMARK    2  A    between atoms: C_8  and  C_10
REMARK    3  A    between atoms: N_12  and  C_13
REMARK    4  A    between atoms: C_13  and  C_14
REMARK    5  A    between atoms: C_14  and  C_16
REMARK    6  A    between atoms: C_14  and  N_21
REMARK                            x       y       z     vdW  Elec       q    Type
REMARK                         _______ _______ _______ _____ _____    ______ ____
ROOT
ATOM      1  C   UNL     1       0.746  -6.034  -1.720  0.00  0.00    +0.299 C 
ATOM      2  O   UNL     1       1.421  -5.537  -0.843  0.00  0.00    -0.265 OA
ATOM      3  N   UNL     1      -0.548  -6.329  -1.488  0.00  0.00    -0.309 N 
ATOM      4  H   UNL     1      -1.088  -6.726  -2.189  0.00  0.00    +0.149 HD
ENDROOT
BRANCH   1   6
ATOM      5  N   UNL     1       2.644  -6.025  -3.287  0.00  0.00    -0.276 N 
ATOM      6  C   UNL     1       1.349  -6.320  -3.055  0.00  0.00    +0.303 C 
ATOM      7  O   UNL     1       0.674  -6.817  -3.933  0.00  0.00    -0.265 OA
ATOM      8  H   UNL     1       3.204  -5.700  -2.565  0.00  0.00    +0.155 HD
BRANCH   5  13
ATOM      9  C   UNL     1       2.880  -6.315  -6.944  0.00  0.00    +0.002 A 
ATOM     10  C   UNL     1       4.240  -6.512  -7.104  0.00  0.00    +0.002 A 
ATOM     11  C   UNL     1       5.071  -6.547  -6.000  0.00  0.00    +0.022 A 
ATOM     12  C   UNL     1       4.546  -6.386  -4.732  0.00  0.00    +0.062 A 
ATOM     13  C   UNL     1       3.180  -6.188  -4.568  0.00  0.00    +0.052 A 
ATOM     14  C   UNL     1       2.348  -6.153  -5.680  0.00  0.00    +0.025 A 
ATOM     15 CL   UNL     1       5.590  -6.431  -3.346  0.00  0.00    -0.082 Cl
ENDBRANCH   5  13
ENDBRANCH   1   6
BRANCH   3  16
ATOM     16  C   UNL     1      -1.140  -6.049  -0.177  0.00  0.00    +0.097 C 
BRANCH  16  17
ATOM     17  C   UNL     1      -2.572  -6.587  -0.139  0.00  0.00    +0.016 C 
BRANCH  17  18
ATOM     18  N   UNL     1      -3.340  -6.019  -1.255  0.00  0.00    +0.387 N 
ATOM     19  C   UNL     1      -3.268  -4.554  -1.200  0.00  0.00    -0.078 C 
ATOM     20  C   UNL     1      -3.998  -3.958  -2.405  0.00  0.00    -0.019 C 
ATOM     21  C   UNL     1      -5.464  -4.401  -2.378  0.00  0.00    -0.004 C 
ATOM     22  C   UNL     1      -5.524  -5.931  -2.361  0.00  0.00    -0.019 C 
ATOM     23  C   UNL     1      -4.738  -6.454  -1.156  0.00  0.00    -0.078 C 
ATOM     24  H   UNL     1      -2.949  -6.340  -2.128  0.00  0.00    -0.081 HD
ENDBRANCH  17  18
BRANCH  17  25
ATOM     25  C   UNL     1      -2.547  -8.089  -0.260  0.00  0.00    +0.093 A 
ATOM     26  C   UNL     1      -2.667  -8.963   0.756  0.00  0.00    +0.043 A 
ATOM     27  C   UNL     1      -2.589 -10.258   0.195  0.00  0.00    +0.041 A 
ATOM     28  C   UNL     1      -2.425 -10.098  -1.131  0.00  0.00    +0.195 A 
ATOM     29  O   UNL     1      -2.406  -8.783  -1.401  0.00  0.00    -0.469 OA
ENDBRANCH  17  25
ENDBRANCH  16  17
ENDBRANCH   3  16
TORSDOF 6
