REMARK  Name = ZINC41586537
REMARK  11 active torsions:
REMARK  status: ('A' for Active; 'I' for Inactive)
REMARK    1  A    between atoms: C_1  and  C_2
REMARK    2  A    between atoms: C_2  and  O_3
REMARK    3  A    between atoms: O_3  and  C_4
REMARK    4  A    between atoms: C_4  and  C_6
REMARK    5  A    between atoms: N_11  and  C_13
REMARK    6  A    between atoms: C_13  and  C_14
REMARK    7  A    between atoms: C_15  and  O_34
REMARK    8  A    between atoms: C_22  and  C_23
REMARK    9  A    between atoms: C_26  and  N_29
REMARK   10  A    between atoms: N_29  and  C_30
REMARK   11  A    between atoms: N_29  and  C_31
REMARK                            x       y       z     vdW  Elec       q    Type
REMARK                         _______ _______ _______ _____ _____    ______ ____
ROOT
ATOM      1  C   UNL     1       2.986  -6.374  -4.760  0.00  0.00    +0.020 A 
ATOM      2  C   UNL     1       2.364  -6.685  -5.958  0.00  0.00    +0.122 A 
ATOM      3  C   UNL     1       3.095  -7.208  -7.021  0.00  0.00    +0.046 A 
ATOM      4  C   UNL     1       4.439  -7.419  -6.892  0.00  0.00    +0.019 A 
ATOM      5  C   UNL     1       5.079  -7.110  -5.691  0.00  0.00    +0.068 A 
ATOM      6  C   UNL     1       4.353  -6.578  -4.613  0.00  0.00    +0.144 A 
ATOM      7  O   UNL     1       5.182  -6.356  -3.571  0.00  0.00    -0.451 OA
ATOM      8  C   UNL     1       6.459  -6.701  -3.861  0.00  0.00    +0.176 C 
ATOM      9  C   UNL     1       7.527  -6.600  -3.028  0.00  0.00    +0.058 C 
ATOM     10  C   UNL     1       6.478  -7.215  -5.238  0.00  0.00    +0.231 C 
ATOM     11  O   UNL     1       7.438  -7.626  -5.868  0.00  0.00    -0.283 OA
ENDROOT
BRANCH   9  12
ATOM     12  C   UNL     1       7.373  -5.970  -1.712  0.00  0.00    -0.021 A 
ATOM     13  C   UNL     1       8.497  -5.743  -0.906  0.00  0.00    +0.010 A 
ATOM     14  C   UNL     1       8.349  -5.155   0.318  0.00  0.00    +0.023 A 
ATOM     15  C   UNL     1       7.084  -4.782   0.766  0.00  0.00    +0.029 A 
ATOM     16  C   UNL     1       5.965  -5.006  -0.032  0.00  0.00    +0.023 A 
ATOM     17  C   UNL     1       6.103  -5.587  -1.260  0.00  0.00    +0.010 A 
BRANCH  15  18
ATOM     18  N   UNL     1       6.939  -4.184   2.014  0.00  0.00    -0.336 N 
ATOM     19  C   UNL     1       8.123  -3.846   2.806  0.00  0.00    +0.129 C 
ATOM     20  C   UNL     1       5.601  -3.893   2.535  0.00  0.00    +0.129 C 
ENDBRANCH  15  18
ENDBRANCH   9  12
BRANCH   2  21
ATOM     21  O   UNL     1       1.030  -6.479  -6.096  0.00  0.00    -0.506 OA
ATOM     22  H   UNL     1       0.800  -5.601  -6.430  0.00  0.00    +0.292 HD
ENDBRANCH   2  21
BRANCH   1  23
ATOM     23  C   UNL     1       2.182  -5.809  -3.617  0.00  0.00    -0.036 C 
BRANCH  23  28
ATOM     24  C   UNL     1       1.536  -2.260  -2.583  0.00  0.00    +0.081 C 
ATOM     25  C   UNL     1       0.827  -1.776  -3.851  0.00  0.00    +0.011 C 
ATOM     26  C   UNL     1       1.490  -2.420  -5.072  0.00  0.00    -0.018 C 
ATOM     27  C   UNL     1       1.445  -3.942  -4.927  0.00  0.00    -0.078 C 
ATOM     28  N   UNL     1       2.162  -4.343  -3.711  0.00  0.00    +0.383 N 
ATOM     29  C   UNL     1       1.490  -3.789  -2.530  0.00  0.00    -0.064 C 
ATOM     30  H   UNL     1       3.109  -3.998  -3.750  0.00  0.00    -0.081 HD
BRANCH  24  31
ATOM     31  C   UNL     1       0.842  -1.694  -1.371  0.00  0.00    +0.308 C 
ATOM     32  O   UNL     1       0.361  -2.436  -0.548  0.00  0.00    -0.251 OA
BRANCH  31  33
ATOM     33  O   UNL     1       0.758  -0.364  -1.206  0.00  0.00    -0.465 OA
BRANCH  33  35
ATOM     34  C   UNL     1       0.092   1.633  -0.019  0.00  0.00    +0.048 C 
ATOM     35  C   UNL     1       0.087   0.103  -0.034  0.00  0.00    +0.229 C 
ENDBRANCH  33  35
ENDBRANCH  31  33
ENDBRANCH  24  31
ENDBRANCH  23  28
ENDBRANCH   1  23
TORSDOF 8
