REMARK  Name = ZINC63350155
REMARK  8 active torsions:
REMARK  status: ('A' for Active; 'I' for Inactive)
REMARK    1  A    between atoms: C_1  and  C_2
REMARK    2  A    between atoms: C_2  and  C_3
REMARK    3  A    between atoms: C_3  and  O_4
REMARK    4  A    between atoms: O_4  and  C_5
REMARK    5  A    between atoms: C_8  and  C_13
REMARK    6  A    between atoms: C_10  and  O_11
REMARK    7  A    between atoms: O_11  and  C_12
REMARK    8  A    between atoms: CA_26  and  C_29
REMARK                            x       y       z     vdW  Elec       q    Type
REMARK                         _______ _______ _______ _____ _____    ______ ____
ROOT
ATOM      1  C   UNL     1      -6.203  -4.167  -1.037  0.00  0.00    +0.111 C 
ATOM      2  C   UNL     1      -6.106  -4.089   0.489  0.00  0.00    +0.128 C 
ATOM      3  C   UNL     1      -7.311  -4.848   1.032  0.00  0.00    -0.035 C 
ATOM      4  C   UNL     1      -6.835  -5.755   1.873  0.00  0.00    -0.001 A 
ATOM      5  C   UNL     1      -7.506  -6.719   2.761  0.00  0.00    +0.010 A 
ATOM      6  C   UNL     1      -6.693  -7.527   3.492  0.00  0.00    +0.001 A 
ATOM      7  C   UNL     1      -5.297  -7.474   3.430  0.00  0.00    +0.002 A 
ATOM      8  C   UNL     1      -4.597  -6.616   2.646  0.00  0.00    +0.026 A 
ATOM      9  C   UNL     1      -5.341  -5.712   1.834  0.00  0.00    +0.043 A 
ATOM     10  N   UNL     1      -4.922  -4.768   1.013  0.00  0.00    -0.376 N 
ATOM     11  C   UNL     1      -8.710  -4.574   0.535  0.00  0.00    +0.063 C 
ATOM     12  CA  UNL     1      -8.624  -4.562  -1.002  0.00  0.00    +0.172 C 
ATOM     13  N   UNL     1      -7.534  -3.686  -1.441  0.00  0.00    -0.295 NA
ATOM     14  H   UNL     1      -7.685  -2.738  -1.131  0.00  0.00    +0.123 HD
ATOM     15  H   UNL     1      -4.002  -4.560   0.787  0.00  0.00    +0.160 HD
ENDROOT
BRANCH   1  19
ATOM     16  C   UNL     1      -3.186  -1.702  -2.800  0.00  0.00    +0.162 A 
ATOM     17  C   UNL     1      -4.352  -1.133  -2.312  0.00  0.00    +0.050 A 
ATOM     18  C   UNL     1      -5.325  -1.933  -1.743  0.00  0.00    +0.009 A 
ATOM     19  C   UNL     1      -5.139  -3.300  -1.659  0.00  0.00    -0.024 A 
ATOM     20  C   UNL     1      -3.978  -3.874  -2.143  0.00  0.00    +0.054 A 
ATOM     21  C   UNL     1      -3.001  -3.079  -2.721  0.00  0.00    +0.162 A 
BRANCH  21  22
ATOM     22  O   UNL     1      -1.862  -3.642  -3.203  0.00  0.00    -0.491 OA
ATOM     23  C   UNL     1      -1.740  -5.061  -3.088  0.00  0.00    +0.277 C 
ENDBRANCH  21  22
BRANCH  16  24
ATOM     24  O   UNL     1      -2.228  -0.917  -3.361  0.00  0.00    -0.488 OA
BRANCH  24  25
ATOM     25  C   UNL     1      -2.486   0.488  -3.409  0.00  0.00    +0.229 C 
BRANCH  25  27
ATOM     26  C   UNL     1      -1.581   2.705  -4.120  0.00  0.00    +0.007 C 
ATOM     27  C   UNL     1      -1.304   1.201  -4.069  0.00  0.00    +0.038 C 
ENDBRANCH  25  27
ENDBRANCH  24  25
ENDBRANCH  16  24
ENDBRANCH   1  19
BRANCH  12  28
ATOM     28  C   UNL     1      -8.367  -5.961  -1.499  0.00  0.00    +0.373 C 
ATOM     29  O   UNL     1      -9.089  -6.877  -1.143  0.00  0.00    -0.245 OA
ATOM     30  OXT UNL     1      -7.437  -6.177  -2.258  0.00  0.00    -0.245 OA
ENDBRANCH  12  28
TORSDOF 6
