REMARK  Name = ZINC21258961
REMARK  9 active torsions:
REMARK  status: ('A' for Active; 'I' for Inactive)
REMARK    1  A    between atoms: C_1  and  C_2
REMARK    2  A    between atoms: C_2  and  C_3
REMARK    3  A    between atoms: C_3  and  C_5
REMARK    4  A    between atoms: C_3  and  O_6
REMARK    5  A    between atoms: O_6  and  C_7
REMARK    6  A    between atoms: C_10  and  C_13
REMARK    7  A    between atoms: C_18  and  C_23
REMARK    8  A    between atoms: C_28  and  O_29
REMARK    9  A    between atoms: O_29  and  C_30
REMARK                            x       y       z     vdW  Elec       q    Type
REMARK                         _______ _______ _______ _____ _____    ______ ____
ROOT
ATOM      1  C   UNL     1      -1.357  -5.843   2.672  0.00  0.00    +0.136 C 
ATOM      2  C   UNL     1      -0.665  -5.062   1.580  0.00  0.00    +0.036 C 
ATOM      3  C   UNL     1      -1.250  -4.554   0.482  0.00  0.00    +0.017 C 
ATOM      4  C   UNL     1      -0.431  -3.787  -0.542  0.00  0.00    +0.060 C 
ATOM      5  C   UNL     1       0.713  -3.049   0.151  0.00  0.00    +0.035 C 
ATOM      6  C   UNL     1       1.584  -4.096   0.855  0.00  0.00    +0.088 C 
ATOM      7  C   UNL     1       0.720  -4.878   1.799  0.00  0.00    +0.163 C 
ATOM      8  O   UNL     1       1.229  -5.371   2.787  0.00  0.00    -0.292 OA
ATOM      9  N   UNL     1      -2.568  -4.677   0.180  0.00  0.00    -0.316 N 
ATOM     10  C   UNL     1      -3.612  -4.458   1.071  0.00  0.00    +0.052 A 
ATOM     11  C   UNL     1      -4.558  -3.468   0.872  0.00  0.00    +0.025 A 
ATOM     12  C   UNL     1      -5.637  -3.377   1.735  0.00  0.00    +0.002 A 
ATOM     13  C   UNL     1      -5.766  -4.266   2.787  0.00  0.00    +0.002 A 
ATOM     14  C   UNL     1      -4.808  -5.242   3.000  0.00  0.00    +0.025 A 
ATOM     15  C   UNL     1      -3.718  -5.325   2.148  0.00  0.00    +0.049 A 
ATOM     16  N   UNL     1      -2.705  -6.261   2.350  0.00  0.00    -0.331 N 
ATOM     17  H   UNL     1      -2.874  -4.971  -0.835  0.00  0.00    +0.152 HD
ATOM     18  H   UNL     1      -2.943  -7.331   2.260  0.00  0.00    +0.147 HD
ENDROOT
BRANCH   1  22
ATOM     19  C   UNL     1      -1.493  -3.421   6.190  0.00  0.00    +0.121 A 
ATOM     20  C   UNL     1      -0.768  -4.604   6.188  0.00  0.00    +0.046 A 
ATOM     21  C   UNL     1      -0.725  -5.385   5.049  0.00  0.00    +0.009 A 
ATOM     22  C   UNL     1      -1.405  -4.989   3.912  0.00  0.00    -0.023 A 
ATOM     23  C   UNL     1      -2.124  -3.808   3.910  0.00  0.00    +0.009 A 
ATOM     24  C   UNL     1      -2.175  -3.026   5.048  0.00  0.00    +0.046 A 
BRANCH  19  25
ATOM     25  O   UNL     1      -1.537  -2.651   7.309  0.00  0.00    -0.489 OA
BRANCH  25  26
ATOM     26  C   UNL     1      -0.715  -3.054   8.406  0.00  0.00    +0.170 C 
ATOM     27  C   UNL     1      -1.457  -4.098   9.243  0.00  0.00    +0.052 C 
BRANCH  26  29
ATOM     28  C   UNL     1       0.456  -0.848   8.476  0.00  0.00    +0.007 C 
ATOM     29  C   UNL     1      -0.394  -1.837   9.276  0.00  0.00    +0.041 C 
ENDBRANCH  26  29
ENDBRANCH  25  26
ENDBRANCH  19  25
ENDBRANCH   1  22
BRANCH   5  30
ATOM     30  C   UNL     1       1.534  -2.304  -0.870  0.00  0.00    -0.002 A 
ATOM     31  C   UNL     1       2.159  -2.994  -1.890  0.00  0.00    +0.007 A 
ATOM     32  C   UNL     1       2.913  -2.312  -2.827  0.00  0.00    +0.001 A 
ATOM     33  C   UNL     1       3.043  -0.938  -2.746  0.00  0.00    +0.004 A 
ATOM     34  C   UNL     1       2.415  -0.243  -1.730  0.00  0.00    +0.046 A 
ATOM     35  C   UNL     1       1.662  -0.926  -0.786  0.00  0.00    +0.124 A 
BRANCH  35  36
ATOM     36  O   UNL     1       1.048  -0.245   0.217  0.00  0.00    -0.495 OA
ATOM     37  C   UNL     1       1.224   1.173   0.241  0.00  0.00    +0.277 C 
ENDBRANCH  35  36
ENDBRANCH   5  30
TORSDOF 6
