REMARK  Name = ZINC38742346
REMARK  6 active torsions:
REMARK  status: ('A' for Active; 'I' for Inactive)
REMARK    1  A    between atoms: C_1  and  C_2
REMARK    2  A    between atoms: C_6  and  C_8
REMARK    3  A    between atoms: C_11  and  C_18
REMARK    4  A    between atoms: C_21  and  C_24
REMARK    5  A    between atoms: C_24  and  C_25
REMARK    6  A    between atoms: C_24  and  C_26
REMARK                            x       y       z     vdW  Elec       q    Type
REMARK                         _______ _______ _______ _____ _____    ______ ____
ROOT
ATOM      1  C   UNL     1       0.051  -2.845   2.458  0.00  0.00    +0.125 C 
ATOM      2  N   UNL     1       0.045  -2.370   3.669  0.00  0.00    -0.173 NA
ATOM      3  N   UNL     1       0.144  -3.168   4.788  0.00  0.00    -0.206 N 
ATOM      4  C   UNL     1       0.514  -3.190   6.222  0.00  0.00    +0.206 C 
ATOM      5  N   UNL     1       1.197  -4.488   6.435  0.00  0.00    -0.231 NA
ATOM      6  N   UNL     1       1.110  -5.222   5.161  0.00  0.00    -0.224 NA
ATOM      7  C   UNL     1      -0.075  -4.624   4.515  0.00  0.00    +0.240 C 
ATOM      8  S   UNL     1       0.075  -4.617   2.691  0.00  0.00    -0.063 S 
ATOM      9  H   UNL     1       0.762  -5.008   7.182  0.00  0.00    +0.143 HD
ATOM     10  H   UNL     1       1.938  -5.077   4.602  0.00  0.00    +0.144 HD
ENDROOT
BRANCH   1  16
ATOM     11  C   UNL     1      -0.018   1.503   0.010  0.00  0.00    +0.044 C 
ATOM     12  C   UNL     1       0.002  -0.004   0.002  0.00  0.00    -0.050 A 
ATOM     13  C   UNL     1       0.006  -0.688  -1.201  0.00  0.00    +0.003 A 
ATOM     14  C   UNL     1       0.024  -2.071  -1.217  0.00  0.00    +0.001 A 
ATOM     15  C   UNL     1       0.039  -2.778  -0.033  0.00  0.00    +0.010 A 
ATOM     16  C   UNL     1       0.036  -2.094   1.184  0.00  0.00    +0.009 A 
ATOM     17  C   UNL     1       0.023  -0.699   1.194  0.00  0.00    +0.014 A 
ENDBRANCH   1  16
BRANCH   4  18
ATOM     18  C   UNL     1       1.461  -2.032   6.543  0.00  0.00    +0.190 C 
ATOM     19  C   UNL     1       1.896  -2.081   7.997  0.00  0.00    +0.030 C 
ATOM     20  C   UNL     1       1.438  -0.937   8.509  0.00  0.00    +0.064 C 
ATOM     21  N   UNL     1       0.792  -0.215   7.567  0.00  0.00    -0.158 NA
ATOM     22  N   UNL     1       0.756  -0.742   6.448  0.00  0.00    -0.177 NA
BRANCH  20  23
ATOM     23  C   UNL     1       1.616  -0.509   9.942  0.00  0.00    +0.033 C 
ATOM     24  C   UNL     1       2.389   0.811   9.988  0.00  0.00    +0.014 C 
ATOM     25  C   UNL     1       0.244  -0.319  10.593  0.00  0.00    +0.014 C 
ENDBRANCH  20  23
ENDBRANCH   4  18
TORSDOF 3
