REMARK  Name = ZINC37277506
REMARK  6 active torsions:
REMARK  status: ('A' for Active; 'I' for Inactive)
REMARK    1  A    between atoms: C_10  and  N_12
REMARK    2  A    between atoms: C_13  and  C_15
REMARK    3  A    between atoms: C_20  and  N_21
REMARK    4  A    between atoms: C_24  and  N_27
REMARK    5  A    between atoms: N_27  and  S_28
REMARK    6  A    between atoms: S_28  and  C_31
REMARK                            x       y       z     vdW  Elec       q    Type
REMARK                         _______ _______ _______ _____ _____    ______ ____
ROOT
ATOM      1  C   UNL     1       6.233   1.806  -1.448  0.00  0.00    +0.058 A 
ATOM      2  C   UNL     1       6.450   1.307  -2.735  0.00  0.00    +0.015 A 
ATOM      3  C   UNL     1       7.279   1.982  -3.604  0.00  0.00    +0.001 A 
ATOM      4  C   UNL     1       7.903   3.155  -3.208  0.00  0.00    +0.002 A 
ATOM      5  C   UNL     1       7.699   3.661  -1.941  0.00  0.00    +0.024 A 
ATOM      6  C   UNL     1       6.861   2.998  -1.053  0.00  0.00    +0.042 A 
ENDROOT
BRANCH   6   7
ATOM      7  N   UNL     1       6.650   3.508   0.221  0.00  0.00    -0.329 N 
ATOM      8  C   UNL     1       5.495   4.373   0.499  0.00  0.00    +0.106 C 
ATOM      9  C   UNL     1       5.994   5.670   1.144  0.00  0.00    +0.039 C 
ATOM     10  C   UNL     1       6.837   5.332   2.375  0.00  0.00    +0.079 C 
ATOM     11  C   UNL     1       8.053   4.504   1.952  0.00  0.00    +0.039 C 
ATOM     12  C   UNL     1       7.574   3.189   1.318  0.00  0.00    +0.106 C 
BRANCH  10  13
ATOM     13  N   UNL     1       7.289   6.571   3.013  0.00  0.00    -0.187 NA
ATOM     14  H   UNL     1       7.508   7.344   2.470  0.00  0.00    +0.148 HD
BRANCH  13  15
ATOM     15  S   UNL     1       7.424   6.652   4.662  0.00  0.00    +0.059 S 
ATOM     16  O   UNL     1       7.904   7.955   4.966  0.00  0.00    -0.153 OA
ATOM     17  O   UNL     1       6.209   6.143   5.195  0.00  0.00    -0.153 OA
BRANCH  15  18
ATOM     18  C   UNL     1       8.693   5.525   5.136  0.00  0.00    +0.105 A 
ATOM     19  C   UNL     1       8.377   4.211   5.426  0.00  0.00    +0.031 A 
ATOM     20  C   UNL     1       9.371   3.326   5.798  0.00  0.00    +0.040 A 
ATOM     21  C   UNL     1      10.685   3.756   5.879  0.00  0.00    +0.124 A 
ATOM     22  C   UNL     1      11.001   5.073   5.588  0.00  0.00    +0.040 A 
ATOM     23  C   UNL     1      10.005   5.954   5.212  0.00  0.00    +0.031 A 
ATOM     24  F   UNL     1      11.658   2.892   6.243  0.00  0.00    -0.205 F 
ENDBRANCH  15  18
ENDBRANCH  13  15
ENDBRANCH  10  13
ENDBRANCH   6   7
BRANCH   1  26
ATOM     25  N   UNL     1       4.654   0.013  -0.934  0.00  0.00    -0.304 N 
ATOM     26  C   UNL     1       5.347   1.089  -0.514  0.00  0.00    +0.246 C 
ATOM     27  O   UNL     1       5.240   1.470   0.636  0.00  0.00    -0.270 OA
ATOM     28  H   UNL     1       4.739  -0.291  -1.852  0.00  0.00    +0.150 HD
BRANCH  25  38
ATOM     29  C   UNL     1       0.015   1.341   0.088  0.00  0.00    +0.000 A 
ATOM     30  C   UNL     1       1.204   2.046   0.071  0.00  0.00    +0.000 A 
ATOM     31  C   UNL     1       2.404   1.367   0.039  0.00  0.00    +0.006 A 
ATOM     32  C   UNL     1       2.428  -0.022   0.022  0.00  0.00    -0.024 A 
ATOM     33  C   UNL     1       1.244  -0.725   0.034  0.00  0.00    -0.042 A 
ATOM     34  C   UNL     1       0.037  -0.038   0.070  0.00  0.00    +0.004 A 
ATOM     35  C   UNL     1       1.195  -2.230  -0.000  0.00  0.00    +0.035 C 
ATOM     36  C   UNL     1       2.547  -2.821   0.393  0.00  0.00    +0.007 C 
ATOM     37  C   UNL     1       3.633  -2.152  -0.458  0.00  0.00    +0.027 C 
ATOM     38  C   UNL     1       3.773  -0.700  -0.006  0.00  0.00    +0.104 C 
ENDBRANCH  25  38
ENDBRANCH   1  26
TORSDOF 6
