REMARK  Name = ZINC64541245
REMARK  9 active torsions:
REMARK  status: ('A' for Active; 'I' for Inactive)
REMARK    1  A    between atoms: C_1  and  C_2
REMARK    2  A    between atoms: C_2  and  C_4
REMARK    3  A    between atoms: C_2  and  C_23
REMARK    4  A    between atoms: C_10  and  C_12
REMARK    5  A    between atoms: N_25  and  C_26
REMARK    6  A    between atoms: C_26  and  C_27
REMARK    7  A    between atoms: C_30  and  N_33
REMARK    8  A    between atoms: N_33  and  C_34
REMARK    9  A    between atoms: N_33  and  C_35
REMARK                            x       y       z     vdW  Elec       q    Type
REMARK                         _______ _______ _______ _____ _____    ______ ____
ROOT
ATOM      1  C   UNL     1       0.712  -0.464  -1.270  0.00  0.00    +0.004 C 
ATOM      2  C   UNL     1       0.747  -1.994  -1.271  0.00  0.00    +0.023 C 
ATOM      3  C   UNL     1       1.435  -2.484  -2.549  0.00  0.00    +0.108 C 
ATOM      4  N   UNL     1       2.757  -1.850  -2.647  0.00  0.00    -0.300 N 
ATOM      5  C   UNL     1       2.846  -0.386  -2.566  0.00  0.00    +0.108 C 
ATOM      6  C   UNL     1       2.143   0.081  -1.288  0.00  0.00    +0.023 C 
ATOM      7  C   UNL     1       3.867  -2.598  -2.808  0.00  0.00    +0.242 C 
ATOM      8  O   UNL     1       3.780  -3.806  -2.873  0.00  0.00    -0.273 OA
ENDROOT
BRANCH   7   9
ATOM      9  C   UNL     1       5.215  -1.933  -2.908  0.00  0.00    +0.190 C 
ATOM     10  C   UNL     1       5.527  -1.191  -1.627  0.00  0.00    +0.016 C 
ATOM     11  C   UNL     1       6.650  -1.757  -1.129  0.00  0.00    -0.002 A 
ATOM     12  C   UNL     1       7.448  -1.491   0.073  0.00  0.00    +0.029 A 
ATOM     13  C   UNL     1       8.548  -2.243   0.310  0.00  0.00    +0.042 A 
ATOM     14  C   UNL     1       8.943  -3.267  -0.563  0.00  0.00    +0.022 A 
ATOM     15  C   UNL     1       8.261  -3.570  -1.688  0.00  0.00    +0.027 A 
ATOM     16  C   UNL     1       7.088  -2.843  -2.035  0.00  0.00    +0.043 A 
ATOM     17  N   UNL     1       6.268  -2.945  -3.054  0.00  0.00    -0.370 N 
ATOM     18 CL   UNL     1       9.495  -1.931   1.732  0.00  0.00    -0.084 Cl
ATOM     19  H   UNL     1       6.345  -3.581  -3.783  0.00  0.00    +0.161 HD
ENDBRANCH   7   9
BRANCH   1  21
ATOM     20  C   UNL     1      -0.041   1.559  -0.012  0.00  0.00    +0.017 C 
ATOM     21  C   UNL     1      -0.005   0.029  -0.012  0.00  0.00    +0.075 C 
BRANCH  21  22
ATOM     22  C   UNL     1      -1.413  -0.507   0.006  0.00  0.00    +0.216 C 
ATOM     23  O   UNL     1      -1.805  -1.214  -0.898  0.00  0.00    -0.276 OA
ATOM     24  N   UNL     1      -2.238  -0.201   1.028  0.00  0.00    -0.311 N 
ATOM     25  H   UNL     1      -1.925   0.364   1.751  0.00  0.00    +0.149 HD
BRANCH  24  26
ATOM     26  C   UNL     1      -3.607  -0.722   1.045  0.00  0.00    +0.139 C 
BRANCH  26  27
ATOM     27  C   UNL     1      -4.313  -0.236   2.284  0.00  0.00    -0.030 A 
ATOM     28  C   UNL     1      -4.255  -0.981   3.448  0.00  0.00    +0.007 A 
ATOM     29  C   UNL     1      -4.901  -0.539   4.586  0.00  0.00    +0.023 A 
ATOM     30  C   UNL     1      -5.610   0.655   4.560  0.00  0.00    +0.029 A 
ATOM     31  C   UNL     1      -5.667   1.401   3.390  0.00  0.00    +0.023 A 
ATOM     32  C   UNL     1      -5.013   0.956   2.257  0.00  0.00    +0.007 A 
BRANCH  30  33
ATOM     33  N   UNL     1      -6.265   1.105   5.709  0.00  0.00    -0.336 N 
ATOM     34  C   UNL     1      -6.311   0.259   6.904  0.00  0.00    +0.129 C 
ATOM     35  C   UNL     1      -6.906   2.422   5.718  0.00  0.00    +0.129 C 
ENDBRANCH  30  33
ENDBRANCH  26  27
ENDBRANCH  24  26
ENDBRANCH  21  22
ENDBRANCH   1  21
TORSDOF 6
