REMARK  Name = ZINC54094878
REMARK  4 active torsions:
REMARK  status: ('A' for Active; 'I' for Inactive)
REMARK    1  A    between atoms: C_1  and  C_2
REMARK    2  A    between atoms: C_8  and  N_10
REMARK    3  A    between atoms: N_13  and  N_14
REMARK    4  A    between atoms: C_15  and  C_17
REMARK                            x       y       z     vdW  Elec       q    Type
REMARK                         _______ _______ _______ _____ _____    ______ ____
ROOT
ATOM      1  N   UNL     1       2.116  -0.004   1.231  0.00  0.00    -0.295 N 
ATOM      2  C   UNL     1       2.795   0.128   2.388  0.00  0.00    +0.316 C 
ATOM      3  O   UNL     1       2.266  -0.174   3.441  0.00  0.00    -0.251 OA
ATOM      4  N   UNL     1       4.059   0.594   2.379  0.00  0.00    -0.218 N 
ATOM      5  H   UNL     1       2.538   0.237   0.392  0.00  0.00    +0.151 HD
ATOM      6  H   UNL     1       4.548   0.689   3.211  0.00  0.00    +0.174 HD
ENDROOT
BRANCH   1  13
ATOM      7  C   UNL     1      -0.019   1.526   0.010  0.00  0.00    +0.009 C 
ATOM      8  C   UNL     1       0.002  -0.004   0.002  0.00  0.00    +0.006 C 
ATOM      9  C   UNL     1       0.718  -0.497  -1.257  0.00  0.00    +0.005 C 
ATOM     10  C   UNL     1       0.739  -2.027  -1.265  0.00  0.00    +0.000 C 
ATOM     11  C   UNL     1       1.479  -2.534  -0.026  0.00  0.00    +0.002 C 
ATOM     12  C   UNL     1       0.763  -2.041   1.233  0.00  0.00    +0.022 C 
ATOM     13  C   UNL     1       0.742  -0.511   1.242  0.00  0.00    +0.077 C 
ENDBRANCH   1  13
BRANCH   4  14
ATOM     14  N   UNL     1       4.668   0.942   1.166  0.00  0.00    -0.228 N 
ATOM     15  C   UNL     1       5.933   1.409   1.156  0.00  0.00    +0.276 C 
ATOM     16  O   UNL     1       6.545   1.528   2.201  0.00  0.00    -0.267 OA
ATOM     17  H   UNL     1       4.180   0.848   0.333  0.00  0.00    +0.173 HD
BRANCH  15  18
ATOM     18  C   UNL     1       6.571   1.773  -0.113  0.00  0.00    +0.104 A 
ATOM     19  C   UNL     1       7.853   2.255  -0.272  0.00  0.00    +0.047 A 
ATOM     20  C   UNL     1       8.045   2.468  -1.641  0.00  0.00    +0.036 A 
ATOM     21  C   UNL     1       6.902   2.119  -2.280  0.00  0.00    +0.098 A 
ATOM     22  N   UNL     1       6.000   1.691  -1.363  0.00  0.00    -0.356 N 
ATOM     23  H   UNL     1       5.101   1.380  -1.556  0.00  0.00    +0.166 HD
ATOM     24 BR   UNL     1       9.620   3.125  -2.456  0.00  0.00    -0.049 Br
ENDBRANCH  15  18
ENDBRANCH   4  14
TORSDOF 3
