REMARK  Name = ZINC65194078
REMARK  9 active torsions:
REMARK  status: ('A' for Active; 'I' for Inactive)
REMARK    1  A    between atoms: C_1  and  C_2
REMARK    2  A    between atoms: C_7  and  N_8
REMARK    3  A    between atoms: N_8  and  S_9
REMARK    4  A    between atoms: S_9  and  C_12
REMARK    5  A    between atoms: C_13  and  C_25
REMARK    6  A    between atoms: N_14  and  C_24
REMARK    7  A    between atoms: C_15  and  C_23
REMARK    8  A    between atoms: C_16  and  C_17
REMARK    9  A    between atoms: C_20  and  C_22
REMARK                            x       y       z     vdW  Elec       q    Type
REMARK                         _______ _______ _______ _____ _____    ______ ____
ROOT
ATOM      1  C   UNL     1       2.500  -0.640   3.443  0.00  0.00    +0.141 A 
ATOM      2  C   UNL     1       3.227  -1.602   2.846  0.00  0.00    +0.043 A 
ATOM      3  N   UNL     1       4.531  -1.198   2.804  0.00  0.00    -0.349 N 
ATOM      4  C   UNL     1       4.635   0.029   3.379  0.00  0.00    +0.030 A 
ATOM      5  C   UNL     1       3.390   0.413   3.784  0.00  0.00    +0.086 A 
ATOM      6  C   UNL     1       5.902   0.829   3.536  0.00  0.00    +0.064 C 
ATOM      7  C   UNL     1       5.640  -1.966   2.232  0.00  0.00    +0.149 C 
ATOM      8  C   UNL     1       2.693  -2.906   2.313  0.00  0.00    +0.065 C 
ENDROOT
BRANCH   5   9
ATOM      9  C   UNL     1       3.036   1.681   4.452  0.00  0.00    +0.252 A 
ATOM     10  N   UNL     1       1.838   2.045   4.849  0.00  0.00    -0.107 NA
ATOM     11  N   UNL     1       1.906   3.210   5.390  0.00  0.00    -0.112 NA
ATOM     12  C   UNL     1       3.137   3.634   5.361  0.00  0.00    +0.215 A 
ATOM     13  O   UNL     1       3.883   2.680   4.774  0.00  0.00    -0.420 OA
ATOM     14  C   UNL     1       3.638   4.952   5.894  0.00  0.00    +0.111 C 
ENDBRANCH   5   9
BRANCH   1  15
ATOM     15  S   UNL     1       0.764  -0.678   3.741  0.00  0.00    +0.075 S 
ATOM     16  O   UNL     1       0.519   0.207   4.826  0.00  0.00    -0.150 OA
ATOM     17  O   UNL     1       0.387  -2.047   3.775  0.00  0.00    -0.150 OA
BRANCH  15  18
ATOM     18  N   UNL     1       0.025  -0.016   2.415  0.00  0.00    -0.216 N 
ATOM     19  H   UNL     1      -0.501   0.793   2.507  0.00  0.00    +0.174 HD
BRANCH  18  26
ATOM     20  C   UNL     1       0.183   1.657   0.120  0.00  0.00    +0.046 C 
ATOM     21  C   UNL     1       0.240   0.154   0.018  0.00  0.00    -0.028 A 
ATOM     22  C   UNL     1       0.379  -0.450  -1.217  0.00  0.00    +0.005 A 
ATOM     23  C   UNL     1       0.431  -1.829  -1.311  0.00  0.00    +0.000 A 
ATOM     24  C   UNL     1       0.345  -2.607  -0.171  0.00  0.00    +0.002 A 
ATOM     25  C   UNL     1       0.207  -2.009   1.066  0.00  0.00    +0.025 A 
ATOM     26  C   UNL     1       0.160  -0.624   1.165  0.00  0.00    +0.051 A 
ENDBRANCH  18  26
ENDBRANCH  15  18
ENDBRANCH   1  15
TORSDOF 4
