REMARK  Name = ZINC66238196
REMARK  9 active torsions:
REMARK  status: ('A' for Active; 'I' for Inactive)
REMARK    1  A    between atoms: C_1  and  C_2
REMARK    2  A    between atoms: C_2  and  C_3
REMARK    3  A    between atoms: C_3  and  C_23
REMARK    4  A    between atoms: N_6  and  C_10
REMARK    5  A    between atoms: C_10  and  C_11
REMARK    6  A    between atoms: C_11  and  C_13
REMARK    7  A    between atoms: C_11  and  O_22
REMARK    8  A    between atoms: C_13  and  O_14
REMARK    9  A    between atoms: O_14  and  C_15
REMARK                            x       y       z     vdW  Elec       q    Type
REMARK                         _______ _______ _______ _____ _____    ______ ____
ROOT
ATOM      1  C   UNL     1       0.718  -0.497  -1.257  0.00  0.00    +0.138 C 
ATOM      2  C   UNL     1       0.081   0.093  -2.499  0.00  0.00    +0.251 C 
ATOM      3  O   UNL     1      -1.061  -0.057  -2.878  0.00  0.00    -0.272 OA
ATOM      4  N   UNL     1       1.047   0.819  -3.095  0.00  0.00    -0.221 N 
ATOM      5  C   UNL     1       2.195   0.770  -2.408  0.00  0.00    +0.310 C 
ATOM      6  O   UNL     1       3.210   1.345  -2.748  0.00  0.00    -0.252 OA
ATOM      7  N   UNL     1       2.099   0.013  -1.301  0.00  0.00    -0.281 N 
ATOM      8  H   UNL     1       2.803  -0.163  -0.657  0.00  0.00    +0.152 HD
ENDROOT
BRANCH   1   9
ATOM      9  C   UNL     1       0.707  -2.003  -1.315  0.00  0.00    -0.015 A 
ATOM     10  C   UNL     1      -0.340  -2.709  -0.752  0.00  0.00    +0.006 A 
ATOM     11  C   UNL     1      -0.350  -4.090  -0.806  0.00  0.00    +0.000 A 
ATOM     12  C   UNL     1       0.686  -4.766  -1.424  0.00  0.00    +0.000 A 
ATOM     13  C   UNL     1       1.732  -4.060  -1.988  0.00  0.00    +0.000 A 
ATOM     14  C   UNL     1       1.740  -2.679  -1.938  0.00  0.00    +0.006 A 
ENDBRANCH   1   9
BRANCH   1  16
ATOM     15  C   UNL     1      -0.019   1.526   0.010  0.00  0.00    +0.007 C 
ATOM     16  C   UNL     1       0.002  -0.004   0.002  0.00  0.00    +0.037 C 
ENDBRANCH   1  16
BRANCH   4  17
ATOM     17  C   UNL     1       0.864   1.569  -4.340  0.00  0.00    +0.152 C 
BRANCH  17  18
ATOM     18  C   UNL     1       0.396   2.989  -4.016  0.00  0.00    +0.170 C 
BRANCH  18  19
ATOM     19  O   UNL     1       1.426   3.680  -3.307  0.00  0.00    -0.387 OA
ATOM     20  H   UNL     1       2.257   3.758  -3.796  0.00  0.00    +0.210 HD
ENDBRANCH  18  19
BRANCH  18  21
ATOM     21  C   UNL     1       0.086   3.732  -5.317  0.00  0.00    +0.262 C 
BRANCH  21  22
ATOM     22  O   UNL     1      -0.462   5.017  -5.012  0.00  0.00    -0.486 OA
BRANCH  22  23
ATOM     23  C   UNL     1      -0.795   5.811  -6.064  0.00  0.00    +0.156 A 
ATOM     24  C   UNL     1      -0.605   5.361  -7.362  0.00  0.00    +0.048 A 
ATOM     25  C   UNL     1      -0.944   6.170  -8.430  0.00  0.00    +0.004 A 
ATOM     26  C   UNL     1      -1.472   7.428  -8.206  0.00  0.00    +0.003 A 
ATOM     27  C   UNL     1      -1.663   7.880  -6.914  0.00  0.00    +0.042 A 
ATOM     28  C   UNL     1      -1.332   7.072  -5.841  0.00  0.00    +0.165 A 
ATOM     29  F   UNL     1      -1.524   7.512  -4.578  0.00  0.00    -0.202 F 
ENDBRANCH  22  23
ENDBRANCH  21  22
ENDBRANCH  18  21
ENDBRANCH  17  18
ENDBRANCH   4  17
TORSDOF 8
