REMARK  Name = ZINC15477318
REMARK  10 active torsions:
REMARK  status: ('A' for Active; 'I' for Inactive)
REMARK    1  A    between atoms: C_1  and  O_2
REMARK    2  A    between atoms: O_2  and  C_3
REMARK    3  A    between atoms: C_8  and  N_9
REMARK    4  A    between atoms: N_9  and  S_10
REMARK    5  A    between atoms: S_10  and  C_13
REMARK    6  A    between atoms: C_16  and  C_19
REMARK    7  A    between atoms: N_21  and  C_22
REMARK    8  A    between atoms: C_22  and  C_23
REMARK    9  A    between atoms: C_23  and  C_25
REMARK   10  A    between atoms: C_23  and  N_63
REMARK                            x       y       z     vdW  Elec       q    Type
REMARK                         _______ _______ _______ _____ _____    ______ ____
ROOT
ATOM      1  C   UNL     1       0.219   0.846  -1.694  0.00  0.00    +0.109 A 
ATOM      2  C   UNL     1       0.296   2.222  -1.822  0.00  0.00    +0.029 A 
ATOM      3  C   UNL     1      -0.070   2.829  -3.005  0.00  0.00    +0.015 A 
ATOM      4  C   UNL     1      -0.528   2.053  -4.071  0.00  0.00    +0.037 A 
ATOM      5  C   UNL     1      -0.608   0.666  -3.934  0.00  0.00    +0.015 A 
ATOM      6  C   UNL     1      -0.234   0.071  -2.747  0.00  0.00    +0.029 A 
ENDROOT
BRANCH   4   7
ATOM      7  C   UNL     1      -0.927   2.698  -5.341  0.00  0.00    +0.244 C 
ATOM      8  O   UNL     1      -1.325   2.020  -6.268  0.00  0.00    -0.270 OA
ATOM      9  N   UNL     1      -0.849   4.037  -5.470  0.00  0.00    -0.312 N 
ATOM     10  H   UNL     1      -0.531   4.578  -4.731  0.00  0.00    +0.149 HD
BRANCH   9  11
ATOM     11  C   UNL     1      -1.244   4.675  -6.728  0.00  0.00    +0.097 C 
BRANCH  11  12
ATOM     12  C   UNL     1      -0.943   6.174  -6.656  0.00  0.00    +0.016 C 
BRANCH  12  18
ATOM     13  C   UNL     1       0.785   7.796  -6.164  0.00  0.00    -0.078 C 
ATOM     14  C   UNL     1       2.242   7.952  -5.724  0.00  0.00    -0.019 C 
ATOM     15  C   UNL     1       3.161   7.364  -6.799  0.00  0.00    -0.004 C 
ATOM     16  C   UNL     1       2.794   5.895  -7.025  0.00  0.00    -0.019 C 
ATOM     17  C   UNL     1       1.320   5.799  -7.428  0.00  0.00    -0.078 C 
ATOM     18  N   UNL     1       0.488   6.359  -6.342  0.00  0.00    +0.387 N 
ATOM     19  H   UNL     1       0.704   5.864  -5.468  0.00  0.00    -0.081 HD
ENDBRANCH  12  18
BRANCH  12  20
ATOM     20  C   UNL     1      -1.284   6.819  -7.975  0.00  0.00    +0.093 A 
ATOM     21  C   UNL     1      -2.278   7.699  -8.187  0.00  0.00    +0.043 A 
ATOM     22  C   UNL     1      -2.236   8.042  -9.558  0.00  0.00    +0.041 A 
ATOM     23  C   UNL     1      -1.218   7.351 -10.102  0.00  0.00    +0.195 A 
ATOM     24  O   UNL     1      -0.641   6.616  -9.137  0.00  0.00    -0.469 OA
ENDBRANCH  12  20
ENDBRANCH  11  12
ENDBRANCH   9  11
ENDBRANCH   4   7
BRANCH   1  25
ATOM     25  S   UNL     1       0.695   0.078  -0.181  0.00  0.00    +0.072 S 
ATOM     26  O   UNL     1       0.010  -1.166  -0.125  0.00  0.00    -0.150 OA
ATOM     27  O   UNL     1       0.566   1.065   0.833  0.00  0.00    -0.150 OA
BRANCH  25  28
ATOM     28  N   UNL     1       2.309  -0.274  -0.296  0.00  0.00    -0.213 N 
ATOM     29  H   UNL     1       2.610  -1.194  -0.236  0.00  0.00    +0.174 HD
BRANCH  28  35
ATOM     30  C   UNL     1       4.370   0.538  -1.269  0.00  0.00    +0.142 A 
ATOM     31  C   UNL     1       5.286   1.560  -1.455  0.00  0.00    +0.047 A 
ATOM     32  C   UNL     1       5.075   2.793  -0.866  0.00  0.00    +0.004 A 
ATOM     33  C   UNL     1       3.951   3.010  -0.091  0.00  0.00    +0.002 A 
ATOM     34  C   UNL     1       3.030   1.997   0.096  0.00  0.00    +0.028 A 
ATOM     35  C   UNL     1       3.237   0.755  -0.488  0.00  0.00    +0.090 A 
BRANCH  30  37
ATOM     36  C   UNL     1       5.759  -0.826  -2.636  0.00  0.00    +0.277 C 
ATOM     37  O   UNL     1       4.576  -0.676  -1.848  0.00  0.00    -0.493 OA
ENDBRANCH  30  37
ENDBRANCH  28  35
ENDBRANCH  25  28
ENDBRANCH   1  25
TORSDOF 9
