REMARK  Name = ZINC06608019
REMARK  6 active torsions:
REMARK  status: ('A' for Active; 'I' for Inactive)
REMARK    1  A    between atoms: C_14  and  C_15
REMARK    2  A    between atoms: C_15  and  O_16
REMARK    3  A    between atoms: O_16  and  C_17
REMARK    4  A    between atoms: C_17  and  C_19
REMARK    5  A    between atoms: C_22  and  N_28
REMARK    6  A    between atoms: C_23  and  N_25
REMARK                            x       y       z     vdW  Elec       q    Type
REMARK                         _______ _______ _______ _____ _____    ______ ____
ROOT
ATOM      1  C   UNL     1       2.071  -3.656   0.084  0.00  0.00    +0.288 C 
ENDROOT
BRANCH   1  15
ATOM      2  C   UNL     1       0.005   1.011  -0.227  0.00  0.00    +0.001 A 
ATOM      3  C   UNL     1       1.301   0.511  -0.284  0.00  0.00    +0.001 A 
ATOM      4  C   UNL     1       1.544  -0.827  -0.165  0.00  0.00    +0.010 A 
ATOM      5  C   UNL     1       0.474  -1.711   0.017  0.00  0.00    +0.007 A 
ATOM      6  C   UNL     1      -0.844  -1.197   0.074  0.00  0.00    -0.007 A 
ATOM      7  C   UNL     1      -1.061   0.173  -0.050  0.00  0.00    +0.009 A 
ATOM      8  C   UNL     1      -1.937  -2.155   0.266  0.00  0.00    +0.008 A 
ATOM      9  C   UNL     1      -3.269  -1.748   0.336  0.00  0.00    +0.010 A 
ATOM     10  C   UNL     1      -4.252  -2.680   0.515  0.00  0.00    +0.001 A 
ATOM     11  C   UNL     1      -3.936  -4.029   0.629  0.00  0.00    +0.002 A 
ATOM     12  C   UNL     1      -2.642  -4.455   0.565  0.00  0.00    +0.028 A 
ATOM     13  C   UNL     1      -1.608  -3.525   0.381  0.00  0.00    +0.072 A 
ATOM     14  N   UNL     1      -0.327  -3.925   0.315  0.00  0.00    -0.248 NA
ATOM     15  C   UNL     1       0.670  -3.104   0.145  0.00  0.00    +0.087 A 
ENDBRANCH   1  15
BRANCH   1  16
ATOM     16  O   UNL     1       2.636  -3.692   1.421  0.00  0.00    -0.455 OA
BRANCH  16  17
ATOM     17  C   UNL     1       3.893  -4.162   1.542  0.00  0.00    +0.340 C 
ATOM     18  O   UNL     1       4.500  -4.533   0.557  0.00  0.00    -0.245 OA
BRANCH  17  19
ATOM     19  C   UNL     1       4.531  -4.228   2.869  0.00  0.00    +0.061 A 
ATOM     20  C   UNL     1       3.836  -3.796   4.003  0.00  0.00    +0.017 A 
ATOM     21  C   UNL     1       4.425  -3.862   5.234  0.00  0.00    +0.026 A 
ATOM     22  C   UNL     1       5.723  -4.349   5.363  0.00  0.00    +0.055 A 
ATOM     23  C   UNL     1       6.426  -4.775   4.239  0.00  0.00    +0.147 A 
ATOM     24  C   UNL     1       5.835  -4.716   2.997  0.00  0.00    +0.049 A 
BRANCH  23  25
ATOM     25  N   UNL     1       7.806  -5.292   4.379  0.00  0.00    +0.058 N 
ATOM     26  O   UNL     1       8.460  -5.558   3.387  0.00  0.00    -0.126 OA
ATOM     27  O   UNL     1       8.287  -5.450   5.487  0.00  0.00    -0.126 OA
ENDBRANCH  23  25
BRANCH  22  28
ATOM     28  N   UNL     1       6.320  -4.408   6.617  0.00  0.00    -0.356 N 
ATOM     29  H   UNL     1       7.287  -4.392   6.696  0.00  0.00    +0.142 HD
ATOM     30  H   UNL     1       5.770  -4.465   7.414  0.00  0.00    +0.142 HD
ENDBRANCH  22  28
ENDBRANCH  17  19
ENDBRANCH  16  17
ENDBRANCH   1  16
TORSDOF 6
