REMARK  Name = ZINC65742915
REMARK  8 active torsions:
REMARK  status: ('A' for Active; 'I' for Inactive)
REMARK    1  A    between atoms: C_1  and  C_2
REMARK    2  A    between atoms: C_3  and  O_20
REMARK    3  A    between atoms: C_7  and  C_8
REMARK    4  A    between atoms: C_8  and  S_9
REMARK    5  A    between atoms: S_9  and  C_10
REMARK    6  A    between atoms: C_16  and  O_19
REMARK    7  A    between atoms: O_20  and  C_21
REMARK    8  A    between atoms: C_21  and  C_22
REMARK                            x       y       z     vdW  Elec       q    Type
REMARK                         _______ _______ _______ _____ _____    ______ ____
ROOT
ATOM      1  C   UNL     1       0.025   0.036   2.497  0.00  0.00    +0.133 C 
ENDROOT
BRANCH   1   8
ATOM      2  C   UNL     1      -0.018   1.503   0.010  0.00  0.00    +0.049 C 
ATOM      3  C   UNL     1       0.002  -0.004   0.002  0.00  0.00    +0.013 A 
ATOM      4  C   UNL     1       0.006  -0.703  -1.202  0.00  0.00    +0.127 A 
ATOM      5  C   UNL     1       0.026  -2.095  -1.158  0.00  0.00    +0.065 A 
ATOM      6  C   UNL     1       0.040  -2.727   0.069  0.00  0.00    +0.114 A 
ATOM      7  N   UNL     1       0.036  -2.029   1.189  0.00  0.00    -0.259 NA
ATOM      8  C   UNL     1       0.023  -0.710   1.187  0.00  0.00    +0.058 A 
BRANCH   4   9
ATOM      9  O   UNL     1      -0.009  -0.045  -2.389  0.00  0.00    -0.483 OA
BRANCH   9  10
ATOM     10  C   UNL     1      -0.004  -0.844  -3.574  0.00  0.00    +0.342 C 
BRANCH  10  11
ATOM     11  C   UNL     1      -0.023   0.067  -4.804  0.00  0.00    +0.424 C 
ATOM     12  F   UNL     1       1.108   0.891  -4.791  0.00  0.00    -0.167 F 
ATOM     13  F   UNL     1      -0.018  -0.715  -5.964  0.00  0.00    -0.167 F 
ATOM     14  F   UNL     1      -1.177   0.858  -4.780  0.00  0.00    -0.167 F 
ENDBRANCH  10  11
ENDBRANCH   9  10
ENDBRANCH   4   9
ENDBRANCH   1   8
BRANCH   1  15
ATOM     15  S   UNL     1      -1.684   0.312   3.039  0.00  0.00    -0.082 S 
BRANCH  15  16
ATOM     16  C   UNL     1      -1.513   1.182   4.561  0.00  0.00    +0.168 A 
ATOM     17  N   UNL     1      -0.373   1.522   5.111  0.00  0.00    -0.222 NA
ATOM     18  C   UNL     1      -0.606   2.179   6.277  0.00  0.00    +0.094 A 
ATOM     19  C   UNL     1       0.231   2.749   7.242  0.00  0.00    +0.030 A 
ATOM     20  C   UNL     1      -0.314   3.363   8.346  0.00  0.00    +0.006 A 
ATOM     21  C   UNL     1      -1.690   3.423   8.512  0.00  0.00    +0.047 A 
ATOM     22  C   UNL     1      -2.534   2.865   7.568  0.00  0.00    +0.142 A 
ATOM     23  C   UNL     1      -1.998   2.241   6.446  0.00  0.00    +0.109 A 
ATOM     24  N   UNL     1      -2.550   1.607   5.343  0.00  0.00    -0.330 N 
ATOM     25  H   UNL     1      -3.495   1.486   5.162  0.00  0.00    +0.168 HD
BRANCH  22  26
ATOM     26  O   UNL     1      -3.881   2.927   7.735  0.00  0.00    -0.505 OA
ATOM     27  H   UNL     1      -4.290   3.713   7.347  0.00  0.00    +0.292 HD
ENDBRANCH  22  26
ENDBRANCH  15  16
ENDBRANCH   1  15
TORSDOF 7
