REMARK  Name = ZINC35174474
REMARK  12 active torsions:
REMARK  status: ('A' for Active; 'I' for Inactive)
REMARK    1  A    between atoms: C_1  and  C_2
REMARK    2  A    between atoms: C_3  and  C_32
REMARK    3  A    between atoms: C_4  and  C_9
REMARK    4  A    between atoms: C_6  and  C_8
REMARK    5  A    between atoms: N_14  and  S_19
REMARK    6  A    between atoms: C_15  and  C_18
REMARK    7  A    between atoms: S_19  and  C_22
REMARK    8  A    between atoms: C_32  and  O_34
REMARK    9  A    between atoms: O_34  and  C_35
REMARK   10  A    between atoms: C_35  and  C_36
REMARK   11  A    between atoms: C_36  and  C_37
REMARK   12  A    between atoms: C_36  and  C_38
REMARK                            x       y       z     vdW  Elec       q    Type
REMARK                         _______ _______ _______ _____ _____    ______ ____
ROOT
ATOM      1  C   UNL     1       0.031  -2.920  -2.404  0.00  0.00    +0.266 C 
ATOM      2  O   UNL     1      -0.085  -2.370  -3.481  0.00  0.00    -0.268 OA
ATOM      3  N   UNL     1       0.151  -4.260  -2.340  0.00  0.00    -0.293 N 
ATOM      4  C   UNL     1       0.163  -4.950  -1.043  0.00  0.00    +0.125 C 
ATOM      5  C   UNL     1       1.437  -5.799  -0.951  0.00  0.00    +0.129 C 
ATOM      6  N   UNL     1       1.559  -6.598  -2.178  0.00  0.00    -0.171 NA
ATOM      7  C   UNL     1       1.547  -5.908  -3.476  0.00  0.00    +0.094 C 
ATOM      8  C   UNL     1       0.268  -5.059  -3.568  0.00  0.00    +0.128 C 
ATOM      9  C   UNL     1       2.778  -5.007  -3.590  0.00  0.00    +0.027 C 
ENDROOT
BRANCH   1  13
ATOM     10  C   UNL     1       0.065   1.505   0.006  0.00  0.00    +0.066 C 
ATOM     11  C   UNL     1       0.055  -0.002  -0.001  0.00  0.00    +0.056 A 
ATOM     12  C   UNL     1       0.048  -0.707  -1.210  0.00  0.00    +0.110 A 
ATOM     13  C   UNL     1       0.039  -2.113  -1.155  0.00  0.00    +0.143 A 
ATOM     14  N   UNL     1       0.038  -2.706   0.033  0.00  0.00    -0.227 NA
ATOM     15  C   UNL     1       0.045  -1.997   1.143  0.00  0.00    +0.127 A 
ATOM     16  N   UNL     1       0.058  -0.678   1.134  0.00  0.00    -0.237 NA
ATOM     17  C   UNL     1       0.043  -2.716   2.467  0.00  0.00    +0.088 C 
BRANCH  12  18
ATOM     18  C   UNL     1       0.049   0.004  -2.506  0.00  0.00    +0.343 C 
ATOM     19  O   UNL     1       1.102   0.290  -3.041  0.00  0.00    -0.245 OA
BRANCH  18  20
ATOM     20  O   UNL     1      -1.117   0.335  -3.094  0.00  0.00    -0.461 OA
BRANCH  20  21
ATOM     21  C   UNL     1      -1.041   1.021  -4.345  0.00  0.00    +0.235 C 
BRANCH  21  22
ATOM     22  C   UNL     1      -2.454   1.311  -4.855  0.00  0.00    +0.020 C 
ATOM     23  C   UNL     1      -3.150   2.284  -3.901  0.00  0.00    +0.010 C 
ATOM     24  C   UNL     1      -2.375   1.933  -6.250  0.00  0.00    +0.010 C 
ENDBRANCH  21  22
ENDBRANCH  20  21
ENDBRANCH  18  20
ENDBRANCH  12  18
ENDBRANCH   1  13
BRANCH   6  25
ATOM     25  S   UNL     1       1.707  -8.245  -2.101  0.00  0.00    +0.063 S 
ATOM     26  O   UNL     1       2.345  -8.653  -3.303  0.00  0.00    -0.153 OA
ATOM     27  O   UNL     1       2.237  -8.546  -0.817  0.00  0.00    -0.153 OA
BRANCH  25  28
ATOM     28  C   UNL     1       0.079  -8.918  -2.143  0.00  0.00    +0.131 A 
ATOM     29  C   UNL     1      -0.316  -9.688  -3.193  0.00  0.00    +0.031 A 
ATOM     30  C   UNL     1      -1.598 -10.229  -3.246  0.00  0.00    +0.003 A 
ATOM     31  C   UNL     1      -2.494 -10.002  -2.246  0.00  0.00    +0.010 A 
ATOM     32  C   UNL     1      -2.122  -9.212  -1.147  0.00  0.00    +0.002 A 
ATOM     33  C   UNL     1      -0.816  -8.665  -1.088  0.00  0.00    +0.097 A 
ATOM     34  N   UNL     1      -0.455  -7.916  -0.042  0.00  0.00    -0.253 NA
ATOM     35  C   UNL     1      -1.286  -7.676   0.944  0.00  0.00    +0.111 A 
ATOM     36  C   UNL     1      -2.582  -8.189   0.951  0.00  0.00    +0.020 A 
ATOM     37  C   UNL     1      -3.018  -8.953  -0.093  0.00  0.00    +0.011 A 
ENDBRANCH  25  28
ENDBRANCH   6  25
TORSDOF 7
