REMARK  Name = ZINC08791516
REMARK  6 active torsions:
REMARK  status: ('A' for Active; 'I' for Inactive)
REMARK    1  A    between atoms: C_1  and  C_2
REMARK    2  A    between atoms: C_12  and  C_13
REMARK    3  A    between atoms: C_13  and  C_14
REMARK    4  A    between atoms: C_14  and  C_15
REMARK    5  A    between atoms: N_17  and  C_18
REMARK    6  A    between atoms: C_23  and  C_24
REMARK                            x       y       z     vdW  Elec       q    Type
REMARK                         _______ _______ _______ _____ _____    ______ ____
ROOT
ATOM      1  C   UNL     1      -1.330  -0.840   0.022  0.00  0.00    +0.045 C 
ATOM      2  C   UNL     1      -0.040  -0.061   0.024  0.00  0.00    -0.030 A 
ATOM      3  C   UNL     1       1.258  -0.744   0.013  0.00  0.00    +0.022 A 
ATOM      4  C   UNL     1       1.328  -2.137   0.003  0.00  0.00    +0.023 A 
ATOM      5  C   UNL     1       2.570  -2.758  -0.006  0.00  0.00    +0.024 A 
ATOM      6  C   UNL     1       3.751  -1.985  -0.006  0.00  0.00    +0.139 A 
ATOM      7  C   UNL     1       3.672  -0.602   0.004  0.00  0.00    +0.093 A 
ATOM      8  C   UNL     1       2.438   0.028   0.014  0.00  0.00    +0.143 A 
ATOM      9  O   UNL     1       2.371   1.376   0.025  0.00  0.00    -0.422 OA
ATOM     10  C   UNL     1       1.186   1.993   0.035  0.00  0.00    +0.341 A 
ATOM     11  O   UNL     1       1.163   3.211   0.044  0.00  0.00    -0.245 OA
ATOM     12  C   UNL     1      -0.039   1.297   0.034  0.00  0.00    +0.041 A 
ATOM     13  O   UNL     1       4.791  -2.846  -0.016  0.00  0.00    -0.459 OA
ATOM     14  C   UNL     1       4.364  -4.120  -0.021  0.00  0.00    +0.109 A 
ATOM     15  C   UNL     1       3.022  -4.149  -0.017  0.00  0.00    +0.001 A 
ATOM     16  C   UNL     1       2.187  -5.402  -0.023  0.00  0.00    +0.039 C 
ATOM     17  C   UNL     1       3.079  -6.579  -0.440  0.00  0.00    +0.005 C 
ATOM     18  C   UNL     1       4.365  -6.557   0.391  0.00  0.00    +0.008 C 
ATOM     19  C   UNL     1       5.227  -5.361  -0.031  0.00  0.00    +0.075 C 
ENDROOT
BRANCH  12  20
ATOM     20  C   UNL     1      -1.342   2.055   0.039  0.00  0.00    +0.052 C 
BRANCH  20  21
ATOM     21  C   UNL     1      -1.784   2.300   1.483  0.00  0.00    +0.101 C 
BRANCH  21  22
ATOM     22  C   UNL     1      -3.086   3.058   1.488  0.00  0.00    +0.218 C 
ATOM     23  O   UNL     1      -3.610   3.371   0.440  0.00  0.00    -0.275 OA
ATOM     24  N   UNL     1      -3.670   3.388   2.658  0.00  0.00    -0.285 N 
ATOM     25  H   UNL     1      -3.286   3.082   3.494  0.00  0.00    +0.155 HD
BRANCH  24  26
ATOM     26  C   UNL     1      -4.824   4.167   2.665  0.00  0.00    +0.046 A 
ATOM     27  C   UNL     1      -5.768   4.025   1.657  0.00  0.00    +0.024 A 
ATOM     28  C   UNL     1      -6.913   4.796   1.668  0.00  0.00    +0.002 A 
ATOM     29  C   UNL     1      -7.125   5.722   2.676  0.00  0.00    +0.001 A 
ATOM     30  C   UNL     1      -6.196   5.881   3.682  0.00  0.00    +0.015 A 
ATOM     31  C   UNL     1      -5.035   5.105   3.687  0.00  0.00    +0.058 A 
BRANCH  31  32
ATOM     32  C   UNL     1      -4.036   5.270   4.760  0.00  0.00    +0.243 C 
ATOM     33  O   UNL     1      -2.982   4.666   4.708  0.00  0.00    -0.270 OA
ATOM     34  N   UNL     1      -4.292   6.091   5.797  0.00  0.00    -0.325 N 
ATOM     35  H   UNL     1      -5.132   6.574   5.839  0.00  0.00    +0.145 HD
ATOM     36  H   UNL     1      -3.635   6.200   6.503  0.00  0.00    +0.145 HD
ENDBRANCH  31  32
ENDBRANCH  24  26
ENDBRANCH  21  22
ENDBRANCH  20  21
ENDBRANCH  12  20
TORSDOF 5
