REMARK  Name = ZINC12996262
REMARK  5 active torsions:
REMARK  status: ('A' for Active; 'I' for Inactive)
REMARK    1  A    between atoms: C_8  and  C_31
REMARK    2  A    between atoms: N_10  and  C_12
REMARK    3  A    between atoms: C_12  and  C_13
REMARK    4  A    between atoms: N_15  and  C_16
REMARK    5  A    between atoms: C_16  and  C_21
REMARK                            x       y       z     vdW  Elec       q    Type
REMARK                         _______ _______ _______ _____ _____    ______ ____
ROOT
ATOM      1  C   UNL     1       5.844  -2.326   0.058  0.00  0.00    +0.228 C 
ATOM      2  O   UNL     1       5.451  -1.440  -0.671  0.00  0.00    -0.274 OA
ATOM      3  N   UNL     1       7.152  -2.649   0.082  0.00  0.00    -0.305 N 
ATOM      4  H   UNL     1       7.456  -3.404   0.610  0.00  0.00    +0.150 HD
ENDROOT
BRANCH   3   5
ATOM      5  C   UNL     1       8.116  -1.859  -0.689  0.00  0.00    +0.060 C 
ATOM      6  C   UNL     1       9.539  -2.421  -0.490  0.00  0.00    +0.030 C 
ATOM      7  C   UNL     1       9.748  -3.361  -1.703  0.00  0.00    +0.002 C 
ATOM      8  C   UNL     1       9.050  -2.595  -2.854  0.00  0.00    +0.002 C 
ATOM      9  C   UNL     1       7.805  -1.970  -2.192  0.00  0.00    +0.030 C 
BRANCH   5  10
ATOM     10  C   UNL     1       8.064  -0.416  -0.256  0.00  0.00    -0.020 A 
ATOM     11  C   UNL     1       8.490   0.578  -1.116  0.00  0.00    +0.009 A 
ATOM     12  C   UNL     1       8.446   1.902  -0.722  0.00  0.00    +0.050 A 
ATOM     13  C   UNL     1       7.973   2.236   0.538  0.00  0.00    +0.162 A 
ATOM     14  C   UNL     1       7.543   1.237   1.402  0.00  0.00    +0.162 A 
ATOM     15  C   UNL     1       7.586  -0.090   0.999  0.00  0.00    +0.055 A 
ATOM     16  O   UNL     1       7.068   1.544   2.641  0.00  0.00    -0.485 OA
ATOM     17  C   UNL     1       7.382   2.846   3.146  0.00  0.00    +0.270 C 
ATOM     18  C   UNL     1       7.112   3.870   2.035  0.00  0.00    +0.270 C 
ATOM     19  O   UNL     1       7.940   3.544   0.913  0.00  0.00    -0.485 OA
ENDBRANCH   5  10
ENDBRANCH   3   5
BRANCH   1  20
ATOM     20  C   UNL     1       4.869  -3.067   0.937  0.00  0.00    +0.181 C 
BRANCH  20  29
ATOM     21  C   UNL     1      -0.617   0.282   0.985  0.00  0.00    +0.000 A 
ATOM     22  C   UNL     1       0.430   1.138   1.275  0.00  0.00    +0.000 A 
ATOM     23  C   UNL     1       1.713   0.641   1.385  0.00  0.00    +0.005 A 
ATOM     24  C   UNL     1       1.959  -0.712   1.206  0.00  0.00    -0.030 A 
ATOM     25  C   UNL     1       0.915  -1.564   0.914  0.00  0.00    -0.041 A 
ATOM     26  C   UNL     1      -0.374  -1.065   0.806  0.00  0.00    +0.004 A 
ATOM     27  C   UNL     1       1.135  -3.040   0.699  0.00  0.00    +0.063 C 
ATOM     28  C   UNL     1       2.498  -3.451   1.257  0.00  0.00    +0.148 C 
ATOM     29  N   UNL     1       3.517  -2.531   0.728  0.00  0.00    -0.278 NA
ATOM     30  C   UNL     1       3.375  -1.208   1.342  0.00  0.00    +0.121 C 
BRANCH  28  31
ATOM     31  C   UNL     1       2.814  -4.862   0.832  0.00  0.00    +0.228 C 
ATOM     32  O   UNL     1       3.284  -5.074  -0.265  0.00  0.00    -0.274 OA
ATOM     33  N   UNL     1       2.574  -5.888   1.672  0.00  0.00    -0.328 N 
ATOM     34  H   UNL     1       2.198  -5.719   2.550  0.00  0.00    +0.145 HD
ATOM     35  H   UNL     1       2.777  -6.797   1.399  0.00  0.00    +0.145 HD
ENDBRANCH  28  31
ENDBRANCH  20  29
ENDBRANCH   1  20
TORSDOF 5
