REMARK  Name = ZINC49086083
REMARK  8 active torsions:
REMARK  status: ('A' for Active; 'I' for Inactive)
REMARK    1  A    between atoms: C_1  and  C_2
REMARK    2  A    between atoms: C_2  and  C_3
REMARK    3  A    between atoms: C_3  and  N_4
REMARK    4  A    between atoms: C_5  and  N_21
REMARK    5  A    between atoms: C_6  and  N_13
REMARK    6  A    between atoms: N_9  and  C_12
REMARK    7  A    between atoms: N_13  and  C_14
REMARK    8  A    between atoms: N_18  and  C_20
REMARK                            x       y       z     vdW  Elec       q    Type
REMARK                         _______ _______ _______ _____ _____    ______ ____
ROOT
ATOM      1  N   UNL     1      -1.800  -2.034   0.010  0.00  0.00    -0.280 N 
ATOM      2  C   UNL     1      -1.599  -2.694  -1.181  0.00  0.00    +0.127 A 
ATOM      3  C   UNL     1      -1.591  -4.063  -1.196  0.00  0.00    +0.131 A 
ATOM      4  C   UNL     1      -1.790  -4.760   0.009  0.00  0.00    +0.279 A 
ATOM      5  O   UNL     1      -1.786  -5.979   0.020  0.00  0.00    -0.265 OA
ATOM      6  N   UNL     1      -1.983  -4.072   1.151  0.00  0.00    -0.262 N 
ATOM      7  C   UNL     1      -1.982  -2.727   1.150  0.00  0.00    +0.333 A 
ATOM      8  O   UNL     1      -2.154  -2.127   2.194  0.00  0.00    -0.246 OA
ATOM      9  C   UNL     1      -2.190  -4.796   2.408  0.00  0.00    +0.157 C 
ENDROOT
BRANCH   2  10
ATOM     10  N   UNL     1      -1.408  -1.985  -2.344  0.00  0.00    -0.343 N 
ATOM     11  H   UNL     1      -1.415  -1.015  -2.328  0.00  0.00    +0.144 HD
ATOM     12  H   UNL     1      -1.266  -2.455  -3.181  0.00  0.00    +0.144 HD
ENDBRANCH   2  10
BRANCH   3  13
ATOM     13  N   UNL     1      -1.387  -4.765  -2.407  0.00  0.00    -0.336 N 
ATOM     14  H   UNL     1      -1.334  -4.281  -3.246  0.00  0.00    +0.147 HD
BRANCH  13  15
ATOM     15  C   UNL     1      -1.256  -6.224  -2.394  0.00  0.00    +0.052 C 
ATOM     16  C   UNL     1      -2.652  -6.888  -2.387  0.00  0.00    +0.002 C 
ATOM     17  C   UNL     1      -2.887  -7.216  -3.884  0.00  0.00    -0.077 C 
ATOM     18  N   UNL     1      -1.539  -7.624  -4.357  0.00  0.00    +0.379 N 
ATOM     19  C   UNL     1      -0.582  -6.712  -3.689  0.00  0.00    -0.057 C 
ATOM     20  C   UNL     1      -1.448  -7.474  -5.816  0.00  0.00    -0.096 C 
ATOM     21  H   UNL     1      -1.352  -8.579  -4.092  0.00  0.00    -0.082 HD
ENDBRANCH  13  15
ENDBRANCH   3  13
BRANCH   1  22
ATOM     22  C   UNL     1      -1.810  -0.570   0.039  0.00  0.00    +0.128 C 
BRANCH  22  24
ATOM     23  C   UNL     1      -0.399   1.475   0.309  0.00  0.00    +0.005 C 
ATOM     24  C   UNL     1      -0.389  -0.055   0.280  0.00  0.00    +0.018 C 
ENDBRANCH  22  24
ENDBRANCH   1  22
TORSDOF 5
