REMARK  Name = ZINC40491568
REMARK  7 active torsions:
REMARK  status: ('A' for Active; 'I' for Inactive)
REMARK    1  A    between atoms: C_1  and  C_2
REMARK    2  A    between atoms: C_2  and  C_4
REMARK    3  A    between atoms: C_2  and  N_10
REMARK    4  A    between atoms: N_10  and  C_11
REMARK    5  A    between atoms: C_16  and  C_17
REMARK    6  A    between atoms: C_17  and  O_18
REMARK    7  A    between atoms: O_18  and  C_19
REMARK                            x       y       z     vdW  Elec       q    Type
REMARK                         _______ _______ _______ _____ _____    ______ ____
ROOT
ATOM      1  N   UNL     1       0.711  -0.489   1.189  0.00  0.00    -0.336 N 
ATOM      2  H   UNL     1       0.213  -0.731   1.986  0.00  0.00    +0.147 HD
ENDROOT
BRANCH   1   3
ATOM      3  C   UNL     1       2.103  -0.604   1.173  0.00  0.00    +0.034 A 
ATOM      4  C   UNL     1       2.817  -0.252   0.035  0.00  0.00    +0.023 A 
ATOM      5  C   UNL     1       4.193  -0.367   0.022  0.00  0.00    +0.003 A 
ATOM      6  C   UNL     1       4.861  -0.831   1.141  0.00  0.00    +0.016 A 
ATOM      7  C   UNL     1       4.153  -1.182   2.276  0.00  0.00    +0.025 A 
ATOM      8  C   UNL     1       2.776  -1.064   2.297  0.00  0.00    +0.013 A 
ATOM      9 BR   UNL     1       5.070  -1.815   3.803  0.00  0.00    -0.050 Br
BRANCH   8  10
ATOM     10  C   UNL     1       2.005  -1.440   3.537  0.00  0.00    +0.197 C 
BRANCH  10  11
ATOM     11  O   UNL     1       1.652  -2.823   3.477  0.00  0.00    -0.378 OA
ATOM     12  C   UNL     1       0.915  -3.284   4.611  0.00  0.00    +0.194 C 
ENDBRANCH  10  11
ENDBRANCH   8  10
ENDBRANCH   1   3
BRANCH   1  14
ATOM     13  C   UNL     1      -0.019   1.526   0.010  0.00  0.00    +0.033 C 
ATOM     14  C   UNL     1       0.002  -0.004   0.002  0.00  0.00    +0.105 C 
BRANCH  14  15
ATOM     15  C   UNL     1      -1.412  -0.526   0.013  0.00  0.00    +0.024 A 
ATOM     16  C   UNL     1      -2.126  -1.077  -0.999  0.00  0.00    +0.030 A 
ATOM     17  C   UNL     1      -3.423  -1.490  -0.757  0.00  0.00    +0.023 A 
ATOM     18  C   UNL     1      -3.942  -1.332   0.486  0.00  0.00    +0.046 A 
ATOM     19  S   UNL     1      -2.578  -0.586   1.363  0.00  0.00    -0.099 S 
ATOM     20 BR   UNL     1      -1.361  -1.276  -2.717  0.00  0.00    -0.049 Br
ENDBRANCH  14  15
ENDBRANCH   1  14
TORSDOF 5
