REMARK  Name = ZINC07619061
REMARK  8 active torsions:
REMARK  status: ('A' for Active; 'I' for Inactive)
REMARK    1  A    between atoms: C_1  and  C_2
REMARK    2  A    between atoms: C_6  and  C_28
REMARK    3  A    between atoms: C_7  and  N_8
REMARK    4  A    between atoms: C_9  and  C_11
REMARK    5  A    between atoms: C_11  and  N_12
REMARK    6  A    between atoms: C_13  and  C_15
REMARK    7  A    between atoms: C_15  and  N_16
REMARK    8  A    between atoms: C_25  and  C_27
REMARK                            x       y       z     vdW  Elec       q    Type
REMARK                         _______ _______ _______ _____ _____    ______ ____
ROOT
ATOM      1  N   UNL     1       1.782   4.201   1.206  0.00  0.00    -0.305 N 
ATOM      2  C   UNL     1       1.835   5.543   1.319  0.00  0.00    +0.231 C 
ATOM      3  O   UNL     1       0.966   6.228   0.823  0.00  0.00    -0.274 OA
ATOM      4  H   UNL     1       2.478   3.654   1.603  0.00  0.00    +0.149 HD
ENDROOT
BRANCH   1   5
ATOM      5  C   UNL     1       0.675   3.570   0.485  0.00  0.00    +0.200 C 
BRANCH   5   7
ATOM      6  N   UNL     1      -0.055   1.280  -0.102  0.00  0.00    -0.284 N 
ATOM      7  C   UNL     1       0.851   2.073   0.504  0.00  0.00    +0.234 C 
ATOM      8  O   UNL     1       1.808   1.583   1.066  0.00  0.00    -0.274 OA
ATOM      9  H   UNL     1      -0.772   1.674  -0.623  0.00  0.00    +0.155 HD
BRANCH   6  16
ATOM     10  C   UNL     1       2.366   0.030  -0.923  0.00  0.00    +0.045 C 
ATOM     11  C   UNL     1       1.207  -0.761  -0.374  0.00  0.00    -0.029 A 
ATOM     12  C   UNL     1       1.303  -2.134  -0.253  0.00  0.00    +0.005 A 
ATOM     13  C   UNL     1       0.237  -2.861   0.246  0.00  0.00    +0.001 A 
ATOM     14  C   UNL     1      -0.924  -2.217   0.630  0.00  0.00    +0.005 A 
ATOM     15  C   UNL     1      -1.024  -0.844   0.516  0.00  0.00    -0.029 A 
ATOM     16  C   UNL     1       0.044  -0.111   0.015  0.00  0.00    +0.039 A 
ATOM     17  C   UNL     1      -2.291  -0.142   0.933  0.00  0.00    +0.045 C 
ENDBRANCH   6  16
ENDBRANCH   5   7
ENDBRANCH   1   5
BRANCH   2  18
ATOM     18  C   UNL     1       2.974   6.193   2.062  0.00  0.00    +0.201 C 
BRANCH  18  19
ATOM     19  N   UNL     1       2.871   7.653   1.937  0.00  0.00    -0.318 N 
ATOM     20  C   UNL     1       2.857   8.040   0.598  0.00  0.00    +0.034 A 
ATOM     21  C   UNL     1       3.618   7.291  -0.302  0.00  0.00    +0.023 A 
ATOM     22  C   UNL     1       3.651   7.627  -1.638  0.00  0.00    +0.002 A 
ATOM     23  C   UNL     1       2.927   8.714  -2.094  0.00  0.00    +0.000 A 
ATOM     24  C   UNL     1       2.170   9.457  -1.210  0.00  0.00    +0.005 A 
ATOM     25  C   UNL     1       2.130   9.123   0.135  0.00  0.00    -0.026 A 
ATOM     26  C   UNL     1       1.275   9.962   1.050  0.00  0.00    +0.039 C 
ATOM     27  C   UNL     1       1.655   9.685   2.507  0.00  0.00    +0.027 C 
ATOM     28  C   UNL     1       1.728   8.165   2.695  0.00  0.00    +0.071 C 
ATOM     29  C   UNL     1       1.909   7.840   4.179  0.00  0.00    +0.028 C 
ENDBRANCH  18  19
ENDBRANCH   2  18
TORSDOF 5
