REMARK  Name = ZINC04876708
REMARK  11 active torsions:
REMARK  status: ('A' for Active; 'I' for Inactive)
REMARK    1  A    between atoms: C_1  and  C_2
REMARK    2  A    between atoms: C_2  and  C_4
REMARK    3  A    between atoms: C_2  and  N_12
REMARK    4  A    between atoms: C_4  and  C_5
REMARK    5  A    between atoms: C_5  and  C_6
REMARK    6  A    between atoms: C_13  and  C_15
REMARK    7  A    between atoms: C_15  and  C_17
REMARK    8  A    between atoms: C_15  and  S_18
REMARK    9  A    between atoms: S_18  and  C_19
REMARK   10  A    between atoms: C_22  and  C_25
REMARK   11  A    between atoms: N_23  and  N_24
REMARK                            x       y       z     vdW  Elec       q    Type
REMARK                         _______ _______ _______ _____ _____    ______ ____
ROOT
ATOM      1  C   UNL     1       8.688  -0.527   0.221  0.00  0.00    +0.137 C 
ATOM      2  C   UNL     1       8.319  -0.176   1.663  0.00  0.00    +0.029 C 
ENDROOT
BRANCH   1   4
ATOM      3  N   UNL     1       6.520  -0.844  -0.926  0.00  0.00    -0.312 N 
ATOM      4  C   UNL     1       7.615  -1.402  -0.374  0.00  0.00    +0.226 C 
ATOM      5  O   UNL     1       7.738  -2.609  -0.355  0.00  0.00    -0.275 OA
ATOM      6  H   UNL     1       6.423   0.121  -0.941  0.00  0.00    +0.149 HD
BRANCH   3   8
ATOM      7  C   UNL     1       5.846  -2.046  -2.947  0.00  0.00    +0.028 C 
ATOM      8  C   UNL     1       5.477  -1.695  -1.504  0.00  0.00    +0.070 C 
BRANCH   8   9
ATOM      9  C   UNL     1       4.142  -0.948  -1.487  0.00  0.00    +0.026 C 
BRANCH   9  10
ATOM     10  C   UNL     1       3.711  -0.707  -0.039  0.00  0.00    +0.037 C 
BRANCH  10  11
ATOM     11  C   UNL     1       2.396   0.029  -0.022  0.00  0.00    -0.047 A 
ATOM     12  C   UNL     1       1.208  -0.679  -0.014  0.00  0.00    +0.003 A 
ATOM     13  C   UNL     1       0.002  -0.004   0.002  0.00  0.00    +0.000 A 
ATOM     14  C   UNL     1      -0.017   1.378   0.010  0.00  0.00    +0.000 A 
ATOM     15  C   UNL     1       1.171   2.086   0.002  0.00  0.00    +0.000 A 
ATOM     16  C   UNL     1       2.377   1.411  -0.014  0.00  0.00    +0.003 A 
ENDBRANCH  10  11
ENDBRANCH   9  10
ENDBRANCH   8   9
ENDBRANCH   3   8
ENDBRANCH   1   4
BRANCH   1  17
ATOM     17  S   UNL     1      10.268  -1.410   0.200  0.00  0.00    -0.072 S 
BRANCH  17  18
ATOM     18  C   UNL     1      11.337  -0.140   0.790  0.00  0.00    +0.209 A 
ATOM     19  N   UNL     1      10.985   1.081   1.126  0.00  0.00    -0.121 NA
ATOM     20  N   UNL     1      12.015   1.746   1.514  0.00  0.00    -0.127 NA
ATOM     21  C   UNL     1      13.086   0.991   1.449  0.00  0.00    +0.182 A 
ATOM     22  N   UNL     1      12.684  -0.242   0.989  0.00  0.00    -0.224 N 
BRANCH  21  23
ATOM     23  C   UNL     1      14.464   1.388   1.808  0.00  0.00    +0.023 A 
ATOM     24  C   UNL     1      14.688   2.547   2.553  0.00  0.00    +0.012 A 
ATOM     25  C   UNL     1      15.976   2.913   2.885  0.00  0.00    +0.003 A 
ATOM     26  C   UNL     1      17.046   2.134   2.483  0.00  0.00    +0.038 A 
ATOM     27  C   UNL     1      16.832   0.982   1.744  0.00  0.00    +0.124 A 
ATOM     28  C   UNL     1      15.546   0.603   1.409  0.00  0.00    +0.050 A 
ATOM     29  F   UNL     1      17.882   0.226   1.355  0.00  0.00    -0.205 F 
ENDBRANCH  21  23
BRANCH  22  30
ATOM     30  N   UNL     1      13.469  -1.339   0.773  0.00  0.00    -0.295 N 
ATOM     31  H   UNL     1      13.830  -1.346  -0.169  0.00  0.00    +0.163 HD
ATOM     32  H   UNL     1      14.219  -1.385   1.447  0.00  0.00    +0.163 HD
ENDBRANCH  22  30
ENDBRANCH  17  18
ENDBRANCH   1  17
TORSDOF 9
