REMARK  Name = ZINC16302806
REMARK  8 active torsions:
REMARK  status: ('A' for Active; 'I' for Inactive)
REMARK    1  A    between atoms: C_1  and  C_2
REMARK    2  A    between atoms: C_2  and  O_3
REMARK    3  A    between atoms: O_3  and  C_4
REMARK    4  A    between atoms: C_9  and  N_10
REMARK    5  A    between atoms: C_11  and  C_13
REMARK    6  A    between atoms: C_13  and  C_14
REMARK    7  A    between atoms: C_14  and  C_15
REMARK    8  A    between atoms: C_28  and  C_31
REMARK                            x       y       z     vdW  Elec       q    Type
REMARK                         _______ _______ _______ _____ _____    ______ ____
ROOT
ATOM      1  N   UNL     1       1.955  -1.470  -3.421  0.00  0.00    -0.282 N 
ATOM      2  C   UNL     1       2.661  -1.969  -4.454  0.00  0.00    +0.218 C 
ATOM      3  O   UNL     1       2.753  -3.169  -4.602  0.00  0.00    -0.275 OA
ATOM      4  H   UNL     1       1.814  -0.513  -3.347  0.00  0.00    +0.155 HD
ENDROOT
BRANCH   1  10
ATOM      5  C   UNL     1       0.316  -1.942  -1.706  0.00  0.00    +0.142 A 
ATOM      6  C   UNL     1      -0.204  -2.802  -0.751  0.00  0.00    +0.055 A 
ATOM      7  C   UNL     1       0.380  -4.033  -0.541  0.00  0.00    +0.001 A 
ATOM      8  C   UNL     1       1.485  -4.435  -1.279  0.00  0.00    +0.126 A 
ATOM      9  C   UNL     1       2.010  -3.570  -2.235  0.00  0.00    +0.073 A 
ATOM     10  C   UNL     1       1.425  -2.333  -2.452  0.00  0.00    +0.079 A 
ATOM     11  O   UNL     1       1.885  -5.689  -0.926  0.00  0.00    -0.488 OA
ATOM     12  C   UNL     1       1.345  -6.011   0.367  0.00  0.00    +0.175 C 
ATOM     13  C   UNL     1       0.053  -5.161   0.419  0.00  0.00    +0.083 C 
ATOM     14  C   UNL     1       2.314  -5.600   1.476  0.00  0.00    +0.052 C 
BRANCH   5  15
ATOM     15  O   UNL     1      -0.258  -0.727  -1.918  0.00  0.00    -0.490 OA
BRANCH  15  17
ATOM     16  C   UNL     1      -1.896   0.998  -1.492  0.00  0.00    +0.048 C 
ATOM     17  C   UNL     1      -1.392  -0.396  -1.114  0.00  0.00    +0.226 C 
ENDBRANCH  15  17
ENDBRANCH   5  15
ENDBRANCH   1  10
BRANCH   2  18
ATOM     18  C   UNL     1       3.336  -1.036  -5.426  0.00  0.00    +0.104 C 
BRANCH  18  19
ATOM     19  C   UNL     1       4.064  -1.853  -6.496  0.00  0.00    +0.083 C 
BRANCH  19  20
ATOM     20  C   UNL     1       4.739  -0.920  -7.468  0.00  0.00    +0.111 A 
ATOM     21  N   UNL     1       5.437  -1.460  -8.501  0.00  0.00    -0.310 N 
ATOM     22  H   UNL     1       5.489  -2.424  -8.594  0.00  0.00    +0.170 HD
ATOM     23  C   UNL     1       6.061  -0.665  -9.401  0.00  0.00    +0.259 A 
ATOM     24  O   UNL     1       6.689  -1.136 -10.332  0.00  0.00    -0.267 OA
ATOM     25  C   UNL     1       5.949   0.789  -9.212  0.00  0.00    +0.065 A 
ATOM     26  C   UNL     1       6.554   1.694 -10.082  0.00  0.00    +0.015 A 
ATOM     27  C   UNL     1       6.418   3.046  -9.857  0.00  0.00    +0.001 A 
ATOM     28  C   UNL     1       5.685   3.511  -8.774  0.00  0.00    +0.002 A 
ATOM     29  C   UNL     1       5.080   2.634  -7.902  0.00  0.00    +0.028 A 
ATOM     30  C   UNL     1       5.203   1.259  -8.109  0.00  0.00    +0.078 A 
ATOM     31  N   UNL     1       4.619   0.359  -7.279  0.00  0.00    -0.234 NA
ENDBRANCH  19  20
ENDBRANCH  18  19
ENDBRANCH   2  18
TORSDOF 6
