REMARK  Name = ZINC08766886
REMARK  6 active torsions:
REMARK  status: ('A' for Active; 'I' for Inactive)
REMARK    1  A    between atoms: C_1  and  C_2
REMARK    2  A    between atoms: C_2  and  C_31
REMARK    3  A    between atoms: C_3  and  N_28
REMARK    4  A    between atoms: C_5  and  C_21
REMARK    5  A    between atoms: C_7  and  C_14
REMARK    6  A    between atoms: C_9  and  N_11
REMARK                            x       y       z     vdW  Elec       q    Type
REMARK                         _______ _______ _______ _____ _____    ______ ____
ROOT
ATOM      1  C   UNL     1      -4.377   4.184   1.817  0.00  0.00    +0.015 C 
ATOM      2  C   UNL     1      -3.537   2.934   2.087  0.00  0.00    +0.017 C 
ATOM      3  C   UNL     1      -4.255   1.704   1.524  0.00  0.00    +0.168 C 
ATOM      4  C   UNL     1      -3.383   0.466   1.742  0.00  0.00    -0.008 C 
ATOM      5  C   UNL     1      -1.362   1.798   1.626  0.00  0.00    -0.008 C 
ATOM      6  C   UNL     1      -2.174   3.076   1.404  0.00  0.00    +0.168 C 
ATOM      7  C   UNL     1      -3.341   2.765   3.595  0.00  0.00    +0.015 C 
ATOM      8  N   UNL     1      -2.086   0.644   1.061  0.00  0.00    +0.391 N 
ATOM      9  H   UNL     1      -2.249   0.804   0.060  0.00  0.00    -0.084 HD
ATOM     10  H   UNL     1      -1.520  -0.204   1.184  0.00  0.00    -0.084 HD
ENDROOT
BRANCH   5  11
ATOM     11  C   UNL     1      -1.149   1.589   3.103  0.00  0.00    -0.041 A 
ATOM     12  C   UNL     1      -1.058   2.678   3.950  0.00  0.00    +0.003 A 
ATOM     13  C   UNL     1      -0.869   2.486   5.306  0.00  0.00    +0.000 A 
ATOM     14  C   UNL     1      -0.770   1.205   5.816  0.00  0.00    +0.001 A 
ATOM     15  C   UNL     1      -0.860   0.115   4.971  0.00  0.00    +0.020 A 
ATOM     16  C   UNL     1      -1.050   0.307   3.613  0.00  0.00    +0.043 A 
ATOM     17 CL   UNL     1      -1.164  -1.062   2.551  0.00  0.00    -0.083 Cl
ENDBRANCH   5  11
BRANCH   4  18
ATOM     18  C   UNL     1      -4.077  -0.744   1.172  0.00  0.00    -0.041 A 
ATOM     19  C   UNL     1      -3.976  -1.027  -0.178  0.00  0.00    +0.003 A 
ATOM     20  C   UNL     1      -4.612  -2.136  -0.701  0.00  0.00    +0.000 A 
ATOM     21  C   UNL     1      -5.350  -2.965   0.124  0.00  0.00    +0.001 A 
ATOM     22  C   UNL     1      -5.452  -2.683   1.474  0.00  0.00    +0.020 A 
ATOM     23  C   UNL     1      -4.810  -1.575   1.999  0.00  0.00    +0.043 A 
ATOM     24 CL   UNL     1      -4.931  -1.225   3.695  0.00  0.00    -0.083 Cl
ENDBRANCH   4  18
BRANCH   6  25
ATOM     25  N   UNL     1      -1.456   4.217   1.978  0.00  0.00    +0.025 N 
ATOM     26  O   UNL     1      -2.048   5.018   2.680  0.00  0.00    -0.131 OA
ATOM     27  O   UNL     1      -0.268   4.365   1.754  0.00  0.00    -0.131 OA
ENDBRANCH   6  25
BRANCH   3  28
ATOM     28  N   UNL     1      -5.536   1.528   2.212  0.00  0.00    +0.025 N 
ATOM     29  O   UNL     1      -5.564   1.400   3.423  0.00  0.00    -0.131 OA
ATOM     30  O   UNL     1      -6.573   1.508   1.573  0.00  0.00    -0.131 OA
ENDBRANCH   3  28
TORSDOF 4
