REMARK  Name = ZINC39938573
REMARK  7 active torsions:
REMARK  status: ('A' for Active; 'I' for Inactive)
REMARK    1  A    between atoms: C_1  and  C_2
REMARK    2  A    between atoms: C_5  and  C_9
REMARK    3  A    between atoms: C_7  and  C_8
REMARK    4  A    between atoms: C_9  and  C_28
REMARK    5  A    between atoms: N_12  and  C_16
REMARK    6  A    between atoms: C_16  and  C_17
REMARK    7  A    between atoms: C_17  and  C_19
REMARK                            x       y       z     vdW  Elec       q    Type
REMARK                         _______ _______ _______ _____ _____    ______ ____
ROOT
ATOM      1  C   UNL     1       0.059  -4.275  -0.021  0.00  0.00    +0.164 C 
ATOM      2  C   UNL     1       1.520  -4.671  -0.106  0.00  0.00    +0.256 C 
ATOM      3  O   UNL     1       2.312  -4.369  -0.973  0.00  0.00    -0.272 OA
ATOM      4  N   UNL     1       1.757  -5.427   0.985  0.00  0.00    -0.216 N 
ATOM      5  C   UNL     1       0.659  -5.563   1.738  0.00  0.00    +0.310 C 
ATOM      6  O   UNL     1       0.625  -6.201   2.772  0.00  0.00    -0.252 OA
ATOM      7  N   UNL     1      -0.401  -4.915   1.223  0.00  0.00    -0.278 N 
ATOM      8  H   UNL     1      -1.295  -4.875   1.599  0.00  0.00    +0.152 HD
ENDROOT
BRANCH   1  13
ATOM      9  C   UNL     1      -0.478   1.468   0.322  0.00  0.00    +0.044 C 
ATOM     10  C   UNL     1      -0.338  -0.030   0.232  0.00  0.00    -0.048 A 
ATOM     11  C   UNL     1       0.505  -0.590  -0.710  0.00  0.00    +0.004 A 
ATOM     12  C   UNL     1       0.633  -1.964  -0.792  0.00  0.00    +0.007 A 
ATOM     13  C   UNL     1      -0.080  -2.777   0.069  0.00  0.00    -0.010 A 
ATOM     14  C   UNL     1      -0.922  -2.217   1.011  0.00  0.00    +0.010 A 
ATOM     15  C   UNL     1      -1.047  -0.843   1.096  0.00  0.00    -0.047 A 
ATOM     16  C   UNL     1      -1.961  -0.232   2.127  0.00  0.00    +0.044 C 
ENDBRANCH   1  13
BRANCH   1  17
ATOM     17  C   UNL     1      -0.706  -4.807  -1.205  0.00  0.00    -0.011 A 
ATOM     18  C   UNL     1      -0.250  -4.568  -2.488  0.00  0.00    +0.006 A 
ATOM     19  C   UNL     1      -0.952  -5.056  -3.574  0.00  0.00    +0.000 A 
ATOM     20  C   UNL     1      -2.111  -5.784  -3.377  0.00  0.00    +0.000 A 
ATOM     21  C   UNL     1      -2.567  -6.024  -2.095  0.00  0.00    +0.000 A 
ATOM     22  C   UNL     1      -1.862  -5.540  -1.009  0.00  0.00    +0.006 A 
ENDBRANCH   1  17
BRANCH   4  23
ATOM     23  C   UNL     1       3.054  -6.027   1.305  0.00  0.00    +0.197 C 
BRANCH  23  24
ATOM     24  C   UNL     1       3.857  -5.067   2.145  0.00  0.00    +0.179 C 
ATOM     25  O   UNL     1       3.391  -3.987   2.447  0.00  0.00    -0.291 OA
BRANCH  24  26
ATOM     26  C   UNL     1       5.151  -5.424   2.581  0.00  0.00    +0.025 C 
ATOM     27  C   UNL     1       6.011  -4.667   3.356  0.00  0.00    +0.006 A 
ATOM     28  C   UNL     1       5.905  -3.380   3.935  0.00  0.00    +0.010 A 
ATOM     29  C   UNL     1       6.925  -2.874   4.663  0.00  0.00    +0.001 A 
ATOM     30  C   UNL     1       8.118  -3.581   4.881  0.00  0.00    +0.002 A 
ATOM     31  C   UNL     1       8.321  -4.815   4.373  0.00  0.00    +0.026 A 
ATOM     32  C   UNL     1       7.259  -5.441   3.567  0.00  0.00    +0.043 A 
ATOM     33  N   UNL     1       7.187  -6.595   2.969  0.00  0.00    -0.380 N 
ATOM     34  C   UNL     1       5.886  -6.716   2.303  0.00  0.00    +0.152 C 
ATOM     35  H   UNL     1       7.883  -7.271   2.967  0.00  0.00    +0.160 HD
ENDBRANCH  24  26
ENDBRANCH  23  24
ENDBRANCH   4  23
TORSDOF 5
