REMARK  Name = ZINC13428310
REMARK  3 active torsions:
REMARK  status: ('A' for Active; 'I' for Inactive)
REMARK    1  A    between atoms: C_10  and  N_11
REMARK    2  A    between atoms: C_13  and  C_18
REMARK    3  A    between atoms: C_30  and  C_32
REMARK                            x       y       z     vdW  Elec       q    Type
REMARK                         _______ _______ _______ _____ _____    ______ ____
ROOT
ATOM      1  N   UNL     1      -3.711   2.778  -1.796  0.00  0.00    -0.270 N 
ATOM      2  C   UNL     1      -3.567   2.695  -0.337  0.00  0.00    +0.127 C 
ATOM      3  C   UNL     1      -2.485   1.621  -0.090  0.00  0.00    +0.102 C 
ATOM      4  C   UNL     1      -2.597   0.760  -1.369  0.00  0.00    +0.110 C 
ATOM      5  C   UNL     1      -3.180   1.701  -2.400  0.00  0.00    +0.221 C 
ATOM      6  O   UNL     1      -3.169   1.512  -3.598  0.00  0.00    -0.275 OA
ENDROOT
BRANCH   3   7
ATOM      7  C   UNL     1      -1.119   2.248   0.020  0.00  0.00    +0.222 C 
ATOM      8  O   UNL     1      -0.981   3.438  -0.164  0.00  0.00    -0.275 OA
ATOM      9  N   UNL     1      -0.050   1.484   0.322  0.00  0.00    -0.284 N 
ATOM     10  C   UNL     1       1.346   1.929   0.349  0.00  0.00    +0.080 C 
ATOM     11  C   UNL     1       1.496   3.386   0.723  0.00  0.00    +0.023 C 
ATOM     12  C   UNL     1       1.066   3.634   2.169  0.00  0.00    +0.002 C 
ATOM     13  C   UNL     1       1.937   2.771   3.088  0.00  0.00    +0.000 C 
ATOM     14  C   UNL     1       1.674   1.300   2.771  0.00  0.00    +0.005 C 
ATOM     15  C   UNL     1       2.065   0.981   1.327  0.00  0.00    +0.012 C 
ATOM     16  C   UNL     1       1.378  -0.372   0.968  0.00  0.00    +0.039 C 
ATOM     17  C   UNL     1      -0.078   0.054   0.678  0.00  0.00    +0.190 C 
BRANCH  17  18
ATOM     18  C   UNL     1      -0.928  -0.152   1.905  0.00  0.00    +0.376 C 
ATOM     19  O   UNL     1      -1.461   0.792   2.437  0.00  0.00    -0.244 OA
ATOM     20  O   UNL     1      -1.093  -1.386   2.407  0.00  0.00    -0.244 OA
ENDBRANCH  17  18
ENDBRANCH   3   7
BRANCH   1  30
ATOM     21  C   UNL     1      -2.105   7.165  -3.705  0.00  0.00    +0.001 A 
ATOM     22  C   UNL     1      -1.476   6.117  -3.035  0.00  0.00    +0.001 A 
ATOM     23  C   UNL     1      -2.180   5.026  -2.625  0.00  0.00    +0.010 A 
ATOM     24  C   UNL     1      -3.559   4.953  -2.879  0.00  0.00    +0.004 A 
ATOM     25  C   UNL     1      -4.198   6.015  -3.565  0.00  0.00    -0.016 A 
ATOM     26  C   UNL     1      -3.437   7.123  -3.979  0.00  0.00    +0.008 A 
ATOM     27  C   UNL     1      -5.579   5.946  -3.814  0.00  0.00    +0.008 A 
ATOM     28  C   UNL     1      -6.290   4.861  -3.402  0.00  0.00    +0.002 A 
ATOM     29  C   UNL     1      -5.673   3.809  -2.732  0.00  0.00    +0.024 A 
ATOM     30  C   UNL     1      -4.321   3.838  -2.468  0.00  0.00    +0.044 A 
ENDBRANCH   1  30
TORSDOF 3
