REMARK  Name = ZINC64131255
REMARK  8 active torsions:
REMARK  status: ('A' for Active; 'I' for Inactive)
REMARK    1  A    between atoms: C_1  and  C_2
REMARK    2  A    between atoms: C_4  and  C_12
REMARK    3  A    between atoms: C_12  and  C_13
REMARK    4  A    between atoms: C_13  and  N_14
REMARK    5  A    between atoms: C_15  and  C_17
REMARK    6  A    between atoms: C_23  and  N_26
REMARK    7  A    between atoms: N_26  and  C_27
REMARK    8  A    between atoms: N_26  and  C_28
REMARK                            x       y       z     vdW  Elec       q    Type
REMARK                         _______ _______ _______ _____ _____    ______ ____
ROOT
ATOM      1  N   UNL     1      -4.819  -0.827  -1.544  0.00  0.00    -0.311 N 
ATOM      2  C   UNL     1      -6.036  -1.380  -1.371  0.00  0.00    +0.251 C 
ATOM      3  O   UNL     1      -6.259  -2.064  -0.389  0.00  0.00    -0.270 OA
ATOM      4  H   UNL     1      -4.641  -0.281  -2.327  0.00  0.00    +0.149 HD
ENDROOT
BRANCH   2   5
ATOM      5  C   UNL     1      -7.054  -1.165  -2.331  0.00  0.00    +0.077 A 
ATOM      6  C   UNL     1      -8.356  -1.633  -2.336  0.00  0.00    +0.037 A 
ATOM      7  C   UNL     1      -9.188  -1.296  -3.387  0.00  0.00    +0.040 A 
ATOM      8  C   UNL     1      -8.671  -0.494  -4.398  0.00  0.00    +0.082 A 
ATOM      9  S   UNL     1      -6.990  -0.216  -3.838  0.00  0.00    -0.068 S 
ATOM     10  N   UNL     1      -9.464  -0.133  -5.464  0.00  0.00    -0.314 N 
ATOM     11  C   UNL     1     -10.847  -0.630  -5.470  0.00  0.00    +0.207 C 
ATOM     12  S   UNL     1     -10.878  -1.592  -3.906  0.00  0.00    -0.085 S 
ATOM     13  H   UNL     1      -9.124   0.425  -6.180  0.00  0.00    +0.149 HD
BRANCH  11  14
ATOM     14  N   UNL     1     -11.093  -1.497  -6.630  0.00  0.00    -0.282 NA
ATOM     15  C   UNL     1     -10.281  -2.719  -6.556  0.00  0.00    +0.107 C 
ATOM     16  C   UNL     1     -12.521  -1.820  -6.753  0.00  0.00    +0.107 C 
ENDBRANCH  11  14
ENDBRANCH   2   5
BRANCH   1  17
ATOM     17  C   UNL     1      -3.765  -1.049  -0.551  0.00  0.00    +0.109 C 
BRANCH  17  18
ATOM     18  C   UNL     1      -2.494  -0.316  -0.984  0.00  0.00    +0.052 C 
BRANCH  18  21
ATOM     19  C   UNL     1      -0.019   1.526   0.010  0.00  0.00    +0.035 C 
ATOM     20  C   UNL     1       0.002  -0.004   0.002  0.00  0.00    +0.103 C 
ATOM     21  C   UNL     1      -1.410  -0.545   0.038  0.00  0.00    -0.037 C 
ATOM     22  C   UNL     1      -1.503  -1.275   1.173  0.00  0.00    -0.001 A 
ATOM     23  C   UNL     1      -2.599  -2.045   1.772  0.00  0.00    +0.010 A 
ATOM     24  C   UNL     1      -2.386  -2.686   2.944  0.00  0.00    +0.001 A 
ATOM     25  C   UNL     1      -1.148  -2.632   3.599  0.00  0.00    +0.002 A 
ATOM     26  C   UNL     1      -0.094  -1.946   3.110  0.00  0.00    +0.026 A 
ATOM     27  C   UNL     1      -0.205  -1.235   1.884  0.00  0.00    +0.043 A 
ATOM     28  N   UNL     1       0.658  -0.508   1.214  0.00  0.00    -0.378 N 
ATOM     29  H   UNL     1       1.576  -0.332   1.476  0.00  0.00    +0.160 HD
ENDBRANCH  18  21
ENDBRANCH  17  18
ENDBRANCH   1  17
TORSDOF 5
