REMARK  Name = ZINC10369178
REMARK  5 active torsions:
REMARK  status: ('A' for Active; 'I' for Inactive)
REMARK    1  A    between atoms: C_4  and  N_7
REMARK    2  A    between atoms: C_8  and  C_29
REMARK    3  A    between atoms: C_10  and  C_12
REMARK    4  A    between atoms: N_14  and  N_15
REMARK    5  A    between atoms: C_16  and  C_18
REMARK                            x       y       z     vdW  Elec       q    Type
REMARK                         _______ _______ _______ _____ _____    ______ ____
ROOT
ATOM      1  C   UNL     1      -7.253   1.726  -0.044  0.00  0.00    +0.299 C 
ATOM      2  O   UNL     1      -7.391   0.716  -0.707  0.00  0.00    -0.265 OA
ATOM      3  N   UNL     1      -6.035   2.068   0.418  0.00  0.00    -0.228 N 
ATOM      4  H   UNL     1      -5.925   2.874   0.946  0.00  0.00    +0.173 HD
ENDROOT
BRANCH   1   8
ATOM      5  N   UNL     1     -10.452   3.394   0.354  0.00  0.00    -0.211 N 
ATOM      6  C   UNL     1      -9.609   4.220   1.044  0.00  0.00    +0.171 A 
ATOM      7  N   UNL     1      -8.397   3.711   0.970  0.00  0.00    -0.202 NA
ATOM      8  C   UNL     1      -8.424   2.579   0.254  0.00  0.00    +0.239 A 
ATOM      9  N   UNL     1      -9.658   2.350  -0.146  0.00  0.00    -0.139 NA
BRANCH   5  13
ATOM     10  C   UNL     1     -14.557   3.885  -0.171  0.00  0.00    +0.000 A 
ATOM     11  C   UNL     1     -13.706   4.963  -0.333  0.00  0.00    +0.002 A 
ATOM     12  C   UNL     1     -12.346   4.804  -0.160  0.00  0.00    +0.028 A 
ATOM     13  C   UNL     1     -11.831   3.559   0.178  0.00  0.00    +0.068 A 
ATOM     14  C   UNL     1     -12.687   2.477   0.334  0.00  0.00    +0.028 A 
ATOM     15  C   UNL     1     -14.048   2.644   0.166  0.00  0.00    +0.002 A 
ENDBRANCH   5  13
BRANCH   6  16
ATOM     16  C   UNL     1      -9.989   5.458   1.744  0.00  0.00    +0.056 A 
ATOM     17  C   UNL     1      -9.192   6.493   2.164  0.00  0.00    +0.019 A 
ATOM     18  C   UNL     1      -9.779   7.561   2.801  0.00  0.00    +0.008 A 
ATOM     19  C   UNL     1     -11.123   7.554   3.006  0.00  0.00    +0.046 A 
ATOM     20  S   UNL     1     -11.605   5.999   2.275  0.00  0.00    -0.094 S 
ENDBRANCH   6  16
ENDBRANCH   1   8
BRANCH   3  21
ATOM     21  N   UNL     1      -4.926   1.260   0.135  0.00  0.00    -0.231 N 
ATOM     22  C   UNL     1      -3.707   1.602   0.597  0.00  0.00    +0.273 C 
ATOM     23  O   UNL     1      -3.570   2.610   1.258  0.00  0.00    -0.270 OA
ATOM     24  H   UNL     1      -5.035   0.454  -0.394  0.00  0.00    +0.173 HD
BRANCH  22  25
ATOM     25  C   UNL     1      -2.514   0.733   0.293  0.00  0.00    +0.297 C 
ATOM     26  C   UNL     1      -2.685  -0.635   0.968  0.00  0.00    +0.283 C 
ATOM     27  O   UNL     1      -1.531  -1.429   0.671  0.00  0.00    -0.484 OA
ATOM     28  C   UNL     1      -0.320  -0.826   0.820  0.00  0.00    +0.162 A 
ATOM     29  C   UNL     1       0.823  -1.607   0.904  0.00  0.00    +0.049 A 
ATOM     30  C   UNL     1       2.061  -1.009   1.048  0.00  0.00    +0.004 A 
ATOM     31  C   UNL     1       2.163   0.368   1.108  0.00  0.00    +0.004 A 
ATOM     32  C   UNL     1       1.028   1.152   1.026  0.00  0.00    +0.049 A 
ATOM     33  C   UNL     1      -0.217   0.559   0.883  0.00  0.00    +0.163 A 
ATOM     34  O   UNL     1      -1.327   1.343   0.811  0.00  0.00    -0.472 OA
ENDBRANCH  22  25
ENDBRANCH   3  21
TORSDOF 5
