REMARK  Name = ZINC13625983
REMARK  5 active torsions:
REMARK  status: ('A' for Active; 'I' for Inactive)
REMARK    1  A    between atoms: C_4  and  S_7
REMARK    2  A    between atoms: S_7  and  C_8
REMARK    3  A    between atoms: C_13  and  N_14
REMARK    4  A    between atoms: C_15  and  C_17
REMARK    5  A    between atoms: C_17  and  C_18
REMARK                            x       y       z     vdW  Elec       q    Type
REMARK                         _______ _______ _______ _____ _____    ______ ____
ROOT
ATOM      1  N   UNL     1      -0.372   1.148  -2.435  0.00  0.00    -0.285 N 
ATOM      2  C   UNL     1      -1.038   0.946  -1.281  0.00  0.00    +0.216 C 
ATOM      3  O   UNL     1      -2.213   1.237  -1.200  0.00  0.00    -0.276 OA
ATOM      4  H   UNL     1       0.584   0.986  -2.478  0.00  0.00    +0.155 HD
ENDROOT
BRANCH   1  10
ATOM      5  C   UNL     1      -0.602   1.248  -4.845  0.00  0.00    +0.034 A 
ATOM      6  C   UNL     1      -1.291   1.687  -5.967  0.00  0.00    +0.017 A 
ATOM      7  C   UNL     1      -2.419   2.472  -5.821  0.00  0.00    +0.001 A 
ATOM      8  C   UNL     1      -2.868   2.818  -4.560  0.00  0.00    +0.002 A 
ATOM      9  C   UNL     1      -2.192   2.380  -3.436  0.00  0.00    +0.024 A 
ATOM     10  C   UNL     1      -1.059   1.592  -3.572  0.00  0.00    +0.047 A 
BRANCH   5  11
ATOM     11  S   UNL     1       0.841   0.253  -5.026  0.00  0.00    -0.088 S 
BRANCH  11  15
ATOM     12  C   UNL     1       1.361  -0.113  -9.511  0.00  0.00    +0.000 A 
ATOM     13  C   UNL     1       1.869   0.988  -8.845  0.00  0.00    +0.001 A 
ATOM     14  C   UNL     1       1.712   1.103  -7.478  0.00  0.00    +0.015 A 
ATOM     15  C   UNL     1       1.043   0.111  -6.771  0.00  0.00    +0.013 A 
ATOM     16  C   UNL     1       0.540  -0.997  -7.442  0.00  0.00    +0.015 A 
ATOM     17  C   UNL     1       0.695  -1.102  -8.810  0.00  0.00    +0.001 A 
ENDBRANCH  11  15
ENDBRANCH   5  11
ENDBRANCH   1  10
BRANCH   2  18
ATOM     18  C   UNL     1      -0.324   0.358  -0.091  0.00  0.00    +0.089 C 
BRANCH  18  19
ATOM     19  C   UNL     1      -1.300   0.234   1.080  0.00  0.00    +0.025 C 
ATOM     20  C   UNL     1      -0.622  -0.470   2.220  0.00  0.00    +0.200 C 
ATOM     21  O   UNL     1       0.043  -1.453   1.976  0.00  0.00    -0.278 OA
ATOM     22  N   UNL     1      -0.716  -0.072   3.491  0.00  0.00    -0.315 N 
ATOM     23  C   UNL     1      -1.447   1.137   3.882  0.00  0.00    +0.059 C 
ATOM     24  C   UNL     1      -0.439   2.276   4.063  0.00  0.00    +0.020 C 
ATOM     25  C   UNL     1      -1.175   3.572   4.406  0.00  0.00    +0.002 C 
ATOM     26  C   UNL     1      -2.123   3.931   3.259  0.00  0.00    -0.001 C 
ATOM     27  C   UNL     1      -3.149   2.809   3.090  0.00  0.00    -0.014 C 
ATOM     28  C   UNL     1      -2.443   1.496   2.781  0.00  0.00    -0.050 C 
ATOM     29  H   UNL     1      -0.284  -0.600   4.180  0.00  0.00    +0.149 HD
ATOM     30  N   UNL     1      -1.730   1.579   1.497  0.00  0.00    +0.390 N 
ATOM     31  H   UNL     1      -2.356   1.973   0.785  0.00  0.00    -0.084 HD
ATOM     32  H   UNL     1      -0.907   2.183   1.603  0.00  0.00    -0.084 HD
ENDBRANCH  18  19
ENDBRANCH   2  18
TORSDOF 5
