REMARK  Name = ZINC16328327
REMARK  9 active torsions:
REMARK  status: ('A' for Active; 'I' for Inactive)
REMARK    1  A    between atoms: C_1  and  C_2
REMARK    2  A    between atoms: C_2  and  C_3
REMARK    3  A    between atoms: C_7  and  C_28
REMARK    4  A    between atoms: C_8  and  N_9
REMARK    5  A    between atoms: C_13  and  S_15
REMARK    6  A    between atoms: S_15  and  C_16
REMARK    7  A    between atoms: C_16  and  C_18
REMARK    8  A    between atoms: C_16  and  C_19
REMARK    9  A    between atoms: C_24  and  C_27
REMARK                            x       y       z     vdW  Elec       q    Type
REMARK                         _______ _______ _______ _____ _____    ______ ____
ROOT
ATOM      1  N   UNL     1       2.509  11.984   1.404  0.00  0.00    -0.292 N 
ATOM      2  C   UNL     1       1.675  11.591   0.363  0.00  0.00    +0.187 A 
ATOM      3  N   UNL     1       1.905  11.586  -0.935  0.00  0.00    -0.125 NA
ATOM      4  N   UNL     1       0.928  11.150  -1.802  0.00  0.00    -0.133 NA
ATOM      5  C   UNL     1      -0.233  10.740  -1.329  0.00  0.00    +0.161 A 
ATOM      6  S   UNL     1       0.004  10.963   0.427  0.00  0.00    -0.024 S 
ATOM      7  H   UNL     1       2.207  11.909   2.322  0.00  0.00    +0.154 HD
ENDROOT
BRANCH   1  13
ATOM      8  C   UNL     1       4.010  13.858   1.152  0.00  0.00    -0.026 A 
ATOM      9  C   UNL     1       5.271  14.352   0.881  0.00  0.00    +0.005 A 
ATOM     10  C   UNL     1       6.304  13.485   0.576  0.00  0.00    +0.001 A 
ATOM     11  C   UNL     1       6.080  12.121   0.545  0.00  0.00    +0.005 A 
ATOM     12  C   UNL     1       4.823  11.620   0.819  0.00  0.00    -0.029 A 
ATOM     13  C   UNL     1       3.782  12.488   1.126  0.00  0.00    +0.039 A 
ATOM     14  C   UNL     1       4.580  10.133   0.785  0.00  0.00    +0.045 C 
BRANCH   8  16
ATOM     15  C   UNL     1       2.760  14.945   2.997  0.00  0.00    +0.009 C 
ATOM     16  C   UNL     1       2.883  14.804   1.478  0.00  0.00    +0.033 C 
ENDBRANCH   8  16
ENDBRANCH   1  13
BRANCH   5  17
ATOM     17  S   UNL     1      -1.643  10.139  -2.198  0.00  0.00    -0.084 S 
BRANCH  17  18
ATOM     18  C   UNL     1      -1.145  10.206  -3.941  0.00  0.00    +0.136 C 
ATOM     19  C   UNL     1      -0.926  11.662  -4.354  0.00  0.00    +0.029 C 
BRANCH  18  20
ATOM     20  C   UNL     1      -2.227   9.598  -4.796  0.00  0.00    +0.231 C 
ATOM     21  O   UNL     1      -3.374   9.580  -4.401  0.00  0.00    -0.274 OA
ATOM     22  N   UNL     1      -1.921   9.076  -6.000  0.00  0.00    -0.267 N 
ATOM     23  C   UNL     1      -2.923   8.514  -6.792  0.00  0.00    +0.168 A 
ATOM     24  C   UNL     1      -4.304   8.415  -6.476  0.00  0.00    +0.091 A 
ATOM     25  C   UNL     1      -4.842   7.800  -7.554  0.00  0.00    +0.136 A 
ATOM     26  O   UNL     1      -3.834   7.573  -8.409  0.00  0.00    -0.358 OA
ATOM     27  N   UNL     1      -2.779   7.973  -7.973  0.00  0.00    -0.063 NA
ATOM     28  C   UNL     1      -6.292   7.441  -7.756  0.00  0.00    +0.089 C 
ATOM     29  H   UNL     1      -1.004   9.091  -6.317  0.00  0.00    +0.156 HD
ENDBRANCH  18  20
ENDBRANCH  17  18
ENDBRANCH   5  17
TORSDOF 5
