REMARK  Name = ZINC24909992
REMARK  10 active torsions:
REMARK  status: ('A' for Active; 'I' for Inactive)
REMARK    1  A    between atoms: C_1  and  N_2
REMARK    2  A    between atoms: N_2  and  C_3
REMARK    3  A    between atoms: N_2  and  C_24
REMARK    4  A    between atoms: C_3  and  C_4
REMARK    5  A    between atoms: C_14  and  C_20
REMARK    6  A    between atoms: C_24  and  C_25
REMARK    7  A    between atoms: C_25  and  C_27
REMARK    8  A    between atoms: C_25  and  O_35
REMARK    9  A    between atoms: C_27  and  O_28
REMARK   10  A    between atoms: O_28  and  C_29
REMARK                            x       y       z     vdW  Elec       q    Type
REMARK                         _______ _______ _______ _____ _____    ______ ____
ROOT
ATOM      1  C   UNL     1      10.752  -0.973  -0.314  0.00  0.00    -0.025 C 
ATOM      2  C   UNL     1      10.803  -1.938   0.873  0.00  0.00    +0.020 C 
ATOM      3  C   UNL     1      11.921  -2.958   0.648  0.00  0.00    +0.107 C 
ATOM      4  N   UNL     1      13.204  -2.258   0.507  0.00  0.00    -0.315 N 
ATOM      5  C   UNL     1      13.195  -1.361  -0.656  0.00  0.00    +0.107 C 
ATOM      6  C   UNL     1      12.116  -0.293  -0.469  0.00  0.00    +0.020 C 
ATOM      7  C   UNL     1      14.254  -3.156   0.432  0.00  0.00    +0.130 A 
ATOM      8  C   UNL     1      14.963  -3.518   1.598  0.00  0.00    +0.040 A 
ATOM      9  C   UNL     1      14.643  -2.993   2.858  0.00  0.00    +0.015 A 
ATOM     10  C   UNL     1      15.387  -3.401   3.932  0.00  0.00    +0.033 A 
ATOM     11  C   UNL     1      16.425  -4.311   3.755  0.00  0.00    +0.144 A 
ATOM     12  N   UNL     1      16.714  -4.807   2.574  0.00  0.00    -0.243 NA
ATOM     13  C   UNL     1      16.030  -4.445   1.488  0.00  0.00    +0.076 A 
ATOM     14  C   UNL     1      16.336  -4.952   0.209  0.00  0.00    +0.048 A 
ATOM     15  C   UNL     1      15.598  -4.540  -0.857  0.00  0.00    +0.115 A 
ATOM     16  N   UNL     1      14.600  -3.675  -0.732  0.00  0.00    -0.240 NA
ENDROOT
BRANCH  11  17
ATOM     17  C   UNL     1      17.231  -4.747   4.951  0.00  0.00    +0.434 C 
ATOM     18  F   UNL     1      16.641  -5.880   5.522  0.00  0.00    -0.164 F 
ATOM     19  F   UNL     1      18.535  -5.054   4.548  0.00  0.00    -0.164 F 
ATOM     20  F   UNL     1      17.265  -3.713   5.893  0.00  0.00    -0.164 F 
ENDBRANCH  11  17
BRANCH   1  21
ATOM     21  C   UNL     1       9.677   0.087  -0.066  0.00  0.00    -0.076 C 
BRANCH  21  23
ATOM     22  C   UNL     1       8.949   0.283  -2.367  0.00  0.00    -0.096 C 
ATOM     23  N   UNL     1       9.583   0.972  -1.235  0.00  0.00    +0.380 N 
ATOM     24  H   UNL     1      10.605   1.245  -1.536  0.00  0.00    -0.082 HD
BRANCH  23  25
ATOM     25  C   UNL     1       8.864   2.209  -0.903  0.00  0.00    -0.044 C 
BRANCH  25  26
ATOM     26  C   UNL     1       9.001   3.204  -2.057  0.00  0.00    +0.135 C 
BRANCH  26  27
ATOM     27  O   UNL     1      10.382   3.499  -2.272  0.00  0.00    -0.390 OA
ATOM     28  H   UNL     1      10.678   4.200  -3.066  0.00  0.00    +0.210 HD
ENDBRANCH  26  27
BRANCH  26  29
ATOM     29  C   UNL     1       8.252   4.493  -1.711  0.00  0.00    +0.258 C 
BRANCH  29  30
ATOM     30  O   UNL     1       8.280   5.377  -2.833  0.00  0.00    -0.489 OA
BRANCH  30  31
ATOM     31  C   UNL     1       7.656   6.575  -2.691  0.00  0.00    +0.121 A 
ATOM     32  C   UNL     1       7.644   7.482  -3.741  0.00  0.00    +0.045 A 
ATOM     33  C   UNL     1       7.008   8.699  -3.594  0.00  0.00    +0.004 A 
ATOM     34  C   UNL     1       6.383   9.015  -2.401  0.00  0.00    +0.000 A 
ATOM     35  C   UNL     1       6.394   8.113  -1.353  0.00  0.00    +0.004 A 
ATOM     36  C   UNL     1       7.028   6.894  -1.495  0.00  0.00    +0.045 A 
ENDBRANCH  30  31
ENDBRANCH  29  30
ENDBRANCH  26  29
ENDBRANCH  25  26
ENDBRANCH  23  25
ENDBRANCH  21  23
ENDBRANCH   1  21
TORSDOF 9
