REMARK  Name = ZINC39596445
REMARK  8 active torsions:
REMARK  status: ('A' for Active; 'I' for Inactive)
REMARK    1  A    between atoms: C_1  and  C_2
REMARK    2  A    between atoms: C_2  and  C_4
REMARK    3  A    between atoms: C_2  and  O_33
REMARK    4  A    between atoms: C_4  and  N_5
REMARK    5  A    between atoms: C_6  and  C_8
REMARK    6  A    between atoms: C_19  and  C_21
REMARK    7  A    between atoms: C_24  and  C_26
REMARK    8  A    between atoms: O_33  and  C_34
REMARK                            x       y       z     vdW  Elec       q    Type
REMARK                         _______ _______ _______ _____ _____    ______ ____
ROOT
ATOM      1  C   UNL     1       1.643  -4.299  -2.653  0.00  0.00    +0.100 C 
ATOM      2  C   UNL     1       0.274  -4.933  -2.986  0.00  0.00    +0.121 C 
ATOM      3  N   UNL     1       0.269  -5.060  -4.462  0.00  0.00    -0.294 N 
ATOM      4  C   UNL     1       1.652  -5.473  -4.801  0.00  0.00    +0.115 C 
ATOM      5  C   UNL     1       2.546  -4.659  -3.845  0.00  0.00    -0.004 C 
ATOM      6  C   UNL     1       3.727  -5.505  -3.378  0.00  0.00    -0.010 C 
ATOM      7  C   UNL     1       4.641  -5.800  -4.571  0.00  0.00    -0.082 C 
ATOM      8  N   UNL     1       5.115  -4.538  -5.151  0.00  0.00    +0.379 N 
ATOM      9  C   UNL     1       3.981  -3.773  -5.681  0.00  0.00    -0.082 C 
ATOM     10  C   UNL     1       3.039  -3.392  -4.536  0.00  0.00    -0.010 C 
ATOM     11  C   UNL     1      -0.760  -4.847  -5.306  0.00  0.00    +0.282 C 
ATOM     12  O   UNL     1      -0.605  -4.994  -6.504  0.00  0.00    -0.267 OA
ATOM     13  H   UNL     1       5.581  -3.996  -4.438  0.00  0.00    -0.086 HD
ATOM     14  H   UNL     1       5.765  -4.736  -5.897  0.00  0.00    -0.086 HD
ENDROOT
BRANCH  11  15
ATOM     15  C   UNL     1      -2.065  -4.438  -4.781  0.00  0.00    +0.190 A 
ATOM     16  C   UNL     1      -3.197  -4.194  -5.528  0.00  0.00    +0.055 A 
ATOM     17  C   UNL     1      -4.204  -3.834  -4.627  0.00  0.00    +0.051 A 
ATOM     18  C   UNL     1      -3.657  -3.871  -3.377  0.00  0.00    +0.139 A 
ATOM     19  O   UNL     1      -2.370  -4.241  -3.481  0.00  0.00    -0.450 OA
BRANCH  18  20
ATOM     20  C   UNL     1      -4.364  -3.561  -2.118  0.00  0.00    +0.052 A 
ATOM     21  C   UNL     1      -5.110  -2.386  -2.003  0.00  0.00    +0.014 A 
ATOM     22  C   UNL     1      -5.768  -2.102  -0.825  0.00  0.00    +0.001 A 
ATOM     23  C   UNL     1      -5.692  -2.979   0.243  0.00  0.00    +0.003 A 
ATOM     24  C   UNL     1      -4.956  -4.145   0.139  0.00  0.00    +0.039 A 
ATOM     25  C   UNL     1      -4.296  -4.446  -1.037  0.00  0.00    +0.134 A 
ATOM     26  F   UNL     1      -3.582  -5.588  -1.141  0.00  0.00    -0.205 F 
ENDBRANCH  18  20
ENDBRANCH  11  15
BRANCH   1  28
ATOM     27  N   UNL     1       2.344  -2.120  -1.716  0.00  0.00    -0.312 N 
ATOM     28  C   UNL     1       1.512  -2.804  -2.527  0.00  0.00    +0.218 C 
ATOM     29  O   UNL     1       0.658  -2.215  -3.155  0.00  0.00    -0.275 OA
ATOM     30  H   UNL     1       3.027  -2.591  -1.214  0.00  0.00    +0.149 HD
BRANCH  27  31
ATOM     31  C   UNL     1       2.217  -0.666  -1.593  0.00  0.00    +0.148 C 
BRANCH  31  33
ATOM     32  C   UNL     1       3.061   1.357  -0.395  0.00  0.00    +0.053 C 
ATOM     33  C   UNL     1       3.273  -0.141  -0.619  0.00  0.00    +0.187 C 
BRANCH  33  34
ATOM     34  O   UNL     1       4.575  -0.362  -1.163  0.00  0.00    -0.488 OA
BRANCH  34  35
ATOM     35  C   UNL     1       5.608  -0.440  -0.283  0.00  0.00    +0.121 A 
ATOM     36  C   UNL     1       5.389  -0.201   1.066  0.00  0.00    +0.048 A 
ATOM     37  C   UNL     1       6.439  -0.281   1.960  0.00  0.00    +0.042 A 
ATOM     38  C   UNL     1       7.710  -0.598   1.510  0.00  0.00    +0.124 A 
ATOM     39  C   UNL     1       7.930  -0.837   0.164  0.00  0.00    +0.042 A 
ATOM     40  C   UNL     1       6.880  -0.764  -0.731  0.00  0.00    +0.048 A 
ATOM     41  F   UNL     1       8.736  -0.675   2.386  0.00  0.00    -0.205 F 
ENDBRANCH  34  35
ENDBRANCH  33  34
ENDBRANCH  31  33
ENDBRANCH  27  31
ENDBRANCH   1  28
TORSDOF 7
