REMARK  Name = ZINC44924261
REMARK  9 active torsions:
REMARK  status: ('A' for Active; 'I' for Inactive)
REMARK    1  A    between atoms: C_1  and  C_2
REMARK    2  A    between atoms: C_14  and  N_17
REMARK    3  A    between atoms: C_18  and  C_20
REMARK    4  A    between atoms: C_20  and  C_22
REMARK    5  A    between atoms: C_20  and  N_26
REMARK    6  A    between atoms: C_22  and  C_23
REMARK    7  A    between atoms: C_23  and  C_24
REMARK    8  A    between atoms: C_23  and  C_25
REMARK    9  A    between atoms: C_27  and  C_29
REMARK                            x       y       z     vdW  Elec       q    Type
REMARK                         _______ _______ _______ _____ _____    ______ ____
ROOT
ATOM      1  N   UNL     1      -0.414  -4.728   6.019  0.00  0.00    -0.311 N 
ATOM      2  C   UNL     1       0.679  -5.141   6.689  0.00  0.00    +0.234 C 
ATOM      3  O   UNL     1       1.562  -5.733   6.104  0.00  0.00    -0.274 OA
ATOM      4  H   UNL     1      -1.141  -4.296   6.495  0.00  0.00    +0.149 HD
ENDROOT
BRANCH   1  18
ATOM      5  C   UNL     1      -3.723  -0.206   0.161  0.00  0.00    +0.044 C 
ATOM      6  C   UNL     1      -3.242  -1.632   0.233  0.00  0.00    -0.050 A 
ATOM      7  C   UNL     1      -3.300  -2.437  -0.897  0.00  0.00    +0.005 A 
ATOM      8  C   UNL     1      -2.866  -3.743  -0.852  0.00  0.00    +0.026 A 
ATOM      9  C   UNL     1      -2.364  -4.264   0.336  0.00  0.00    +0.047 A 
ATOM     10  C   UNL     1      -2.307  -3.445   1.480  0.00  0.00    +0.003 A 
ATOM     11  C   UNL     1      -2.748  -2.122   1.409  0.00  0.00    +0.013 A 
ATOM     12  C   UNL     1      -1.740  -4.276   2.538  0.00  0.00    -0.017 A 
ATOM     13  C   UNL     1      -1.497  -5.490   2.008  0.00  0.00    +0.020 A 
ATOM     14  N   UNL     1      -1.865  -5.498   0.693  0.00  0.00    -0.358 N 
ATOM     15  H   UNL     1      -1.788  -6.261   0.098  0.00  0.00    +0.166 HD
ATOM     16  C   UNL     1      -0.907  -6.642   2.789  0.00  0.00    +0.055 C 
ATOM     17  C   UNL     1      -1.043  -6.336   4.285  0.00  0.00    +0.028 C 
ATOM     18  C   UNL     1      -0.507  -4.931   4.571  0.00  0.00    +0.078 C 
ATOM     19  C   UNL     1      -1.459  -3.892   3.967  0.00  0.00    +0.059 C 
ENDBRANCH   1  18
BRANCH   2  20
ATOM     20  C   UNL     1       0.806  -4.868   8.166  0.00  0.00    +0.159 C 
BRANCH  20  21
ATOM     21  N   UNL     1       1.911  -5.658   8.715  0.00  0.00    -0.300 N 
ATOM     22  C   UNL     1       1.955  -5.928  10.035  0.00  0.00    +0.245 C 
ATOM     23  O   UNL     1       1.034  -5.593  10.755  0.00  0.00    -0.270 OA
ATOM     24  H   UNL     1       2.611  -5.986   8.130  0.00  0.00    +0.150 HD
BRANCH  22  25
ATOM     25  C   UNL     1       3.122  -6.633  10.607  0.00  0.00    +0.037 A 
ATOM     26  C   UNL     1       4.183  -7.014   9.784  0.00  0.00    +0.013 A 
ATOM     27  C   UNL     1       5.269  -7.671  10.324  0.00  0.00    +0.001 A 
ATOM     28  C   UNL     1       5.308  -7.952  11.678  0.00  0.00    +0.000 A 
ATOM     29  C   UNL     1       4.260  -7.577  12.499  0.00  0.00    +0.001 A 
ATOM     30  C   UNL     1       3.170  -6.915  11.973  0.00  0.00    +0.013 A 
ENDBRANCH  22  25
ENDBRANCH  20  21
BRANCH  20  31
ATOM     31  C   UNL     1       1.085  -3.380   8.387  0.00  0.00    +0.034 C 
BRANCH  31  32
ATOM     32  C   UNL     1      -0.085  -2.556   7.844  0.00  0.00    -0.015 C 
ATOM     33  C   UNL     1      -1.336  -2.835   8.679  0.00  0.00    +0.007 C 
ATOM     34  C   UNL     1       0.259  -1.067   7.923  0.00  0.00    +0.007 C 
ENDBRANCH  31  32
ENDBRANCH  20  31
ENDBRANCH   2  20
TORSDOF 6
