REMARK  Name = ZINC03261141
REMARK  7 active torsions:
REMARK  status: ('A' for Active; 'I' for Inactive)
REMARK    1  A    between atoms: C_1  and  C_2
REMARK    2  A    between atoms: C_7  and  N_9
REMARK    3  A    between atoms: N_9  and  N_10
REMARK    4  A    between atoms: C_11  and  C_13
REMARK    5  A    between atoms: C_17  and  S_19
REMARK    6  A    between atoms: S_19  and  N_22
REMARK    7  A    between atoms: N_22  and  C_23
REMARK                            x       y       z     vdW  Elec       q    Type
REMARK                         _______ _______ _______ _____ _____    ______ ____
ROOT
ATOM      1  C   UNL     1       1.098  -0.894  -6.104  0.00  0.00    +0.040 A 
ATOM      2  C   UNL     1       0.208   0.178  -6.190  0.00  0.00    +0.013 A 
ATOM      3  C   UNL     1      -0.020   0.786  -7.407  0.00  0.00    +0.003 A 
ATOM      4  C   UNL     1       0.623   0.327  -8.544  0.00  0.00    +0.029 A 
ATOM      5  C   UNL     1       1.502  -0.738  -8.467  0.00  0.00    +0.109 A 
ATOM      6  C   UNL     1       1.743  -1.351  -7.255  0.00  0.00    +0.042 A 
ENDROOT
BRANCH   1   8
ATOM      7  N   UNL     1       0.727  -1.102  -3.693  0.00  0.00    -0.233 N 
ATOM      8  C   UNL     1       1.351  -1.546  -4.802  0.00  0.00    +0.260 C 
ATOM      9  O   UNL     1       2.123  -2.483  -4.731  0.00  0.00    -0.269 OA
ATOM     10  H   UNL     1       0.112  -0.355  -3.750  0.00  0.00    +0.173 HD
BRANCH   7  11
ATOM     11  N   UNL     1       0.967  -1.720  -2.459  0.00  0.00    -0.269 N 
ATOM     12  H   UNL     1       1.638  -2.418  -2.388  0.00  0.00    +0.170 HD
BRANCH  11  18
ATOM     13  C   UNL     1      -1.385   1.728  -0.335  0.00  0.00    +0.012 C 
ATOM     14  C   UNL     1      -1.420   0.199  -0.329  0.00  0.00    +0.010 C 
ATOM     15  C   UNL     1      -0.895  -0.315   1.013  0.00  0.00    +0.008 C 
ATOM     16  C   UNL     1      -0.696  -1.833   0.908  0.00  0.00    +0.006 C 
ATOM     17  C   UNL     1       0.452  -2.105  -0.066  0.00  0.00    +0.052 C 
ATOM     18  C   UNL     1       0.246  -1.334  -1.337  0.00  0.00    +0.018 C 
ATOM     19  C   UNL     1      -0.568  -0.323  -1.449  0.00  0.00    -0.004 C 
ENDBRANCH  11  18
ENDBRANCH   7  11
ENDBRANCH   1   8
BRANCH   5  20
ATOM     20  S   UNL     1       2.314  -1.314  -9.920  0.00  0.00    +0.072 S 
ATOM     21  O   UNL     1       2.335  -0.225 -10.833  0.00  0.00    -0.150 OA
ATOM     22  O   UNL     1       3.499  -1.971  -9.490  0.00  0.00    -0.150 OA
BRANCH  20  23
ATOM     23  N   UNL     1       1.347  -2.478 -10.594  0.00  0.00    -0.215 N 
ATOM     24  H   UNL     1       1.681  -3.381 -10.707  0.00  0.00    +0.174 HD
BRANCH  23  25
ATOM     25  C   UNL     1       0.048  -2.158 -10.999  0.00  0.00    +0.068 A 
ATOM     26  C   UNL     1      -0.224  -0.908 -11.541  0.00  0.00    +0.046 A 
ATOM     27  C   UNL     1      -1.509  -0.595 -11.941  0.00  0.00    +0.043 A 
ATOM     28  C   UNL     1      -2.525  -1.525 -11.803  0.00  0.00    +0.021 A 
ATOM     29  C   UNL     1      -2.257  -2.770 -11.264  0.00  0.00    +0.023 A 
ATOM     30  C   UNL     1      -0.973  -3.091 -10.867  0.00  0.00    +0.063 A 
ATOM     31 CL   UNL     1      -0.637  -4.657 -10.197  0.00  0.00    -0.082 Cl
ATOM     32 CL   UNL     1      -1.850   0.967 -12.618  0.00  0.00    -0.083 Cl
ENDBRANCH  23  25
ENDBRANCH  20  23
ENDBRANCH   5  20
TORSDOF 6
