REMARK  Name = ZINC17028594
REMARK  4 active torsions:
REMARK  status: ('A' for Active; 'I' for Inactive)
REMARK    1  A    between atoms: C_4  and  C_7
REMARK    2  A    between atoms: C_10  and  C_16
REMARK    3  A    between atoms: C_22  and  O_29
REMARK    4  A    between atoms: C_24  and  O_28
REMARK                            x       y       z     vdW  Elec       q    Type
REMARK                         _______ _______ _______ _____ _____    ______ ____
ROOT
ATOM      1  C   UNL     1      -0.871   1.266  -0.187  0.00  0.00    +0.131 C 
ATOM      2  C   UNL     1      -0.732   2.604   0.537  0.00  0.00    +0.168 C 
ATOM      3  C   UNL     1       0.369   3.390  -0.167  0.00  0.00    +0.131 C 
ATOM      4  N   UNL     1       1.605   2.605  -0.171  0.00  0.00    -0.291 N 
ATOM      5  C   UNL     1       1.574   1.263  -0.182  0.00  0.00    +0.301 C 
ATOM      6  O   UNL     1       2.624   0.650  -0.191  0.00  0.00    -0.253 OA
ATOM      7  N   UNL     1       0.421   0.575  -0.183  0.00  0.00    -0.291 N 
ATOM      8  C   UNL     1      -0.280   2.330   1.954  0.00  0.00    +0.211 C 
ATOM      9  N   UNL     1      -1.051   2.771   2.922  0.00  0.00    -0.165 NA
ATOM     10  C   UNL     1      -2.184   3.432   2.682  0.00  0.00    +0.310 C 
ATOM     11  N   UNL     1      -2.665   3.722   1.490  0.00  0.00    -0.127 NA
ATOM     12  C   UNL     1      -2.030   3.362   0.369  0.00  0.00    +0.260 C 
ATOM     13  O   UNL     1      -2.474   3.631  -0.729  0.00  0.00    -0.272 OA
ATOM     14  H   UNL     1       2.461   3.063  -0.166  0.00  0.00    +0.151 HD
ATOM     15  H   UNL     1       0.444  -0.394  -0.186  0.00  0.00    +0.151 HD
ENDROOT
BRANCH   1  19
ATOM     16  C   UNL     1      -2.116   1.933  -4.218  0.00  0.00    +0.000 A 
ATOM     17  C   UNL     1      -0.852   1.438  -3.958  0.00  0.00    +0.000 A 
ATOM     18  C   UNL     1      -0.449   1.222  -2.654  0.00  0.00    +0.005 A 
ATOM     19  C   UNL     1      -1.310   1.501  -1.609  0.00  0.00    -0.026 A 
ATOM     20  C   UNL     1      -2.576   1.992  -1.869  0.00  0.00    +0.005 A 
ATOM     21  C   UNL     1      -2.977   2.213  -3.173  0.00  0.00    +0.000 A 
ENDBRANCH   1  19
BRANCH   3  22
ATOM     22  C   UNL     1      -0.048   3.677  -1.587  0.00  0.00    -0.026 A 
ATOM     23  C   UNL     1       0.618   3.075  -2.638  0.00  0.00    +0.005 A 
ATOM     24  C   UNL     1       0.232   3.334  -3.940  0.00  0.00    +0.000 A 
ATOM     25  C   UNL     1      -0.813   4.203  -4.191  0.00  0.00    +0.000 A 
ATOM     26  C   UNL     1      -1.476   4.810  -3.140  0.00  0.00    +0.000 A 
ATOM     27  C   UNL     1      -1.093   4.547  -1.838  0.00  0.00    +0.005 A 
ENDBRANCH   3  22
BRANCH  10  28
ATOM     28  O   UNL     1      -2.899   3.837   3.751  0.00  0.00    -0.480 OA
ATOM     29  H   UNL     1      -3.720   4.316   3.573  0.00  0.00    +0.295 HD
ENDBRANCH  10  28
BRANCH   8  30
ATOM     30  O   UNL     1       0.858   1.667   2.211  0.00  0.00    -0.495 OA
ATOM     31  H   UNL     1       1.085   1.528   3.141  0.00  0.00    +0.293 HD
ENDBRANCH   8  30
TORSDOF 4
