REMARK  Name = ZINC34664077
REMARK  7 active torsions:
REMARK  status: ('A' for Active; 'I' for Inactive)
REMARK    1  A    between atoms: C_1  and  C_2
REMARK    2  A    between atoms: C_3  and  C_18
REMARK    3  A    between atoms: C_4  and  O_8
REMARK    4  A    between atoms: N_5  and  C_7
REMARK    5  A    between atoms: O_8  and  C_9
REMARK    6  A    between atoms: C_18  and  N_19
REMARK    7  A    between atoms: N_19  and  C_20
REMARK                            x       y       z     vdW  Elec       q    Type
REMARK                         _______ _______ _______ _____ _____    ______ ____
ROOT
ATOM      1  C   UNL     1      -0.013   1.504   0.008  0.00  0.00    +0.068 C 
ATOM      2  C   UNL     1       0.005  -0.003   0.000  0.00  0.00    +0.065 A 
ATOM      3  C   UNL     1       0.012  -0.816  -1.137  0.00  0.00    +0.020 A 
ATOM      4  C   UNL     1       0.028  -2.111  -0.724  0.00  0.00    +0.220 A 
ATOM      5  N   UNL     1       0.032  -2.108   0.628  0.00  0.00    -0.236 N 
ATOM      6  N   UNL     1       0.023  -0.775   1.056  0.00  0.00    -0.173 NA
ATOM      7  C   UNL     1       0.049  -3.291   1.492  0.00  0.00    +0.176 C 
ENDROOT
BRANCH   4   8
ATOM      8  O   UNL     1       0.039  -3.208  -1.523  0.00  0.00    -0.437 OA
BRANCH   8   9
ATOM      9  C   UNL     1      -1.150  -3.800  -1.811  0.00  0.00    +0.150 A 
ATOM     10  C   UNL     1      -2.336  -3.220  -1.382  0.00  0.00    +0.069 A 
ATOM     11  C   UNL     1      -3.544  -3.824  -1.676  0.00  0.00    +0.063 A 
ATOM     12  C   UNL     1      -3.572  -5.006  -2.397  0.00  0.00    +0.061 A 
ATOM     13  C   UNL     1      -2.391  -5.585  -2.825  0.00  0.00    +0.045 A 
ATOM     14  C   UNL     1      -1.181  -4.982  -2.538  0.00  0.00    +0.085 A 
ATOM     15 CL   UNL     1       0.301  -5.705  -3.082  0.00  0.00    -0.080 Cl
ATOM     16 CL   UNL     1      -5.091  -5.762  -2.763  0.00  0.00    -0.082 Cl
ATOM     17 CL   UNL     1      -5.028  -3.100  -1.139  0.00  0.00    -0.082 Cl
ENDBRANCH   8   9
ENDBRANCH   4   8
BRANCH   3  18
ATOM     18  C   UNL     1       0.001  -0.341  -2.568  0.00  0.00    -0.040 C 
BRANCH  18  19
ATOM     19  N   UNL     1       1.383  -0.170  -3.037  0.00  0.00    +0.380 N 
ATOM     20  C   UNL     1       1.373   0.292  -4.431  0.00  0.00    -0.100 C 
ATOM     21  H   UNL     1       1.852   0.511  -2.459  0.00  0.00    -0.086 HD
ATOM     22  H   UNL     1       1.869  -1.052  -2.978  0.00  0.00    -0.086 HD
ENDBRANCH  18  19
ENDBRANCH   3  18
TORSDOF 4
