REMARK  Name = ZINC21239444
REMARK  6 active torsions:
REMARK  status: ('A' for Active; 'I' for Inactive)
REMARK    1  A    between atoms: C_1  and  C_2
REMARK    2  A    between atoms: C_2  and  C_3
REMARK    3  A    between atoms: C_3  and  O_4
REMARK    4  A    between atoms: O_4  and  C_5
REMARK    5  A    between atoms: C_8  and  C_11
REMARK    6  A    between atoms: C_16  and  C_22
REMARK                            x       y       z     vdW  Elec       q    Type
REMARK                         _______ _______ _______ _____ _____    ______ ____
ROOT
ATOM      1  C   UNL     1      -2.664   5.252  -0.173  0.00  0.00    +0.032 C 
ATOM      2  C   UNL     1      -2.501   3.904   0.531  0.00  0.00    +0.059 C 
ATOM      3  C   UNL     1      -1.236   3.234   0.057  0.00  0.00    +0.018 C 
ATOM      4  C   UNL     1      -0.169   3.964  -0.328  0.00  0.00    +0.020 C 
ATOM      5  C   UNL     1       1.090   3.271  -0.793  0.00  0.00    +0.064 C 
ATOM      6  C   UNL     1       1.281   1.978   0.000  0.00  0.00    +0.109 C 
ATOM      7  C   UNL     1      -0.014   1.208   0.009  0.00  0.00    +0.218 C 
ATOM      8  O   UNL     1       0.002  -0.004   0.002  0.00  0.00    -0.275 OA
ATOM      9  N   UNL     1      -1.188   1.863   0.018  0.00  0.00    -0.289 N 
ATOM     10  C   UNL     1      -0.199   5.369  -0.309  0.00  0.00    +0.162 C 
ATOM     11  O   UNL     1       0.786   5.993  -0.651  0.00  0.00    -0.292 OA
ATOM     12  C   UNL     1      -1.432   6.112   0.128  0.00  0.00    +0.088 C 
ATOM     13  H   UNL     1      -2.121   1.281  -0.007  0.00  0.00    +0.155 HD
ENDROOT
BRANCH   5  14
ATOM     14  C   UNL     1       0.974   2.948  -2.261  0.00  0.00    -0.022 A 
ATOM     15  C   UNL     1      -0.043   2.123  -2.707  0.00  0.00    +0.055 A 
ATOM     16  C   UNL     1      -0.155   1.829  -4.055  0.00  0.00    +0.167 A 
ATOM     17  C   UNL     1       0.763   2.357  -4.959  0.00  0.00    +0.167 A 
ATOM     18  C   UNL     1       1.782   3.178  -4.506  0.00  0.00    +0.065 A 
ATOM     19  C   UNL     1       1.886   3.472  -3.158  0.00  0.00    +0.025 A 
ATOM     20 BR   UNL     1       3.278   4.594  -2.541  0.00  0.00    -0.050 Br
ATOM     21  O   UNL     1       0.443   1.921  -6.212  0.00  0.00    -0.453 OA
ATOM     22  C   UNL     1      -0.432   0.795  -6.015  0.00  0.00    +0.466 C 
ATOM     23  O   UNL     1      -1.051   1.061  -4.743  0.00  0.00    -0.453 OA
ENDBRANCH   5  14
BRANCH   1  27
ATOM     24  C   UNL     1      -6.173   7.214   1.277  0.00  0.00    +0.121 A 
ATOM     25  C   UNL     1      -6.050   6.918  -0.072  0.00  0.00    +0.046 A 
ATOM     26  C   UNL     1      -4.914   6.284  -0.539  0.00  0.00    +0.007 A 
ATOM     27  C   UNL     1      -3.901   5.944   0.339  0.00  0.00    -0.043 A 
ATOM     28  C   UNL     1      -4.024   6.233   1.685  0.00  0.00    +0.007 A 
ATOM     29  C   UNL     1      -5.154   6.872   2.155  0.00  0.00    +0.046 A 
BRANCH  24  30
ATOM     30  O   UNL     1      -7.288   7.839   1.738  0.00  0.00    -0.492 OA
BRANCH  30  31
ATOM     31  C   UNL     1      -7.346   8.112   3.140  0.00  0.00    +0.229 C 
BRANCH  31  33
ATOM     32  C   UNL     1      -8.728   9.105   4.969  0.00  0.00    +0.007 C 
ATOM     33  C   UNL     1      -8.666   8.813   3.469  0.00  0.00    +0.038 C 
ENDBRANCH  31  33
ENDBRANCH  30  31
ENDBRANCH  24  30
ENDBRANCH   1  27
TORSDOF 5
