REMARK  Name = ZINC39686523
REMARK  8 active torsions:
REMARK  status: ('A' for Active; 'I' for Inactive)
REMARK    1  A    between atoms: C_1  and  C_2
REMARK    2  A    between atoms: C_2  and  C_4
REMARK    3  A    between atoms: C_2  and  N_13
REMARK    4  A    between atoms: C_4  and  C_5
REMARK    5  A    between atoms: C_10  and  O_11
REMARK    6  A    between atoms: O_11  and  C_12
REMARK    7  A    between atoms: C_14  and  C_16
REMARK    8  A    between atoms: C_27  and  C_29
REMARK                            x       y       z     vdW  Elec       q    Type
REMARK                         _______ _______ _______ _____ _____    ______ ____
ROOT
ATOM      1  C   UNL     1       0.712  -1.094  -3.598  0.00  0.00    +0.100 C 
ATOM      2  C   UNL     1       1.732  -0.041  -4.085  0.00  0.00    +0.121 C 
ATOM      3  N   UNL     1       1.653  -0.098  -5.564  0.00  0.00    -0.300 N 
ATOM      4  C   UNL     1       0.209  -0.272  -5.849  0.00  0.00    +0.115 C 
ATOM      5  C   UNL     1      -0.287  -1.243  -4.759  0.00  0.00    -0.004 C 
ATOM      6  C   UNL     1      -1.689  -0.852  -4.303  0.00  0.00    -0.010 C 
ATOM      7  C   UNL     1      -2.674  -1.064  -5.457  0.00  0.00    -0.082 C 
ATOM      8  N   UNL     1      -2.647  -2.471  -5.873  0.00  0.00    +0.379 N 
ATOM      9  C   UNL     1      -1.320  -2.813  -6.397  0.00  0.00    -0.082 C 
ATOM     10  C   UNL     1      -0.278  -2.676  -5.283  0.00  0.00    -0.010 C 
ATOM     11  C   UNL     1       2.666  -0.012  -6.449  0.00  0.00    +0.219 C 
ATOM     12  O   UNL     1       2.439  -0.077  -7.638  0.00  0.00    -0.275 OA
ATOM     13  H   UNL     1      -2.856  -3.059  -5.080  0.00  0.00    -0.086 HD
ATOM     14  H   UNL     1      -3.340  -2.621  -6.591  0.00  0.00    -0.086 HD
ENDROOT
BRANCH   1  16
ATOM     15  N   UNL     1      -0.156  -1.436  -1.308  0.00  0.00    -0.312 N 
ATOM     16  C   UNL     1       0.006  -0.608  -2.358  0.00  0.00    +0.218 C 
ATOM     17  O   UNL     1      -0.415   0.528  -2.307  0.00  0.00    -0.275 OA
ATOM     18  H   UNL     1       0.181  -2.345  -1.349  0.00  0.00    +0.149 HD
BRANCH  15  20
ATOM     19  C   UNL     1       0.159  -0.245   0.806  0.00  0.00    +0.028 C 
ATOM     20  C   UNL     1      -0.842  -0.964  -0.102  0.00  0.00    +0.074 C 
BRANCH  20  21
ATOM     21  C   UNL     1      -1.442  -2.157   0.644  0.00  0.00    +0.060 C 
BRANCH  21  22
ATOM     22  C   UNL     1      -2.516  -2.790  -0.203  0.00  0.00    -0.004 A 
ATOM     23  C   UNL     1      -3.838  -2.430  -0.027  0.00  0.00    +0.007 A 
ATOM     24  C   UNL     1      -4.823  -3.011  -0.803  0.00  0.00    +0.000 A 
ATOM     25  C   UNL     1      -4.489  -3.954  -1.758  0.00  0.00    +0.004 A 
ATOM     26  C   UNL     1      -3.168  -4.317  -1.938  0.00  0.00    +0.046 A 
ATOM     27  C   UNL     1      -2.177  -3.732  -1.164  0.00  0.00    +0.123 A 
BRANCH  27  28
ATOM     28  O   UNL     1      -0.876  -4.083  -1.343  0.00  0.00    -0.495 OA
ATOM     29  C   UNL     1      -0.601  -5.059  -2.350  0.00  0.00    +0.277 C 
ENDBRANCH  27  28
ENDBRANCH  21  22
ENDBRANCH  20  21
ENDBRANCH  15  20
ENDBRANCH   1  16
BRANCH  11  30
ATOM     30  C   UNL     1       4.080   0.164  -5.960  0.00  0.00    +0.075 C 
ATOM     31  C   UNL     1       4.441   1.623  -5.632  0.00  0.00    +0.013 C 
ATOM     32  C   UNL     1       5.812   1.345  -6.272  0.00  0.00    +0.001 C 
ATOM     33  C   UNL     1       5.118   0.245  -7.093  0.00  0.00    +0.013 C 
ENDBRANCH  11  30
TORSDOF 6
