REMARK  Name = ZINC16285117
REMARK  13 active torsions:
REMARK  status: ('A' for Active; 'I' for Inactive)
REMARK    1  A    between atoms: C_1  and  C_2
REMARK    2  A    between atoms: C_5  and  O_29
REMARK    3  A    between atoms: C_6  and  N_8
REMARK    4  A    between atoms: N_8  and  C_9
REMARK    5  A    between atoms: N_8  and  S_25
REMARK    6  A    between atoms: C_9  and  C_10
REMARK    7  A    between atoms: N_12  and  N_13
REMARK    8  A    between atoms: C_14  and  C_15
REMARK    9  A    between atoms: C_17  and  O_23
REMARK   10  A    between atoms: C_18  and  O_22
REMARK   11  A    between atoms: O_23  and  C_24
REMARK   12  A    between atoms: S_25  and  C_28
REMARK   13  A    between atoms: O_29  and  C_30
REMARK                            x       y       z     vdW  Elec       q    Type
REMARK                         _______ _______ _______ _____ _____    ______ ____
ROOT
ATOM      1  C   UNL     1       3.771   3.264   1.865  0.00  0.00    +0.251 C 
ATOM      2  O   UNL     1       3.869   2.196   1.298  0.00  0.00    -0.272 OA
ATOM      3  N   UNL     1       4.409   3.466   3.035  0.00  0.00    -0.206 N 
ATOM      4  H   UNL     1       4.331   4.320   3.488  0.00  0.00    +0.177 HD
ENDROOT
BRANCH   3   5
ATOM      5  N   UNL     1       5.184   2.443   3.597  0.00  0.00    -0.188 NA
ATOM      6  C   UNL     1       5.798   2.639   4.724  0.00  0.00    +0.138 C 
BRANCH   6   7
ATOM      7  C   UNL     1       6.613   1.562   5.315  0.00  0.00    -0.001 A 
ATOM      8  C   UNL     1       7.280   1.772   6.525  0.00  0.00    +0.059 A 
ATOM      9  C   UNL     1       8.038   0.758   7.078  0.00  0.00    +0.163 A 
ATOM     10  C   UNL     1       8.148  -0.467   6.423  0.00  0.00    +0.173 A 
ATOM     11  C   UNL     1       7.491  -0.675   5.219  0.00  0.00    +0.063 A 
ATOM     12  C   UNL     1       6.727   0.331   4.664  0.00  0.00    +0.028 A 
ATOM     13 BR   UNL     1       7.643  -2.340   4.336  0.00  0.00    -0.046 Br
BRANCH  10  14
ATOM     14  O   UNL     1       8.899  -1.461   6.966  0.00  0.00    -0.503 OA
ATOM     15  H   UNL     1       9.825  -1.453   6.686  0.00  0.00    +0.292 HD
ENDBRANCH  10  14
BRANCH   9  16
ATOM     16  O   UNL     1       8.683   0.958   8.259  0.00  0.00    -0.491 OA
ATOM     17  C   UNL     1       8.527   2.237   8.875  0.00  0.00    +0.277 C 
ENDBRANCH   9  16
ENDBRANCH   6   7
ENDBRANCH   3   5
BRANCH   1  18
ATOM     18  C   UNL     1       2.938   4.364   1.261  0.00  0.00    +0.228 C 
BRANCH  18  19
ATOM     19  N   UNL     1       2.354   3.899   0.000  0.00  0.00    -0.195 N 
BRANCH  19  25
ATOM     20  C   UNL     1      -2.561   3.862   0.047  0.00  0.00    +0.044 C 
ATOM     21  C   UNL     1      -1.243   3.133   0.031  0.00  0.00    -0.048 A 
ATOM     22  C   UNL     1      -1.220   1.751   0.017  0.00  0.00    +0.007 A 
ATOM     23  C   UNL     1      -0.013   1.076   0.008  0.00  0.00    +0.048 A 
ATOM     24  C   UNL     1       1.177   1.784   0.000  0.00  0.00    +0.143 A 
ATOM     25  C   UNL     1       1.155   3.177   0.008  0.00  0.00    +0.093 A 
ATOM     26  C   UNL     1      -0.060   3.848   0.023  0.00  0.00    +0.031 A 
BRANCH  24  27
ATOM     27  O   UNL     1       2.365   1.122  -0.015  0.00  0.00    -0.493 OA
ATOM     28  C   UNL     1       2.312  -0.306  -0.023  0.00  0.00    +0.277 C 
ENDBRANCH  24  27
ENDBRANCH  19  25
BRANCH  19  29
ATOM     29  S   UNL     1       3.114   4.226  -1.435  0.00  0.00    +0.043 S 
ATOM     30  O   UNL     1       4.485   4.376  -1.093  0.00  0.00    -0.155 OA
ATOM     31  O   UNL     1       2.696   3.189  -2.311  0.00  0.00    -0.155 OA
ATOM     32  C   UNL     1       2.427   5.815  -1.974  0.00  0.00    +0.218 C 
ENDBRANCH  19  29
ENDBRANCH  18  19
ENDBRANCH   1  18
TORSDOF 9
