REMARK  Name = ZINC27579750
REMARK  11 active torsions:
REMARK  status: ('A' for Active; 'I' for Inactive)
REMARK    1  A    between atoms: C_1  and  C_2
REMARK    2  A    between atoms: C_4  and  C_25
REMARK    3  A    between atoms: C_6  and  O_8
REMARK    4  A    between atoms: O_8  and  C_9
REMARK    5  A    between atoms: C_9  and  C_11
REMARK    6  A    between atoms: C_9  and  C_12
REMARK    7  A    between atoms: N_14  and  C_15
REMARK    8  A    between atoms: C_15  and  C_16
REMARK    9  A    between atoms: C_16  and  N_22
REMARK   10  A    between atoms: N_22  and  C_23
REMARK   11  A    between atoms: N_22  and  C_24
REMARK                            x       y       z     vdW  Elec       q    Type
REMARK                         _______ _______ _______ _____ _____    ______ ____
ROOT
ATOM      1  C   UNL     1      -1.371   4.871   2.473  0.00  0.00    +0.253 C 
ATOM      2  O   UNL     1      -0.925   5.688   1.695  0.00  0.00    -0.272 OA
ATOM      3  N   UNL     1      -1.258   3.554   2.206  0.00  0.00    -0.314 N 
ATOM      4  H   UNL     1      -1.663   2.813   2.911  0.00  0.00    +0.149 HD
ENDROOT
BRANCH   1   5
ATOM      5  C   UNL     1      -2.053   5.327   3.737  0.00  0.00    +0.255 C 
ATOM      6  C   UNL     1      -1.237   4.872   4.949  0.00  0.00    +0.062 C 
BRANCH   5   7
ATOM      7  O   UNL     1      -2.151   6.753   3.737  0.00  0.00    -0.480 OA
BRANCH   7  13
ATOM      8  C   UNL     1      -5.801   6.184   6.927  0.00  0.00    +0.044 C 
ATOM      9  C   UNL     1      -4.945   7.059   6.047  0.00  0.00    -0.047 A 
ATOM     10  C   UNL     1      -5.171   8.422   5.998  0.00  0.00    +0.007 A 
ATOM     11  C   UNL     1      -4.388   9.226   5.192  0.00  0.00    -0.047 A 
ATOM     12  C   UNL     1      -3.376   8.670   4.433  0.00  0.00    +0.049 A 
ATOM     13  C   UNL     1      -3.146   7.303   4.482  0.00  0.00    +0.122 A 
ATOM     14  C   UNL     1      -3.938   6.497   5.287  0.00  0.00    +0.049 A 
ATOM     15  C   UNL     1      -4.638  10.711   5.140  0.00  0.00    +0.044 C 
ENDBRANCH   7  13
ENDBRANCH   5   7
ENDBRANCH   1   5
BRANCH   3  16
ATOM     16  C   UNL     1      -0.595   3.111   0.977  0.00  0.00    +0.092 C 
BRANCH  16  17
ATOM     17  C   UNL     1      -0.491   1.584   0.977  0.00  0.00    -0.050 C 
ATOM     18  C   UNL     1       0.316   1.128  -0.241  0.00  0.00    -0.010 C 
ATOM     19  C   UNL     1      -0.385   1.592  -1.520  0.00  0.00    -0.001 C 
ATOM     20  C   UNL     1      -1.788   0.986  -1.582  0.00  0.00    -0.000 C 
ATOM     21  C   UNL     1      -2.595   1.442  -0.364  0.00  0.00    -0.001 C 
ATOM     22  C   UNL     1      -1.894   0.977   0.915  0.00  0.00    -0.010 C 
BRANCH  17  23
ATOM     23  N   UNL     1       0.181   1.139   2.204  0.00  0.00    +0.381 N 
ATOM     24  C   UNL     1       0.217  -0.328   2.282  0.00  0.00    -0.096 C 
ATOM     25  C   UNL     1       1.534   1.704   2.299  0.00  0.00    -0.096 C 
ATOM     26  H   UNL     1      -0.400   1.509   3.061  0.00  0.00    -0.082 HD
ENDBRANCH  17  23
ENDBRANCH  16  17
ENDBRANCH   3  16
TORSDOF 6
