REMARK  Name = ZINC16743568
REMARK  5 active torsions:
REMARK  status: ('A' for Active; 'I' for Inactive)
REMARK    1  A    between atoms: C_9  and  S_11
REMARK    2  A    between atoms: S_11  and  C_12
REMARK    3  A    between atoms: C_12  and  C_13
REMARK    4  A    between atoms: C_22  and  S_24
REMARK    5  A    between atoms: S_24  and  N_27
REMARK                            x       y       z     vdW  Elec       q    Type
REMARK                         _______ _______ _______ _____ _____    ______ ____
ROOT
ATOM      1  C   UNL     1      -0.387   1.342   2.462  0.00  0.00    +0.230 C 
ATOM      2  O   UNL     1      -1.055   1.795   3.368  0.00  0.00    -0.274 OA
ATOM      3  N   UNL     1      -0.738   1.578   1.182  0.00  0.00    -0.270 N 
ATOM      4  C   UNL     1      -0.013   1.086   0.008  0.00  0.00    +0.118 C 
ATOM      5  C   UNL     1      -0.797   1.615  -1.204  0.00  0.00    +0.056 C 
ATOM      6  C   UNL     1      -1.947   2.393  -0.603  0.00  0.00    -0.023 A 
ATOM      7  C   UNL     1      -1.849   2.327   0.778  0.00  0.00    +0.040 A 
ATOM      8  C   UNL     1      -2.809   2.976   1.556  0.00  0.00    +0.026 A 
ATOM      9  C   UNL     1      -3.839   3.670   0.955  0.00  0.00    +0.030 A 
ATOM     10  C   UNL     1      -3.927   3.729  -0.423  0.00  0.00    +0.105 A 
ATOM     11  C   UNL     1      -2.979   3.089  -1.201  0.00  0.00    +0.034 A 
ENDROOT
BRANCH  10  12
ATOM     12  S   UNL     1      -5.243   4.617  -1.187  0.00  0.00    +0.056 S 
ATOM     13  O   UNL     1      -5.686   5.580  -0.241  0.00  0.00    -0.153 OA
ATOM     14  O   UNL     1      -4.791   4.976  -2.485  0.00  0.00    -0.153 OA
BRANCH  12  15
ATOM     15  N   UNL     1      -6.494   3.552  -1.399  0.00  0.00    -0.204 NA
ATOM     16  H   UNL     1      -6.399   2.630  -1.114  0.00  0.00    +0.144 HD
ATOM     17  H   UNL     1      -7.320   3.851  -1.809  0.00  0.00    +0.144 HD
ENDBRANCH  12  15
ENDBRANCH  10  12
BRANCH   1  18
ATOM     18  C   UNL     1       0.837   0.517   2.768  0.00  0.00    +0.172 C 
BRANCH  18  19
ATOM     19  S   UNL     1       1.040   0.382   4.561  0.00  0.00    -0.097 S 
BRANCH  19  28
ATOM     20  C   UNL     1       6.480  -3.291   3.555  0.00  0.00    +0.001 A 
ATOM     21  C   UNL     1       5.909  -2.908   2.344  0.00  0.00    +0.002 A 
ATOM     22  C   UNL     1       4.781  -2.147   2.309  0.00  0.00    +0.028 A 
ATOM     23  C   UNL     1       4.178  -1.739   3.511  0.00  0.00    +0.072 A 
ATOM     24  C   UNL     1       4.760  -2.130   4.742  0.00  0.00    +0.000 A 
ATOM     25  C   UNL     1       5.923  -2.914   4.740  0.00  0.00    +0.010 A 
ATOM     26  C   UNL     1       4.155  -1.720   5.948  0.00  0.00    +0.012 A 
ATOM     27  C   UNL     1       3.031  -0.954   5.880  0.00  0.00    +0.035 A 
ATOM     28  C   UNL     1       2.499  -0.604   4.630  0.00  0.00    +0.098 A 
ATOM     29  N   UNL     1       3.069  -0.990   3.506  0.00  0.00    -0.240 NA
ENDBRANCH  19  28
ENDBRANCH  18  19
ENDBRANCH   1  18
TORSDOF 5
