REMARK  Name = ZINC39421913
REMARK  10 active torsions:
REMARK  status: ('A' for Active; 'I' for Inactive)
REMARK    1  A    between atoms: C_1  and  C_2
REMARK    2  A    between atoms: C_2  and  O_3
REMARK    3  A    between atoms: O_3  and  C_4
REMARK    4  A    between atoms: C_4  and  C_6
REMARK    5  A    between atoms: C_8  and  C_33
REMARK    6  A    between atoms: C_12  and  C_16
REMARK    7  A    between atoms: C_16  and  C_18
REMARK    8  A    between atoms: C_16  and  S_19
REMARK    9  A    between atoms: S_19  and  C_20
REMARK   10  A    between atoms: N_30  and  C_31
REMARK                            x       y       z     vdW  Elec       q    Type
REMARK                         _______ _______ _______ _____ _____    ______ ____
ROOT
ATOM      1  C   UNL     1       1.468  -2.353  -2.550  0.00  0.00    +0.188 C 
ATOM      2  C   UNL     1       2.051  -3.718  -2.260  0.00  0.00    -0.034 C 
ATOM      3  C   UNL     1       1.589  -4.758  -2.969  0.00  0.00    +0.071 C 
ATOM      4  C   UNL     1       0.543  -4.489  -3.979  0.00  0.00    +0.112 C 
ATOM      5  N   UNL     1       0.051  -5.465  -4.705  0.00  0.00    -0.226 NA
ATOM      6  C   UNL     1       0.470  -6.712  -4.558  0.00  0.00    +0.137 C 
ATOM      7  N   UNL     1       1.391  -7.068  -3.695  0.00  0.00    -0.160 NA
ATOM      8  C   UNL     1       1.994  -6.197  -2.879  0.00  0.00    +0.271 C 
ATOM      9  O   UNL     1       2.847  -6.562  -2.088  0.00  0.00    -0.268 OA
ATOM     10  S   UNL     1       0.257  -2.739  -3.878  0.00  0.00    -0.086 S 
ATOM     11  C   UNL     1       3.117  -3.902  -1.211  0.00  0.00    +0.041 C 
ENDROOT
BRANCH   1  12
ATOM     12  C   UNL     1       0.775  -1.794  -1.334  0.00  0.00    +0.325 C 
ATOM     13  O   UNL     1       0.314  -2.540  -0.504  0.00  0.00    -0.249 OA
BRANCH  12  14
ATOM     14  O   UNL     1       0.671  -0.465  -1.174  0.00  0.00    -0.464 OA
BRANCH  14  16
ATOM     15  C   UNL     1      -0.019   1.526   0.010  0.00  0.00    +0.048 C 
ATOM     16  C   UNL     1       0.002  -0.004   0.002  0.00  0.00    +0.229 C 
ENDBRANCH  14  16
ENDBRANCH  12  14
ENDBRANCH   1  12
BRANCH   6  17
ATOM     17  C   UNL     1      -0.143  -7.779  -5.428  0.00  0.00    +0.116 C 
ATOM     18  C   UNL     1      -1.293  -8.451  -4.676  0.00  0.00    +0.027 C 
BRANCH  17  19
ATOM     19  S   UNL     1       1.115  -9.018  -5.843  0.00  0.00    -0.077 S 
BRANCH  19  20
ATOM     20  C   UNL     1       0.294 -10.099  -6.967  0.00  0.00    +0.173 A 
ATOM     21  N   UNL     1      -0.952  -9.844  -7.281  0.00  0.00    -0.223 NA
ATOM     22  C   UNL     1      -1.641 -10.628  -8.134  0.00  0.00    +0.079 A 
ATOM     23  C   UNL     1      -2.970 -10.356  -8.470  0.00  0.00    +0.028 A 
ATOM     24  C   UNL     1      -3.630 -11.178  -9.340  0.00  0.00    +0.002 A 
ATOM     25  C   UNL     1      -2.999 -12.283  -9.897  0.00  0.00    +0.001 A 
ATOM     26  C   UNL     1      -1.700 -12.575  -9.588  0.00  0.00    +0.015 A 
ATOM     27  C   UNL     1      -1.002 -11.754  -8.704  0.00  0.00    +0.065 A 
ATOM     28  C   UNL     1       0.395 -12.019  -8.336  0.00  0.00    +0.262 A 
ATOM     29  O   UNL     1       0.999 -12.972  -8.794  0.00  0.00    -0.267 OA
ATOM     30  N   UNL     1       0.988 -11.160  -7.474  0.00  0.00    -0.290 N 
ATOM     31  C   UNL     1       2.382 -11.373  -7.078  0.00  0.00    +0.154 C 
ENDBRANCH  19  20
ENDBRANCH  17  19
ENDBRANCH   6  17
TORSDOF 6
