REMARK  Name = ZINC50510144
REMARK  10 active torsions:
REMARK  status: ('A' for Active; 'I' for Inactive)
REMARK    1  A    between atoms: C_1  and  C_2
REMARK    2  A    between atoms: C_2  and  C_3
REMARK    3  A    between atoms: C_6  and  C_15
REMARK    4  A    between atoms: C_13  and  O_14
REMARK    5  A    between atoms: C_15  and  N_16
REMARK    6  A    between atoms: N_16  and  C_17
REMARK    7  A    between atoms: C_17  and  C_19
REMARK    8  A    between atoms: C_17  and  C_20
REMARK    9  A    between atoms: C_23  and  O_27
REMARK   10  A    between atoms: O_27  and  C_28
REMARK                            x       y       z     vdW  Elec       q    Type
REMARK                         _______ _______ _______ _____ _____    ______ ____
ROOT
ATOM      1  C   UNL     1       0.707  -0.490  -1.238  0.00  0.00    -0.005 A 
ATOM      2  C   UNL     1       2.008  -0.898  -1.162  0.00  0.00    +0.019 A 
ATOM      3  C   UNL     1       2.663  -1.349  -2.313  0.00  0.00    +0.019 A 
ATOM      4  C   UNL     1       4.057  -1.794  -2.262  0.00  0.00    -0.047 A 
ATOM      5  C   UNL     1       4.637  -2.221  -3.414  0.00  0.00    +0.094 A 
ATOM      6  C   UNL     1       3.895  -2.227  -4.613  0.00  0.00    +0.337 A 
ATOM      7  O   UNL     1       4.428  -2.613  -5.638  0.00  0.00    -0.245 OA
ATOM      8  O   UNL     1       2.617  -1.819  -4.653  0.00  0.00    -0.422 OA
ATOM      9  C   UNL     1       1.982  -1.382  -3.545  0.00  0.00    +0.143 A 
ATOM     10  C   UNL     1       0.661  -0.963  -3.604  0.00  0.00    +0.092 A 
ATOM     11  C   UNL     1       0.026  -0.525  -2.453  0.00  0.00    +0.124 A 
ENDROOT
BRANCH   1  13
ATOM     12  C   UNL     1      -0.019   1.526   0.010  0.00  0.00    +0.009 C 
ATOM     13  C   UNL     1       0.002  -0.004   0.002  0.00  0.00    +0.035 C 
ENDBRANCH   1  13
BRANCH  11  14
ATOM     14  O   UNL     1      -1.268  -0.121  -2.510  0.00  0.00    -0.506 OA
ATOM     15  H   UNL     1      -1.379   0.820  -2.700  0.00  0.00    +0.292 HD
ENDBRANCH  11  14
BRANCH   4  16
ATOM     16  C   UNL     1       4.828  -1.777  -0.967  0.00  0.00    -0.045 C 
BRANCH  16  17
ATOM     17  N   UNL     1       5.402  -0.441  -0.756  0.00  0.00    +0.386 N 
ATOM     18  H   UNL     1       6.022  -0.216  -1.520  0.00  0.00    -0.085 HD
ATOM     19  H   UNL     1       4.659   0.241  -0.715  0.00  0.00    -0.085 HD
BRANCH  17  20
ATOM     20  C   UNL     1       6.153  -0.424   0.506  0.00  0.00    -0.044 C 
ATOM     21  C   UNL     1       7.353  -1.367   0.398  0.00  0.00    -0.009 C 
BRANCH  20  22
ATOM     22  C   UNL     1       6.637   0.975   0.784  0.00  0.00    -0.059 A 
ATOM     23  C   UNL     1       7.110   1.760  -0.251  0.00  0.00    +0.006 A 
ATOM     24  C   UNL     1       7.556   3.044  -0.000  0.00  0.00    +0.049 A 
ATOM     25  C   UNL     1       7.528   3.546   1.292  0.00  0.00    +0.155 A 
ATOM     26  C   UNL     1       7.052   2.757   2.331  0.00  0.00    +0.165 A 
ATOM     27  C   UNL     1       6.602   1.474   2.073  0.00  0.00    +0.044 A 
ATOM     28  F   UNL     1       7.023   3.243   3.591  0.00  0.00    -0.202 F 
BRANCH  25  29
ATOM     29  O   UNL     1       7.966   4.809   1.542  0.00  0.00    -0.492 OA
ATOM     30  C   UNL     1       8.442   5.563   0.425  0.00  0.00    +0.277 C 
ENDBRANCH  25  29
ENDBRANCH  20  22
ENDBRANCH  17  20
ENDBRANCH  16  17
ENDBRANCH   4  16
TORSDOF 7
