REMARK  Name = ZINC54477981
REMARK  7 active torsions:
REMARK  status: ('A' for Active; 'I' for Inactive)
REMARK    1  A    between atoms: C_1  and  C_2
REMARK    2  A    between atoms: C_2  and  C_3
REMARK    3  A    between atoms: C_3  and  C_5
REMARK    4  A    between atoms: C_3  and  N_6
REMARK    5  A    between atoms: C_7  and  C_9
REMARK    6  A    between atoms: C_12  and  N_15
REMARK    7  A    between atoms: C_26  and  C_28
REMARK                            x       y       z     vdW  Elec       q    Type
REMARK                         _______ _______ _______ _____ _____    ______ ____
ROOT
ATOM      1  C   UNL     1       4.843  -0.992  -2.095  0.00  0.00    +0.037 A 
ATOM      2  C   UNL     1       5.794  -1.352  -1.137  0.00  0.00    +0.015 A 
ATOM      3  C   UNL     1       7.029  -0.744  -1.132  0.00  0.00    +0.024 A 
ATOM      4  C   UNL     1       7.331   0.228  -2.080  0.00  0.00    +0.035 A 
ATOM      5  C   UNL     1       6.386   0.590  -3.035  0.00  0.00    +0.024 A 
ATOM      6  C   UNL     1       5.151  -0.018  -3.049  0.00  0.00    +0.015 A 
ENDROOT
BRANCH   4   7
ATOM      7  N   UNL     1       8.583   0.842  -2.073  0.00  0.00    -0.269 N 
ATOM      8  C   UNL     1       9.185   1.158  -3.237  0.00  0.00    +0.307 C 
ATOM      9  O   UNL     1       8.601   0.989  -4.289  0.00  0.00    -0.252 OA
ATOM     10  N   UNL     1      10.436   1.661  -3.233  0.00  0.00    -0.278 N 
ATOM     11  C   UNL     1      11.193   1.768  -1.977  0.00  0.00    +0.115 C 
ATOM     12  C   UNL     1      12.410   0.835  -2.067  0.00  0.00    +0.062 C 
ATOM     13  C   UNL     1      13.025   0.978  -3.421  0.00  0.00    -0.004 A 
ATOM     14  C   UNL     1      12.473   1.530  -4.536  0.00  0.00    -0.017 A 
ATOM     15  C   UNL     1      13.259   1.534  -5.687  0.00  0.00    +0.013 A 
ATOM     16  C   UNL     1      14.506   1.011  -5.657  0.00  0.00    +0.046 A 
ATOM     17  S   UNL     1      14.637   0.472  -3.959  0.00  0.00    -0.101 S 
ATOM     18  C   UNL     1      11.063   2.106  -4.485  0.00  0.00    +0.105 C 
ATOM     19  C   UNL     1      10.254   1.596  -5.679  0.00  0.00    +0.033 C 
ATOM     20  H   UNL     1       9.020   1.042  -1.231  0.00  0.00    +0.156 HD
ENDBRANCH   4   7
BRANCH   1  22
ATOM     21  N   UNL     1       3.223  -2.580  -1.182  0.00  0.00    -0.309 N 
ATOM     22  C   UNL     1       3.518  -1.642  -2.103  0.00  0.00    +0.244 C 
ATOM     23  O   UNL     1       2.693  -1.331  -2.940  0.00  0.00    -0.270 OA
ATOM     24  H   UNL     1       3.881  -2.829  -0.514  0.00  0.00    +0.149 HD
BRANCH  21  25
ATOM     25  C   UNL     1       1.907  -3.226  -1.190  0.00  0.00    +0.070 C 
ATOM     26  C   UNL     1       1.922  -4.401  -2.170  0.00  0.00    +0.028 C 
BRANCH  25  28
ATOM     27  C   UNL     1       1.444  -2.549   1.170  0.00  0.00    +0.005 C 
ATOM     28  C   UNL     1       1.581  -3.737   0.215  0.00  0.00    +0.018 C 
ENDBRANCH  25  28
ENDBRANCH  21  25
ENDBRANCH   1  22
TORSDOF 4
