REMARK  Name = ZINC36146075
REMARK  10 active torsions:
REMARK  status: ('A' for Active; 'I' for Inactive)
REMARK    1  A    between atoms: C_4  and  C_7
REMARK    2  A    between atoms: C_7  and  C_8
REMARK    3  A    between atoms: C_8  and  C_10
REMARK    4  A    between atoms: C_8  and  O_34
REMARK    5  A    between atoms: C_10  and  N_11
REMARK    6  A    between atoms: N_11  and  C_12
REMARK    7  A    between atoms: N_11  and  C_19
REMARK    8  A    between atoms: C_12  and  C_13
REMARK    9  A    between atoms: C_19  and  C_20
REMARK   10  A    between atoms: C_23  and  C_26
REMARK                            x       y       z     vdW  Elec       q    Type
REMARK                         _______ _______ _______ _____ _____    ______ ____
ROOT
ATOM      1  N   UNL     1       6.034  -2.141   2.856  0.00  0.00    +0.386 N 
ATOM      2  H   UNL     1       6.196  -1.425   3.549  0.00  0.00    -0.081 HD
ENDROOT
BRANCH   1   3
ATOM      3  C   UNL     1       5.755  -1.512   1.558  0.00  0.00    -0.046 C 
BRANCH   3   4
ATOM      4  C   UNL     1       4.590  -0.531   1.707  0.00  0.00    +0.102 C 
BRANCH   4   5
ATOM      5  O   UNL     1       4.976   0.539   2.571  0.00  0.00    -0.393 OA
ATOM      6  H   UNL     1       5.736   1.046   2.254  0.00  0.00    +0.210 HD
ENDBRANCH   4   5
BRANCH   4   7
ATOM      7  C   UNL     1       4.218   0.030   0.333  0.00  0.00    +0.064 C 
BRANCH   7  11
ATOM      8  C   UNL     1       0.748   2.497   0.693  0.00  0.00    +0.000 A 
ATOM      9  C   UNL     1       2.007   3.050   0.836  0.00  0.00    +0.000 A 
ATOM     10  C   UNL     1       3.130   2.251   0.720  0.00  0.00    +0.004 A 
ATOM     11  C   UNL     1       2.994   0.900   0.461  0.00  0.00    -0.045 A 
ATOM     12  C   UNL     1       1.735   0.347   0.319  0.00  0.00    +0.004 A 
ATOM     13  C   UNL     1       0.612   1.146   0.434  0.00  0.00    +0.000 A 
ENDBRANCH   7  11
ENDBRANCH   4   7
ENDBRANCH   3   4
ENDBRANCH   1   3
BRANCH   1  14
ATOM     14  C   UNL     1       4.884  -2.962   3.260  0.00  0.00    -0.043 C 
BRANCH  14  15
ATOM     15  C   UNL     1       4.614  -4.002   2.204  0.00  0.00    -0.064 A 
ATOM     16  C   UNL     1       3.789  -3.704   1.135  0.00  0.00    +0.002 A 
ATOM     17  C   UNL     1       3.541  -4.658   0.166  0.00  0.00    +0.000 A 
ATOM     18  C   UNL     1       4.118  -5.910   0.265  0.00  0.00    +0.000 A 
ATOM     19  C   UNL     1       4.944  -6.208   1.333  0.00  0.00    +0.000 A 
ATOM     20  C   UNL     1       5.196  -5.252   2.300  0.00  0.00    +0.002 A 
ENDBRANCH  14  15
ENDBRANCH   1  14
BRANCH   1  21
ATOM     21  C   UNL     1       7.226  -2.991   2.742  0.00  0.00    -0.030 C 
BRANCH  21  22
ATOM     22  C   UNL     1       7.650  -3.465   4.134  0.00  0.00    +0.194 C 
ATOM     23  C   UNL     1       8.905  -4.367   4.053  0.00  0.00    +0.104 C 
ATOM     24  C   UNL     1       8.626  -5.415   5.115  0.00  0.00    +0.091 C 
ATOM     25  N   UNL     1       7.373  -5.356   5.422  0.00  0.00    -0.089 NA
ATOM     26  O   UNL     1       6.673  -4.367   4.691  0.00  0.00    -0.392 OA
BRANCH  24  27
ATOM     27  C   UNL     1       9.616  -6.343   5.695  0.00  0.00    +0.001 A 
ATOM     28  C   UNL     1      10.947  -6.299   5.276  0.00  0.00    +0.011 A 
ATOM     29  C   UNL     1      11.869  -7.168   5.822  0.00  0.00    +0.022 A 
ATOM     30  C   UNL     1      11.476  -8.083   6.785  0.00  0.00    +0.059 A 
ATOM     31  C   UNL     1      10.157  -8.132   7.205  0.00  0.00    +0.060 A 
ATOM     32  C   UNL     1       9.227  -7.263   6.670  0.00  0.00    +0.031 A 
ATOM     33 CL   UNL     1       9.674  -9.282   8.413  0.00  0.00    -0.082 Cl
ATOM     34 CL   UNL     1      12.642  -9.174   7.467  0.00  0.00    -0.082 Cl
ENDBRANCH  24  27
ENDBRANCH  21  22
ENDBRANCH   1  21
TORSDOF 10
