REMARK  Name = ZINC63489750
REMARK  9 active torsions:
REMARK  status: ('A' for Active; 'I' for Inactive)
REMARK    1  A    between atoms: C_1  and  C_2
REMARK    2  A    between atoms: C_2  and  C_3
REMARK    3  A    between atoms: C_2  and  C_4
REMARK    4  A    between atoms: C_2  and  O_5
REMARK    5  A    between atoms: O_5  and  C_6
REMARK    6  A    between atoms: N_8  and  C_9
REMARK    7  A    between atoms: C_9  and  C_10
REMARK    8  A    between atoms: C_16  and  C_18
REMARK    9  A    between atoms: N_23  and  C_25
REMARK                            x       y       z     vdW  Elec       q    Type
REMARK                         _______ _______ _______ _____ _____    ______ ____
ROOT
ATOM      1  C   UNL     1       4.749  -0.546  -3.885  0.00  0.00    +0.094 C 
ATOM      2  C   UNL     1       6.094   0.186  -3.904  0.00  0.00    +0.024 C 
ATOM      3  C   UNL     1       6.785  -0.058  -5.248  0.00  0.00    +0.003 C 
ATOM      4  C   UNL     1       5.916   0.499  -6.378  0.00  0.00    +0.019 C 
ATOM      5  C   UNL     1       4.568  -0.230  -6.387  0.00  0.00    +0.108 C 
ATOM      6  N   UNL     1       3.963  -0.122  -5.053  0.00  0.00    -0.292 N 
ATOM      7  C   UNL     1       2.712   0.356  -4.902  0.00  0.00    +0.267 C 
ATOM      8  O   UNL     1       2.267   0.554  -3.788  0.00  0.00    -0.268 OA
ENDROOT
BRANCH   7   9
ATOM      9  C   UNL     1       1.881   0.640  -6.092  0.00  0.00    +0.146 A 
ATOM     10  C   UNL     1       0.648   1.320  -5.945  0.00  0.00    +0.040 A 
ATOM     11  C   UNL     1      -0.091   1.565  -7.064  0.00  0.00    +0.074 A 
ATOM     12  C   UNL     1       0.421   1.124  -8.305  0.00  0.00    +0.267 A 
ATOM     13  O   UNL     1      -0.205   1.321  -9.332  0.00  0.00    -0.266 OA
ATOM     14  N   UNL     1       1.605   0.484  -8.345  0.00  0.00    -0.232 N 
ATOM     15  N   UNL     1       2.292   0.266  -7.282  0.00  0.00    -0.164 NA
ATOM     16  C   UNL     1       2.127   0.031  -9.636  0.00  0.00    +0.176 C 
ENDBRANCH   7   9
BRANCH   1  17
ATOM     17  C   UNL     1       3.992  -0.194  -2.603  0.00  0.00    +0.130 C 
BRANCH  17  20
ATOM     18  C   UNL     1       2.095  -1.050  -1.335  0.00  0.00    +0.401 C 
ATOM     19  O   UNL     1       2.394  -0.292  -0.433  0.00  0.00    -0.226 OA
ATOM     20  N   UNL     1       2.831  -1.077  -2.463  0.00  0.00    -0.279 N 
ATOM     21  H   UNL     1       2.592  -1.682  -3.183  0.00  0.00    +0.152 HD
BRANCH  18  22
ATOM     22  O   UNL     1       1.029  -1.861  -1.206  0.00  0.00    -0.445 OA
BRANCH  22  24
ATOM     23  C   UNL     1      -0.247  -0.358   0.192  0.00  0.00    +0.055 C 
ATOM     24  C   UNL     1       0.294  -1.779   0.017  0.00  0.00    +0.107 C 
ATOM     25  C   UNL     1       1.215  -2.122   1.189  0.00  0.00    +0.055 C 
ATOM     26  C   UNL     1      -0.873  -2.768  -0.021  0.00  0.00    +0.055 C 
ENDBRANCH  22  24
ENDBRANCH  18  22
ENDBRANCH  17  20
ENDBRANCH   1  17
TORSDOF 5
