REMARK  Name = ZINC10048338
REMARK  9 active torsions:
REMARK  status: ('A' for Active; 'I' for Inactive)
REMARK    1  A    between atoms: C_1  and  C_2
REMARK    2  A    between atoms: N_9  and  C_10
REMARK    3  A    between atoms: N_16  and  C_35
REMARK    4  A    between atoms: N_19  and  C_22
REMARK    5  A    between atoms: C_22  and  C_23
REMARK    6  A    between atoms: C_23  and  C_25
REMARK    7  A    between atoms: C_23  and  C_26
REMARK    8  A    between atoms: C_26  and  N_27
REMARK    9  A    between atoms: N_27  and  C_28
REMARK                            x       y       z     vdW  Elec       q    Type
REMARK                         _______ _______ _______ _____ _____    ______ ____
ROOT
ATOM      1  C   UNL     1       3.607   0.663  -0.028  0.00  0.00    +0.065 C 
ATOM      2  C   UNL     1       2.100   0.660  -0.014  0.00  0.00    +0.040 A 
ATOM      3  C   UNL     1       1.323  -0.418  -0.013  0.00  0.00    +0.116 A 
ATOM      4  N   UNL     1       0.002  -0.004   0.002  0.00  0.00    -0.277 N 
ATOM      5  C   UNL     1      -1.319  -0.427   0.012  0.00  0.00    +0.157 A 
ATOM      6  C   UNL     1      -2.100   0.728   0.026  0.00  0.00    +0.170 A 
ATOM      7  N   UNL     1      -1.273   1.770   0.028  0.00  0.00    -0.193 NA
ATOM      8  C   UNL     1      -0.016   1.350   0.009  0.00  0.00    +0.223 A 
ATOM      9  N   UNL     1       1.287   1.779  -0.001  0.00  0.00    -0.283 N 
ATOM     10  N   UNL     1      -3.480   0.599   0.038  0.00  0.00    -0.279 N 
ATOM     11  C   UNL     1      -4.043  -0.624   0.038  0.00  0.00    +0.333 A 
ATOM     12  O   UNL     1      -5.255  -0.720   0.049  0.00  0.00    -0.246 OA
ATOM     13  N   UNL     1      -3.298  -1.743   0.025  0.00  0.00    -0.259 N 
ATOM     14  C   UNL     1      -1.950  -1.682   0.011  0.00  0.00    +0.283 A 
ATOM     15  O   UNL     1      -1.288  -2.704  -0.001  0.00  0.00    -0.265 OA
ATOM     16  C   UNL     1      -4.327   1.794   0.053  0.00  0.00    +0.155 C 
ENDROOT
BRANCH   9  17
ATOM     17  C   UNL     1       1.717   3.112   0.002  0.00  0.00    +0.050 A 
ATOM     18  C   UNL     1       1.442   3.933  -1.084  0.00  0.00    +0.026 A 
ATOM     19  C   UNL     1       1.862   5.249  -1.076  0.00  0.00    +0.002 A 
ATOM     20  C   UNL     1       2.567   5.745   0.006  0.00  0.00    +0.000 A 
ATOM     21  C   UNL     1       2.847   4.928   1.086  0.00  0.00    +0.002 A 
ATOM     22  C   UNL     1       2.424   3.613   1.087  0.00  0.00    +0.026 A 
ENDBRANCH   9  17
BRANCH  13  23
ATOM     23  C   UNL     1      -3.960  -3.050   0.024  0.00  0.00    +0.134 C 
BRANCH  23  24
ATOM     24  C   UNL     1      -4.204  -3.497  -1.419  0.00  0.00    +0.023 C 
ATOM     25  C   UNL     1      -5.194  -2.542  -2.088  0.00  0.00    +0.011 C 
BRANCH  24  26
ATOM     26  C   UNL     1      -4.781  -4.914  -1.423  0.00  0.00    +0.106 C 
BRANCH  26  27
ATOM     27  N   UNL     1      -4.903  -5.388  -2.804  0.00  0.00    -0.344 N 
ATOM     28  H   UNL     1      -4.632  -4.815  -3.538  0.00  0.00    +0.146 HD
BRANCH  27  29
ATOM     29  C   UNL     1      -5.410  -6.664  -3.062  0.00  0.00    +0.027 A 
ATOM     30  C   UNL     1      -5.792  -7.487  -2.011  0.00  0.00    +0.024 A 
ATOM     31  C   UNL     1      -6.298  -8.746  -2.270  0.00  0.00    +0.022 A 
ATOM     32  C   UNL     1      -6.413  -9.192  -3.575  0.00  0.00    +0.041 A 
ATOM     33  C   UNL     1      -6.027  -8.376  -4.624  0.00  0.00    +0.022 A 
ATOM     34  C   UNL     1      -5.526  -7.114  -4.371  0.00  0.00    +0.024 A 
ATOM     35 CL   UNL     1      -7.042 -10.778  -3.896  0.00  0.00    -0.084 Cl
ENDBRANCH  27  29
ENDBRANCH  26  27
ENDBRANCH  24  26
ENDBRANCH  23  24
ENDBRANCH  13  23
TORSDOF 6
