REMARK  Name = ZINC08751222
REMARK  12 active torsions:
REMARK  status: ('A' for Active; 'I' for Inactive)
REMARK    1  A    between atoms: C_1  and  C_2
REMARK    2  A    between atoms: C_2  and  O_3
REMARK    3  A    between atoms: O_3  and  C_4
REMARK    4  A    between atoms: C_4  and  C_6
REMARK    5  A    between atoms: C_6  and  C_7
REMARK    6  A    between atoms: C_10  and  S_18
REMARK    7  A    between atoms: N_11  and  C_12
REMARK    8  A    between atoms: C_12  and  C_13
REMARK    9  A    between atoms: S_18  and  C_19
REMARK   10  A    between atoms: C_19  and  C_20
REMARK   11  A    between atoms: C_26  and  C_32
REMARK   12  A    between atoms: C_27  and  C_31
REMARK                            x       y       z     vdW  Elec       q    Type
REMARK                         _______ _______ _______ _____ _____    ______ ____
ROOT
ATOM      1  C   UNL     1       1.202   1.745   0.000  0.00  0.00    +0.145 A 
ATOM      2  N   UNL     1      -0.015   1.281   0.009  0.00  0.00    -0.133 NA
ATOM      3  N   UNL     1       0.002  -0.004   0.002  0.00  0.00    -0.122 NA
ATOM      4  C   UNL     1       1.243  -0.433  -0.012  0.00  0.00    +0.192 A 
ATOM      5  N   UNL     1       2.047   0.670  -0.014  0.00  0.00    -0.298 N 
ENDROOT
BRANCH   1   6
ATOM      6  C   UNL     1       1.605   3.197   0.004  0.00  0.00    +0.196 C 
BRANCH   6   7
ATOM      7  C   UNL     1       1.753   3.674   1.425  0.00  0.00    +0.315 C 
ATOM      8  O   UNL     1       1.552   2.913   2.342  0.00  0.00    -0.250 OA
BRANCH   7   9
ATOM      9  O   UNL     1       2.107   4.945   1.674  0.00  0.00    -0.465 OA
BRANCH   9  11
ATOM     10  C   UNL     1       2.640   6.806   3.151  0.00  0.00    +0.048 C 
ATOM     11  C   UNL     1       2.231   5.334   3.067  0.00  0.00    +0.229 C 
ENDBRANCH   9  11
ENDBRANCH   7   9
ENDBRANCH   6   7
ENDBRANCH   1   6
BRANCH   5  12
ATOM     12  C   UNL     1       3.512   0.696  -0.028  0.00  0.00    +0.199 C 
BRANCH  12  13
ATOM     13  C   UNL     1       4.001   0.714  -1.453  0.00  0.00    +0.125 A 
ATOM     14  C   UNL     1       4.231   1.814  -2.192  0.00  0.00    +0.046 A 
ATOM     15  C   UNL     1       4.678   1.370  -3.459  0.00  0.00    +0.041 A 
ATOM     16  C   UNL     1       4.686   0.025  -3.420  0.00  0.00    +0.195 A 
ATOM     17  O   UNL     1       4.275  -0.366  -2.203  0.00  0.00    -0.466 OA
ENDBRANCH  12  13
ENDBRANCH   5  12
BRANCH   4  18
ATOM     18  S   UNL     1       1.770  -2.114  -0.026  0.00  0.00    -0.078 S 
BRANCH  18  19
ATOM     19  C   UNL     1       0.163  -2.948  -0.015  0.00  0.00    +0.151 C 
BRANCH  19  20
ATOM     20  C   UNL     1       0.371  -4.440  -0.025  0.00  0.00    +0.121 A 
ATOM     21  N   UNL     1      -0.708  -5.264  -0.013  0.00  0.00    -0.310 N 
ATOM     22  H   UNL     1      -1.599  -4.880   0.001  0.00  0.00    +0.170 HD
ATOM     23  C   UNL     1      -0.568  -6.603  -0.028  0.00  0.00    +0.260 A 
ATOM     24  O   UNL     1      -1.547  -7.328  -0.022  0.00  0.00    -0.267 OA
ATOM     25  C   UNL     1       0.752  -7.161  -0.042  0.00  0.00    +0.075 A 
ATOM     26  C   UNL     1       1.163  -8.553  -0.053  0.00  0.00    -0.026 A 
ATOM     27  C   UNL     1       2.472  -8.850  -0.067  0.00  0.00    -0.008 A 
ATOM     28  S   UNL     1       3.258  -7.249  -0.066  0.00  0.00    -0.073 S 
ATOM     29  C   UNL     1       1.806  -6.230  -0.047  0.00  0.00    +0.116 A 
ATOM     30  N   UNL     1       1.586  -4.918  -0.038  0.00  0.00    -0.226 NA
ATOM     31  C   UNL     1       3.121 -10.209  -0.080  0.00  0.00    +0.052 C 
ATOM     32  C   UNL     1       0.132  -9.652  -0.049  0.00  0.00    +0.045 C 
ENDBRANCH  19  20
ENDBRANCH  18  19
ENDBRANCH   4  18
TORSDOF 9
