REMARK  Name = ZINC64045430
REMARK  6 active torsions:
REMARK  status: ('A' for Active; 'I' for Inactive)
REMARK    1  A    between atoms: C_1  and  C_2
REMARK    2  A    between atoms: C_2  and  C_15
REMARK    3  A    between atoms: N_5  and  C_9
REMARK    4  A    between atoms: C_9  and  C_10
REMARK    5  A    between atoms: N_18  and  C_21
REMARK    6  A    between atoms: C_21  and  C_22
REMARK                            x       y       z     vdW  Elec       q    Type
REMARK                         _______ _______ _______ _____ _____    ______ ____
ROOT
ATOM      1  C   UNL     1       0.857  -0.265  -1.185  0.00  0.00    +0.018 C 
ATOM      2  C   UNL     1      -0.065  -0.013  -2.382  0.00  0.00    -0.013 C 
ATOM      3  C   UNL     1       0.600  -0.547  -3.652  0.00  0.00    -0.078 C 
ATOM      4  N   UNL     1       1.880   0.139  -3.865  0.00  0.00    +0.381 N 
ATOM      5  C   UNL     1       2.795  -0.157  -2.756  0.00  0.00    -0.078 C 
ATOM      6  C   UNL     1       2.214   0.393  -1.451  0.00  0.00    -0.013 C 
ATOM      7  H   UNL     1       1.723   1.135  -3.913  0.00  0.00    -0.082 HD
ENDROOT
BRANCH   1   9
ATOM      8  C   UNL     1       0.160   1.861  -0.037  0.00  0.00    +0.042 C 
ATOM      9  C   UNL     1       0.234   0.337   0.076  0.00  0.00    +0.112 C 
ATOM     10  C   UNL     1      -1.142  -0.247   0.326  0.00  0.00    +0.247 C 
ATOM     11  O   UNL     1      -2.111  -0.173  -0.398  0.00  0.00    -0.273 OA
ATOM     12  N   UNL     1      -1.063  -0.865   1.521  0.00  0.00    -0.220 N 
ATOM     13  C   UNL     1       0.158  -0.754   2.055  0.00  0.00    +0.310 C 
ATOM     14  O   UNL     1       0.472  -1.230   3.128  0.00  0.00    -0.252 OA
ATOM     15  N   UNL     1       1.000  -0.057   1.271  0.00  0.00    -0.285 N 
ATOM     16  H   UNL     1       1.931   0.146   1.456  0.00  0.00    +0.151 HD
BRANCH  12  17
ATOM     17  C   UNL     1      -2.179  -1.571   2.158  0.00  0.00    +0.153 C 
BRANCH  17  18
ATOM     18  C   UNL     1      -2.170  -3.015   1.728  0.00  0.00    -0.023 A 
ATOM     19  C   UNL     1      -2.861  -3.416   0.600  0.00  0.00    +0.013 A 
ATOM     20  C   UNL     1      -2.832  -4.723   0.241  0.00  0.00    +0.045 A 
ATOM     21  S   UNL     1      -1.805  -5.434   1.517  0.00  0.00    -0.105 S 
ATOM     22  C   UNL     1      -1.479  -3.940   2.439  0.00  0.00    +0.050 A 
ENDBRANCH  17  18
ENDBRANCH  12  17
ENDBRANCH   1   9
BRANCH   4  23
ATOM     23  C   UNL     1       2.478  -0.321  -5.126  0.00  0.00    -0.050 C 
BRANCH  23  24
ATOM     24  C   UNL     1       1.598   0.121  -6.298  0.00  0.00    +0.086 C 
ATOM     25  C   UNL     1       2.286  -0.185  -7.609  0.00  0.00    +0.005 C 
ATOM     26  C   UNL     1       2.454   1.005  -8.231  0.00  0.00    -0.004 A 
ATOM     27  C   UNL     1       3.050   1.378  -9.519  0.00  0.00    +0.010 A 
ATOM     28  C   UNL     1       3.074   2.682  -9.877  0.00  0.00    +0.001 A 
ATOM     29  C   UNL     1       2.546   3.683  -9.051  0.00  0.00    +0.002 A 
ATOM     30  C   UNL     1       1.982   3.418  -7.854  0.00  0.00    +0.026 A 
ATOM     31  C   UNL     1       1.903   2.081  -7.377  0.00  0.00    +0.043 A 
ATOM     32  N   UNL     1       1.411   1.576  -6.269  0.00  0.00    -0.380 N 
ATOM     33  H   UNL     1       0.995   2.079  -5.552  0.00  0.00    +0.160 HD
ENDBRANCH  23  24
ENDBRANCH   4  23
TORSDOF 5
