REMARK  Name = ZINC39575552
REMARK  11 active torsions:
REMARK  status: ('A' for Active; 'I' for Inactive)
REMARK    1  A    between atoms: C_1  and  C_2
REMARK    2  A    between atoms: C_2  and  C_3
REMARK    3  A    between atoms: N_11  and  C_15
REMARK    4  A    between atoms: C_15  and  C_16
REMARK    5  A    between atoms: C_16  and  O_18
REMARK    6  A    between atoms: O_18  and  C_19
REMARK    7  A    between atoms: C_19  and  C_20
REMARK    8  A    between atoms: C_23  and  C_25
REMARK    9  A    between atoms: C_25  and  C_26
REMARK   10  A    between atoms: N_28  and  C_29
REMARK   11  A    between atoms: C_32  and  C_35
REMARK                            x       y       z     vdW  Elec       q    Type
REMARK                         _______ _______ _______ _____ _____    ______ ____
ROOT
ATOM      1  O   UNL     1      -3.722  -4.100  -6.650  0.00  0.00    -0.457 OA
ENDROOT
BRANCH   1   2
ATOM      2  C   UNL     1      -2.619  -3.532  -6.138  0.00  0.00    +0.326 C 
ATOM      3  O   UNL     1      -2.368  -2.375  -6.378  0.00  0.00    -0.249 OA
BRANCH   2   4
ATOM      4  C   UNL     1      -1.695  -4.338  -5.261  0.00  0.00    +0.238 C 
BRANCH   4  13
ATOM      5  C   UNL     1       0.682  -0.478  -1.230  0.00  0.00    -0.011 C 
ATOM      6  C   UNL     1      -0.126  -0.077  -2.466  0.00  0.00    +0.006 C 
ATOM      7  C   UNL     1       0.603  -0.551  -3.727  0.00  0.00    +0.035 C 
ATOM      8  C   UNL     1       0.773  -2.066  -3.679  0.00  0.00    +0.113 C 
ATOM      9  C   UNL     1       1.555  -2.483  -2.439  0.00  0.00    +0.035 C 
ATOM     10  C   UNL     1       0.823  -2.001  -1.184  0.00  0.00    +0.006 C 
ATOM     11  C   UNL     1      -0.575  -2.749  -3.709  0.00  0.00    +0.247 C 
ATOM     12  O   UNL     1      -1.467  -2.647  -2.895  0.00  0.00    -0.273 OA
ATOM     13  N   UNL     1      -0.574  -3.498  -4.832  0.00  0.00    -0.213 N 
ATOM     14  C   UNL     1       0.577  -3.378  -5.504  0.00  0.00    +0.310 C 
ATOM     15  O   UNL     1       0.814  -3.956  -6.546  0.00  0.00    -0.252 OA
ATOM     16  N   UNL     1       1.443  -2.545  -4.895  0.00  0.00    -0.285 N 
ATOM     17  H   UNL     1       2.333  -2.309  -5.199  0.00  0.00    +0.151 HD
BRANCH   5  19
ATOM     18  C   UNL     1      -0.069   1.536   0.043  0.00  0.00    +0.004 C 
ATOM     19  C   UNL     1      -0.039   0.006   0.029  0.00  0.00    -0.000 C 
ENDBRANCH   5  19
ENDBRANCH   4  13
ENDBRANCH   2   4
ENDBRANCH   1   2
BRANCH   1  20
ATOM     20  C   UNL     1      -4.553  -3.277  -7.472  0.00  0.00    +0.288 C 
BRANCH  20  21
ATOM     21  C   UNL     1      -5.734  -4.080  -7.954  0.00  0.00    +0.086 A 
ATOM     22  C   UNL     1      -5.901  -5.380  -7.602  0.00  0.00    +0.073 A 
ATOM     23  S   UNL     1      -7.423  -5.760  -8.454  0.00  0.00    -0.080 S 
ATOM     24  C   UNL     1      -7.679  -4.250  -9.153  0.00  0.00    +0.087 A 
ATOM     25  N   UNL     1      -6.657  -3.549  -8.732  0.00  0.00    -0.245 NA
BRANCH  24  26
ATOM     26  C   UNL     1      -8.813  -3.811 -10.043  0.00  0.00    +0.159 C 
BRANCH  26  27
ATOM     27  C   UNL     1      -8.451  -4.069 -11.483  0.00  0.00    +0.224 C 
ATOM     28  O   UNL     1      -7.378  -4.562 -11.759  0.00  0.00    -0.275 OA
ATOM     29  N   UNL     1      -9.320  -3.753 -12.463  0.00  0.00    -0.285 N 
ATOM     30  H   UNL     1     -10.204  -3.422 -12.240  0.00  0.00    +0.155 HD
BRANCH  29  31
ATOM     31  C   UNL     1      -8.947  -3.902 -13.804  0.00  0.00    +0.033 A 
ATOM     32  C   UNL     1      -9.399  -2.999 -14.757  0.00  0.00    +0.023 A 
ATOM     33  C   UNL     1      -9.030  -3.149 -16.079  0.00  0.00    +0.005 A 
ATOM     34  C   UNL     1      -8.210  -4.198 -16.454  0.00  0.00    -0.050 A 
ATOM     35  C   UNL     1      -7.758  -5.099 -15.508  0.00  0.00    +0.005 A 
ATOM     36  C   UNL     1      -8.120  -4.951 -14.183  0.00  0.00    +0.023 A 
ATOM     37  C   UNL     1      -7.808  -4.359 -17.898  0.00  0.00    +0.044 C 
ENDBRANCH  29  31
ENDBRANCH  26  27
ENDBRANCH  24  26
ENDBRANCH  20  21
ENDBRANCH   1  20
TORSDOF 9
