REMARK  Name = ZINC64131695
REMARK  6 active torsions:
REMARK  status: ('A' for Active; 'I' for Inactive)
REMARK    1  A    between atoms: C_6  and  C_11
REMARK    2  A    between atoms: C_11  and  N_12
REMARK    3  A    between atoms: C_13  and  C_15
REMARK    4  A    between atoms: C_15  and  C_16
REMARK    5  A    between atoms: N_23  and  C_24
REMARK    6  A    between atoms: C_24  and  C_25
REMARK                            x       y       z     vdW  Elec       q    Type
REMARK                         _______ _______ _______ _____ _____    ______ ____
ROOT
ATOM      1  C   UNL     1       7.937  -3.886   3.592  0.00  0.00    +0.028 C 
ATOM      2  C   UNL     1       9.432  -3.743   3.558  0.00  0.00    +0.200 C 
ATOM      3  O   UNL     1      10.006  -3.893   2.500  0.00  0.00    -0.278 OA
ATOM      4  N   UNL     1      10.156  -3.455   4.646  0.00  0.00    -0.318 N 
ATOM      5  C   UNL     1       9.551  -3.229   5.956  0.00  0.00    +0.085 C 
ATOM      6  C   UNL     1       8.126  -3.785   5.974  0.00  0.00    -0.058 C 
ATOM      7  N   UNL     1       7.400  -3.260   4.808  0.00  0.00    +0.391 N 
ATOM      8  H   UNL     1      11.120  -3.395   4.561  0.00  0.00    +0.149 HD
ATOM      9  H   UNL     1       7.521  -2.260   4.755  0.00  0.00    -0.080 HD
ENDROOT
BRANCH   1  10
ATOM     10  C   UNL     1       7.333  -3.205   2.363  0.00  0.00    +0.089 C 
BRANCH  10  12
ATOM     11  N   UNL     1       7.259  -0.931   1.392  0.00  0.00    -0.313 N 
ATOM     12  C   UNL     1       7.764  -1.761   2.326  0.00  0.00    +0.212 C 
ATOM     13  O   UNL     1       8.565  -1.346   3.137  0.00  0.00    -0.276 OA
ATOM     14  H   UNL     1       6.618  -1.263   0.744  0.00  0.00    +0.149 HD
BRANCH  11  15
ATOM     15  C   UNL     1       7.677   0.473   1.356  0.00  0.00    +0.132 C 
BRANCH  15  21
ATOM     16  C   UNL     1       9.100   3.396  -3.269  0.00  0.00    +0.001 A 
ATOM     17  C   UNL     1       8.881   2.144  -3.860  0.00  0.00    +0.002 A 
ATOM     18  C   UNL     1       8.268   1.130  -3.214  0.00  0.00    +0.026 A 
ATOM     19  C   UNL     1       7.811   1.300  -1.879  0.00  0.00    +0.043 A 
ATOM     20  N   UNL     1       7.199   0.485  -1.054  0.00  0.00    -0.376 N 
ATOM     21  C   UNL     1       6.960   1.190   0.210  0.00  0.00    +0.120 C 
ATOM     22  C   UNL     1       7.530   2.578   0.025  0.00  0.00    +0.009 C 
ATOM     23  C   UNL     1       8.030   2.614  -1.231  0.00  0.00    -0.004 A 
ATOM     24  C   UNL     1       8.705   3.664  -2.003  0.00  0.00    +0.010 A 
ATOM     25  H   UNL     1       6.946  -0.431  -1.248  0.00  0.00    +0.160 HD
ENDBRANCH  15  21
ENDBRANCH  11  15
ENDBRANCH  10  12
ENDBRANCH   1  10
BRANCH   7  26
ATOM     26  C   UNL     1       5.972  -3.579   4.935  0.00  0.00    -0.042 C 
BRANCH  26  27
ATOM     27  C   UNL     1       5.389  -2.815   6.096  0.00  0.00    -0.064 A 
ATOM     28  C   UNL     1       5.395  -3.371   7.362  0.00  0.00    +0.004 A 
ATOM     29  C   UNL     1       4.860  -2.671   8.427  0.00  0.00    +0.038 A 
ATOM     30  C   UNL     1       4.319  -1.413   8.226  0.00  0.00    +0.123 A 
ATOM     31  C   UNL     1       4.313  -0.857   6.957  0.00  0.00    +0.038 A 
ATOM     32  C   UNL     1       4.853  -1.557   5.895  0.00  0.00    +0.004 A 
ATOM     33  F   UNL     1       3.796  -0.728   9.266  0.00  0.00    -0.205 F 
ENDBRANCH  26  27
ENDBRANCH   7  26
TORSDOF 6
