REMARK  Name = ZINC39946479
REMARK  7 active torsions:
REMARK  status: ('A' for Active; 'I' for Inactive)
REMARK    1  A    between atoms: C_1  and  C_2
REMARK    2  A    between atoms: C_5  and  C_8
REMARK    3  A    between atoms: N_13  and  C_14
REMARK    4  A    between atoms: C_14  and  C_15
REMARK    5  A    between atoms: C_15  and  C_17
REMARK    6  A    between atoms: N_18  and  N_19
REMARK    7  A    between atoms: C_20  and  C_21
REMARK                            x       y       z     vdW  Elec       q    Type
REMARK                         _______ _______ _______ _____ _____    ______ ____
ROOT
ATOM      1  C   UNL     1       0.036  -3.755   0.406  0.00  0.00    +0.140 C 
ATOM      2  C   UNL     1      -1.428  -4.114   0.749  0.00  0.00    +0.106 C 
ATOM      3  S   UNL     1      -1.171  -5.720   1.614  0.00  0.00    -0.089 S 
ATOM      4  C   UNL     1       0.552  -5.501   2.035  0.00  0.00    +0.151 C 
ATOM      5  N   UNL     1       1.228  -6.094   2.978  0.00  0.00    -0.363 N 
ATOM      6  N   UNL     1       1.000  -4.559   1.133  0.00  0.00    -0.195 N 
ATOM      7  H   UNL     1       2.183  -5.942   3.059  0.00  0.00    +0.162 HD
ENDROOT
BRANCH   1  12
ATOM      8  C   UNL     1       0.928   1.814   1.668  0.00  0.00    +0.044 C 
ATOM      9  C   UNL     1       0.696   0.361   1.339  0.00  0.00    -0.050 A 
ATOM     10  C   UNL     1       0.438  -0.019   0.035  0.00  0.00    +0.004 A 
ATOM     11  C   UNL     1       0.225  -1.351  -0.267  0.00  0.00    +0.006 A 
ATOM     12  C   UNL     1       0.270  -2.303   0.735  0.00  0.00    -0.024 A 
ATOM     13  C   UNL     1       0.529  -1.922   2.038  0.00  0.00    +0.006 A 
ATOM     14  C   UNL     1       0.746  -0.591   2.340  0.00  0.00    +0.004 A 
ENDBRANCH   1  12
BRANCH   6  15
ATOM     15  N   UNL     1       2.373  -4.383   0.921  0.00  0.00    -0.185 NA
ATOM     16  C   UNL     1       2.793  -3.553  -0.002  0.00  0.00    +0.136 C 
BRANCH  16  17
ATOM     17  C   UNL     1       4.161  -3.286  -0.133  0.00  0.00    +0.000 C 
ATOM     18  C   UNL     1       4.769  -2.431  -1.052  0.00  0.00    +0.005 A 
ATOM     19  C   UNL     1       4.252  -1.610  -2.078  0.00  0.00    +0.025 A 
ATOM     20  C   UNL     1       5.098  -0.867  -2.836  0.00  0.00    +0.019 A 
ATOM     21  C   UNL     1       6.480  -0.890  -2.628  0.00  0.00    +0.017 A 
ATOM     22  C   UNL     1       7.045  -1.654  -1.662  0.00  0.00    +0.027 A 
ATOM     23  C   UNL     1       6.224  -2.459  -0.829  0.00  0.00    +0.043 A 
ATOM     24  N   UNL     1       6.522  -3.274   0.162  0.00  0.00    -0.380 N 
ATOM     25  C   UNL     1       5.289  -3.861   0.695  0.00  0.00    +0.150 C 
ATOM     26 BR   UNL     1       4.389   0.227  -4.207  0.00  0.00    -0.050 Br
ATOM     27  H   UNL     1       7.417  -3.455   0.490  0.00  0.00    +0.160 HD
ENDBRANCH  16  17
ENDBRANCH   6  15
BRANCH   5  28
ATOM     28  C   UNL     1       0.546  -6.989   3.917  0.00  0.00    +0.144 C 
BRANCH  28  29
ATOM     29  C   UNL     1       1.546  -7.541   4.900  0.00  0.00    -0.061 C 
ATOM     30  C   UNL     1       1.711  -6.958   6.062  0.00  0.00    +0.009 C 
ATOM     31  C   UNL     1       2.355  -8.762   4.548  0.00  0.00    +0.040 C 
ENDBRANCH  28  29
ENDBRANCH   5  28
TORSDOF 5
