REMARK  Name = ZINC44356747
REMARK  5 active torsions:
REMARK  status: ('A' for Active; 'I' for Inactive)
REMARK    1  A    between atoms: C_1  and  C_2
REMARK    2  A    between atoms: C_6  and  C_7
REMARK    3  A    between atoms: C_12  and  C_15
REMARK    4  A    between atoms: C_22  and  C_26
REMARK    5  A    between atoms: C_22  and  C_27
REMARK                            x       y       z     vdW  Elec       q    Type
REMARK                         _______ _______ _______ _____ _____    ______ ____
ROOT
ATOM      1  C   UNL     1       0.032  -0.395   2.491  0.00  0.00    +0.285 C 
ATOM      2  O   UNL     1       0.018   0.792   2.760  0.00  0.00    -0.266 OA
ATOM      3  N   UNL     1       0.054  -1.310   3.480  0.00  0.00    -0.258 N 
ATOM      4  C   UNL     1       0.061  -0.898   4.806  0.00  0.00    +0.165 A 
ATOM      5  N   UNL     1       0.087  -1.628   5.905  0.00  0.00    -0.223 NA
ATOM      6  C   UNL     1       0.090  -1.060   7.109  0.00  0.00    +0.096 A 
ATOM      7  C   UNL     1       0.066   0.305   7.204  0.00  0.00    +0.078 A 
ATOM      8  S   UNL     1       0.045   0.759   5.474  0.00  0.00    -0.060 S 
ATOM      9  H   UNL     1       0.065  -2.256   3.265  0.00  0.00    +0.157 HD
ENDROOT
BRANCH   1  15
ATOM     10  C   UNL     1      -0.018   1.503   0.010  0.00  0.00    +0.048 C 
ATOM     11  C   UNL     1       0.002  -0.004   0.002  0.00  0.00    +0.011 A 
ATOM     12  C   UNL     1       0.009  -0.840  -1.125  0.00  0.00    +0.062 A 
ATOM     13  C   UNL     1       0.027  -2.151  -0.662  0.00  0.00    +0.117 A 
ATOM     14  O   UNL     1       0.035  -2.114   0.664  0.00  0.00    -0.454 OA
ATOM     15  C   UNL     1       0.024  -0.829   1.089  0.00  0.00    +0.193 A 
ATOM     16  C   UNL     1       0.032  -3.344  -1.585  0.00  0.00    +0.082 C 
ATOM     17  C   UNL     1      -0.489  -2.920  -2.961  0.00  0.00    -0.021 C 
ATOM     18  C   UNL     1       0.284  -1.704  -3.482  0.00  0.00    +0.086 C 
ATOM     19  C   UNL     1       0.002  -0.525  -2.562  0.00  0.00    +0.167 C 
ATOM     20  O   UNL     1      -0.214   0.592  -2.982  0.00  0.00    -0.292 OA
ATOM     21  C   UNL     1      -1.973  -2.563  -2.851  0.00  0.00    +0.012 C 
ATOM     22  C   UNL     1      -0.322  -4.081  -3.943  0.00  0.00    +0.012 C 
ENDBRANCH   1  15
BRANCH   6  23
ATOM     23  C   UNL     1       0.119  -1.894   8.330  0.00  0.00    +0.066 A 
ATOM     24  C   UNL     1       0.151  -3.255   8.370  0.00  0.00    +0.029 A 
ATOM     25  C   UNL     1       0.171  -3.634   9.723  0.00  0.00    +0.019 A 
ATOM     26  C   UNL     1       0.151  -2.507  10.465  0.00  0.00    +0.083 A 
ATOM     27  N   UNL     1       0.125  -1.434   9.621  0.00  0.00    -0.359 N 
ATOM     28  H   UNL     1       0.110  -0.502   9.890  0.00  0.00    +0.165 HD
ENDBRANCH   6  23
TORSDOF 2
