REMARK  Name = ZINC27989916
REMARK  12 active torsions:
REMARK  status: ('A' for Active; 'I' for Inactive)
REMARK    1  A    between atoms: C_1  and  C_2
REMARK    2  A    between atoms: C_2  and  C_4
REMARK    3  A    between atoms: C_2  and  O_16
REMARK    4  A    between atoms: N_6  and  C_7
REMARK    5  A    between atoms: N_6  and  C_8
REMARK    6  A    between atoms: C_8  and  C_9
REMARK    7  A    between atoms: O_16  and  C_17
REMARK    8  A    between atoms: C_17  and  C_19
REMARK    9  A    between atoms: C_19  and  C_20
REMARK   10  A    between atoms: C_20  and  C_21
REMARK   11  A    between atoms: C_21  and  N_22
REMARK   12  A    between atoms: C_26  and  N_32
REMARK                            x       y       z     vdW  Elec       q    Type
REMARK                         _______ _______ _______ _____ _____    ______ ____
ROOT
ATOM      1  C   UNL     1      -3.979   7.313  -2.784  0.00  0.00    +0.308 C 
ATOM      2  O   UNL     1      -3.718   6.580  -3.709  0.00  0.00    -0.251 OA
ENDROOT
BRANCH   1   3
ATOM      3  O   UNL     1      -4.435   8.553  -3.019  0.00  0.00    -0.452 OA
BRANCH   3   5
ATOM      4  C   UNL     1      -6.000   8.589  -4.884  0.00  0.00    +0.062 C 
ATOM      5  C   UNL     1      -4.591   8.947  -4.407  0.00  0.00    +0.259 C 
BRANCH   5   6
ATOM      6  C   UNL     1      -4.380  10.434  -4.535  0.00  0.00    +0.256 C 
ATOM      7  O   UNL     1      -4.124  11.096  -3.552  0.00  0.00    -0.272 OA
ATOM      8  N   UNL     1      -4.476  11.027  -5.741  0.00  0.00    -0.297 N 
ATOM      9  C   UNL     1      -4.785  10.226  -6.929  0.00  0.00    +0.132 C 
BRANCH   8  10
ATOM     10  C   UNL     1      -4.271  12.472  -5.865  0.00  0.00    +0.142 C 
BRANCH  10  11
ATOM     11  C   UNL     1      -2.813  12.752  -6.124  0.00  0.00    -0.027 A 
ATOM     12  C   UNL     1      -1.950  12.960  -5.064  0.00  0.00    +0.005 A 
ATOM     13  C   UNL     1      -0.612  13.212  -5.300  0.00  0.00    +0.003 A 
ATOM     14  C   UNL     1      -0.136  13.267  -6.596  0.00  0.00    +0.038 A 
ATOM     15  C   UNL     1      -1.000  13.065  -7.659  0.00  0.00    +0.124 A 
ATOM     16  C   UNL     1      -2.340  12.807  -7.421  0.00  0.00    +0.043 A 
ATOM     17  F   UNL     1      -0.537  13.120  -8.927  0.00  0.00    -0.205 F 
ENDBRANCH  10  11
ENDBRANCH   8  10
ENDBRANCH   5   6
ENDBRANCH   3   5
ENDBRANCH   1   3
BRANCH   1  18
ATOM     18  C   UNL     1      -3.792   6.834  -1.367  0.00  0.00    +0.122 C 
BRANCH  18  19
ATOM     19  C   UNL     1      -3.266   5.397  -1.380  0.00  0.00    +0.033 C 
BRANCH  19  20
ATOM     20  C   UNL     1      -3.076   4.911   0.058  0.00  0.00    +0.129 C 
BRANCH  20  21
ATOM     21  N   UNL     1      -2.573   3.536   0.046  0.00  0.00    -0.274 N 
ATOM     22  C   UNL     1      -1.233   3.148   0.031  0.00  0.00    +0.090 A 
ATOM     23  C   UNL     1      -0.039   3.851   0.023  0.00  0.00    +0.032 A 
ATOM     24  C   UNL     1       1.161   3.167   0.008  0.00  0.00    +0.035 A 
ATOM     25  C   UNL     1       1.174   1.784   0.000  0.00  0.00    +0.130 A 
ATOM     26  C   UNL     1      -0.013   1.076   0.008  0.00  0.00    +0.081 A 
ATOM     27  C   UNL     1      -1.222   1.753   0.017  0.00  0.00    +0.159 A 
ATOM     28  O   UNL     1      -2.513   1.340   0.034  0.00  0.00    -0.407 OA
ATOM     29  C   UNL     1      -3.319   2.413   0.048  0.00  0.00    +0.421 A 
ATOM     30  O   UNL     1      -4.534   2.378   0.060  0.00  0.00    -0.223 OA
BRANCH  25  31
ATOM     31  N   UNL     1       2.464   1.058  -0.016  0.00  0.00    +0.057 N 
ATOM     32  O   UNL     1       2.478  -0.160  -0.023  0.00  0.00    -0.126 OA
ATOM     33  O   UNL     1       3.511   1.679  -0.023  0.00  0.00    -0.126 OA
ENDBRANCH  25  31
ENDBRANCH  20  21
ENDBRANCH  19  20
ENDBRANCH  18  19
ENDBRANCH   1  18
TORSDOF 10
