REMARK  Name = ZINC27016460
REMARK  10 active torsions:
REMARK  status: ('A' for Active; 'I' for Inactive)
REMARK    1  A    between atoms: C_1  and  C_2
REMARK    2  A    between atoms: C_9  and  N_26
REMARK    3  A    between atoms: C_10  and  C_13
REMARK    4  A    between atoms: N_17  and  C_21
REMARK    5  A    between atoms: C_21  and  C_22
REMARK    6  A    between atoms: C_22  and  C_23
REMARK    7  A    between atoms: C_23  and  O_24
REMARK    8  A    between atoms: O_24  and  C_25
REMARK    9  A    between atoms: C_28  and  C_35
REMARK   10  A    between atoms: C_31  and  C_34
REMARK                            x       y       z     vdW  Elec       q    Type
REMARK                         _______ _______ _______ _____ _____    ______ ____
ROOT
ATOM      1  C   UNL     1       0.625   6.053  -4.979  0.00  0.00    +0.047 C 
ATOM      2  C   UNL     1      -0.833   5.730  -5.183  0.00  0.00    -0.007 A 
ATOM      3  C   UNL     1      -1.511   6.259  -6.240  0.00  0.00    +0.008 A 
ATOM      4  C   UNL     1      -2.867   5.950  -6.415  0.00  0.00    +0.019 A 
ATOM      5  C   UNL     1      -3.495   5.133  -5.541  0.00  0.00    +0.096 A 
ATOM      6  N   UNL     1      -2.825   4.599  -4.480  0.00  0.00    -0.267 N 
ATOM      7  C   UNL     1      -1.502   4.882  -4.283  0.00  0.00    +0.145 A 
ATOM      8  N   UNL     1      -0.830   4.370  -3.251  0.00  0.00    -0.213 NA
ATOM      9  C   UNL     1      -1.411   3.566  -2.373  0.00  0.00    +0.136 A 
ATOM     10  C   UNL     1      -2.777   3.232  -2.530  0.00  0.00    +0.081 A 
ATOM     11  C   UNL     1      -3.483   3.786  -3.625  0.00  0.00    +0.267 A 
ATOM     12  O   UNL     1      -4.662   3.531  -3.796  0.00  0.00    -0.267 OA
ENDROOT
BRANCH  10  13
ATOM     13  C   UNL     1      -3.424   2.372  -1.612  0.00  0.00    +0.037 C 
ATOM     14  C   UNL     1      -3.873   1.150  -2.023  0.00  0.00    +0.077 C 
ATOM     15  C   UNL     1      -3.706   0.498  -3.278  0.00  0.00    +0.258 C 
ATOM     16  O   UNL     1      -3.085   1.029  -4.182  0.00  0.00    -0.269 OA
ATOM     17  N   UNL     1      -4.240  -0.701  -3.433  0.00  0.00    -0.255 N 
ATOM     18  C   UNL     1      -4.935  -1.287  -2.432  0.00  0.00    +0.121 C 
ATOM     19  S   UNL     1      -5.709  -2.814  -2.413  0.00  0.00    -0.027 S 
ATOM     20  S   UNL     1      -4.839  -0.063  -1.134  0.00  0.00    -0.061 S 
BRANCH  17  21
ATOM     21  C   UNL     1      -4.082  -1.402  -4.709  0.00  0.00    +0.117 C 
BRANCH  21  22
ATOM     22  C   UNL     1      -5.240  -1.036  -5.639  0.00  0.00    +0.047 C 
BRANCH  22  23
ATOM     23  C   UNL     1      -5.075  -1.769  -6.972  0.00  0.00    +0.161 C 
BRANCH  23  24
ATOM     24  O   UNL     1      -6.157  -1.427  -7.840  0.00  0.00    -0.383 OA
ATOM     25  C   UNL     1      -6.098  -2.061  -9.120  0.00  0.00    +0.193 C 
ENDBRANCH  23  24
ENDBRANCH  22  23
ENDBRANCH  21  22
ENDBRANCH  17  21
ENDBRANCH  10  13
BRANCH   9  26
ATOM     26  N   UNL     1      -0.689   3.053  -1.318  0.00  0.00    -0.310 N 
ATOM     27  C   UNL     1      -0.556   1.593  -1.430  0.00  0.00    +0.138 C 
ATOM     28  C   UNL     1       0.199   1.060  -0.210  0.00  0.00    +0.133 C 
ATOM     29  O   UNL     1       1.468   1.713  -0.118  0.00  0.00    -0.371 OA
ATOM     30  C   UNL     1       1.376   3.136  -0.007  0.00  0.00    +0.133 C 
ATOM     31  C   UNL     1       0.632   3.691  -1.225  0.00  0.00    +0.138 C 
ATOM     32  C   UNL     1       2.783   3.736   0.051  0.00  0.00    +0.039 C 
ATOM     33  C   UNL     1      -0.612   1.339   1.057  0.00  0.00    +0.039 C 
ENDBRANCH   9  26
TORSDOF 6
