REMARK  Name = ZINC23231808
REMARK  3 active torsions:
REMARK  status: ('A' for Active; 'I' for Inactive)
REMARK    1  A    between atoms: C_6  and  C_7
REMARK    2  A    between atoms: C_13  and  C_15
REMARK    3  A    between atoms: C_15  and  N_16
REMARK                            x       y       z     vdW  Elec       q    Type
REMARK                         _______ _______ _______ _____ _____    ______ ____
ROOT
ATOM      1  C   UNL     1      -1.265  -0.763   0.010  0.00  0.00    +0.141 A 
ATOM      2  N   UNL     1      -1.230  -2.125   0.008  0.00  0.00    -0.307 N 
ATOM      3  H   UNL     1      -0.378  -2.590   0.001  0.00  0.00    +0.170 HD
ATOM      4  C   UNL     1      -2.384  -2.825   0.016  0.00  0.00    +0.252 A 
ATOM      5  O   UNL     1      -2.372  -4.045   0.015  0.00  0.00    -0.268 OA
ATOM      6  C   UNL     1      -3.603  -2.119   0.026  0.00  0.00    +0.091 A 
ATOM      7  C   UNL     1      -3.575  -0.755   0.027  0.00  0.00    +0.024 A 
ATOM      8  N   UNL     1      -2.409  -0.111   0.025  0.00  0.00    -0.236 NA
ENDROOT
BRANCH   1  14
ATOM      9  C   UNL     1      -0.017   1.392   0.010  0.00  0.00    +0.013 A 
ATOM     10  C   UNL     1       1.169   2.095   0.002  0.00  0.00    +0.021 A 
ATOM     11  C   UNL     1       2.378   1.419  -0.013  0.00  0.00    +0.041 A 
ATOM     12  C   UNL     1       2.404   0.034  -0.022  0.00  0.00    +0.021 A 
ATOM     13  C   UNL     1       1.224  -0.680  -0.014  0.00  0.00    +0.013 A 
ATOM     14  C   UNL     1       0.002  -0.004   0.002  0.00  0.00    +0.017 A 
ATOM     15 CL   UNL     1       3.868   2.311  -0.024  0.00  0.00    -0.084 Cl
ENDBRANCH   1  14
BRANCH   7  16
ATOM     16  C   UNL     1      -4.864   0.024   0.038  0.00  0.00    -0.103 C 
BRANCH  16  17
ATOM     17  N   UNL     1      -4.971   0.774   1.292  0.00  0.00    +0.363 NA
ATOM     18  H   UNL     1      -5.748   1.331   1.459  0.00  0.00    -0.169 HD
ENDBRANCH  16  17
ENDBRANCH   7  16
TORSDOF 3
