REMARK  Name = ZINC36491861
REMARK  16 active torsions:
REMARK  status: ('A' for Active; 'I' for Inactive)
REMARK    1  A    between atoms: C_1  and  C_2
REMARK    2  A    between atoms: C_2  and  C_3
REMARK    3  A    between atoms: C_2  and  C_4
REMARK    4  A    between atoms: C_2  and  C_5
REMARK    5  A    between atoms: C_5  and  C_6
REMARK    6  A    between atoms: C_6  and  C_7
REMARK    7  A    between atoms: C_6  and  C_8
REMARK    8  A    between atoms: C_6  and  N_9
REMARK    9  A    between atoms: C_10  and  C_12
REMARK   10  A    between atoms: C_12  and  C_14
REMARK   11  A    between atoms: C_12  and  N_23
REMARK   12  A    between atoms: C_15  and  O_22
REMARK   13  A    between atoms: C_17  and  O_21
REMARK   14  A    between atoms: C_19  and  O_20
REMARK   15  A    between atoms: N_23  and  C_24
REMARK   16  A    between atoms: C_30  and  C_32
REMARK                            x       y       z     vdW  Elec       q    Type
REMARK                         _______ _______ _______ _____ _____    ______ ____
ROOT
ATOM      1  C   UNL     1       4.982   1.369  -5.222  0.00  0.00    +0.200 C 
ENDROOT
BRANCH   1   2
ATOM      2  C   UNL     1       5.157  -0.107  -5.465  0.00  0.00    +0.065 A 
ATOM      3  C   UNL     1       5.800  -0.550  -6.612  0.00  0.00    +0.129 A 
ATOM      4  C   UNL     1       5.961  -1.909  -6.836  0.00  0.00    +0.091 A 
ATOM      5  C   UNL     1       5.480  -2.825  -5.914  0.00  0.00    +0.124 A 
ATOM      6  C   UNL     1       4.838  -2.383  -4.767  0.00  0.00    +0.091 A 
ATOM      7  C   UNL     1       4.680  -1.024  -4.540  0.00  0.00    +0.129 A 
BRANCH   7   8
ATOM      8  O   UNL     1       4.056  -0.591  -3.414  0.00  0.00    -0.506 OA
ATOM      9  H   UNL     1       3.110  -0.423  -3.529  0.00  0.00    +0.292 HD
ENDBRANCH   7   8
BRANCH   5  10
ATOM     10  O   UNL     1       5.637  -4.157  -6.134  0.00  0.00    -0.507 OA
ATOM     11  H   UNL     1       6.457  -4.522  -5.773  0.00  0.00    +0.292 HD
ENDBRANCH   5  10
BRANCH   3  12
ATOM     12  O   UNL     1       6.271   0.349  -7.516  0.00  0.00    -0.506 OA
ATOM     13  H   UNL     1       7.154   0.687  -7.311  0.00  0.00    +0.292 HD
ENDBRANCH   3  12
ENDBRANCH   1   2
BRANCH   1  15
ATOM     14  N   UNL     1       3.003   1.278  -3.741  0.00  0.00    -0.308 N 
ATOM     15  C   UNL     1       4.307   1.582  -3.891  0.00  0.00    +0.239 C 
ATOM     16  O   UNL     1       4.938   2.027  -2.956  0.00  0.00    -0.273 OA
ATOM     17  H   UNL     1       2.542   0.765  -4.424  0.00  0.00    +0.149 HD
BRANCH  14  18
ATOM     18  C   UNL     1       2.280   1.723  -2.547  0.00  0.00    +0.030 C 
ATOM     19  C   UNL     1       2.486   3.227  -2.356  0.00  0.00    +0.031 C 
ATOM     20  C   UNL     1       2.811   0.976  -1.322  0.00  0.00    +0.031 C 
BRANCH  18  21
ATOM     21  C   UNL     1       0.787   1.430  -2.715  0.00  0.00    +0.031 C 
BRANCH  21  23
ATOM     22  C   UNL     1       0.595   0.678  -5.090  0.00  0.00    +0.010 C 
ATOM     23  C   UNL     1       0.344   1.836  -4.122  0.00  0.00    -0.036 C 
ATOM     24  C   UNL     1       1.141   3.061  -4.575  0.00  0.00    +0.010 C 
ATOM     25  C   UNL     1      -1.148   2.176  -4.108  0.00  0.00    +0.010 C 
ENDBRANCH  21  23
ENDBRANCH  18  21
ENDBRANCH  14  18
ENDBRANCH   1  15
BRANCH   1  26
ATOM     26  N   UNL     1       6.294   2.022  -5.214  0.00  0.00    -0.279 N 
ATOM     27  C   UNL     1       6.543   3.043  -6.058  0.00  0.00    +0.249 C 
ATOM     28  O   UNL     1       5.675   3.432  -6.814  0.00  0.00    -0.270 OA
BRANCH  26  29
ATOM     29  C   UNL     1       7.334   1.565  -4.289  0.00  0.00    +0.077 C 
ATOM     30  C   UNL     1       6.903   0.243  -3.650  0.00  0.00    +0.022 C 
ATOM     31  C   UNL     1       7.989  -0.234  -2.684  0.00  0.00    +0.002 C 
ATOM     32  C   UNL     1       8.198   0.817  -1.591  0.00  0.00    +0.000 C 
ATOM     33  C   UNL     1       8.629   2.138  -2.231  0.00  0.00    +0.002 C 
ATOM     34  C   UNL     1       7.543   2.615  -3.197  0.00  0.00    +0.022 C 
ENDBRANCH  26  29
BRANCH  27  35
ATOM     35  C   UNL     1       7.873   3.689  -6.063  0.00  0.00    +0.055 A 
ATOM     36  C   UNL     1       8.161   4.718  -6.968  0.00  0.00    +0.016 A 
ATOM     37  C   UNL     1       9.420   5.290  -6.932  0.00  0.00    +0.020 A 
ATOM     38  C   UNL     1      10.346   4.831  -6.012  0.00  0.00    +0.111 A 
ATOM     39  N   UNL     1      10.047   3.859  -5.171  0.00  0.00    -0.263 NA
ATOM     40  C   UNL     1       8.861   3.287  -5.163  0.00  0.00    +0.123 A 
ENDBRANCH  27  35
ENDBRANCH   1  26
TORSDOF 11
