REMARK  Name = ZINC33254124
REMARK  10 active torsions:
REMARK  status: ('A' for Active; 'I' for Inactive)
REMARK    1  A    between atoms: C_1  and  C_2
REMARK    2  A    between atoms: C_4  and  C_35
REMARK    3  A    between atoms: C_5  and  S_9
REMARK    4  A    between atoms: C_7  and  C_8
REMARK    5  A    between atoms: S_9  and  N_12
REMARK    6  A    between atoms: N_12  and  C_13
REMARK    7  A    between atoms: C_15  and  C_32
REMARK    8  A    between atoms: C_18  and  N_19
REMARK    9  A    between atoms: C_23  and  C_26
REMARK   10  A    between atoms: C_26  and  N_27
REMARK                            x       y       z     vdW  Elec       q    Type
REMARK                         _______ _______ _______ _____ _____    ______ ____
ROOT
ATOM      1  C   UNL     1       8.623   3.202  -0.828  0.00  0.00    +0.070 A 
ATOM      2  C   UNL     1       9.936   2.959  -1.183  0.00  0.00    +0.041 A 
ATOM      3  C   UNL     1      10.588   1.821  -0.698  0.00  0.00    +0.065 A 
ATOM      4  C   UNL     1       9.909   0.933   0.142  0.00  0.00    +0.017 A 
ATOM      5  C   UNL     1       8.602   1.183   0.497  0.00  0.00    +0.026 A 
ATOM      6  C   UNL     1       7.950   2.311   0.013  0.00  0.00    +0.052 A 
ENDROOT
BRANCH   6   7
ATOM      7  N   UNL     1       6.626   2.556   0.370  0.00  0.00    -0.328 N 
ATOM      8  C   UNL     1       6.141   3.804  -0.233  0.00  0.00    +0.105 C 
ATOM      9  C   UNL     1       4.739   4.116   0.296  0.00  0.00    +0.019 C 
ATOM     10  C   UNL     1       3.798   2.959  -0.052  0.00  0.00    +0.005 C 
ATOM     11  C   UNL     1       4.352   1.663   0.545  0.00  0.00    -0.010 C 
ATOM     12  C   UNL     1       5.765   1.422   0.010  0.00  0.00    +0.107 C 
BRANCH  11  13
ATOM     13  C   UNL     1       3.450   0.492   0.151  0.00  0.00    -0.074 C 
BRANCH  13  14
ATOM     14  N   UNL     1       3.938  -0.738   0.788  0.00  0.00    +0.380 N 
ATOM     15  C   UNL     1       3.820  -0.655   2.260  0.00  0.00    -0.079 C 
ATOM     16  C   UNL     1       3.508  -2.102   2.715  0.00  0.00    -0.020 C 
ATOM     17  C   UNL     1       2.583  -2.597   1.571  0.00  0.00    -0.020 C 
ATOM     18  C   UNL     1       3.177  -1.912   0.323  0.00  0.00    -0.079 C 
ATOM     19  H   UNL     1       4.995  -0.847   0.504  0.00  0.00    -0.082 HD
ENDBRANCH  13  14
ENDBRANCH  11  13
ENDBRANCH   6   7
BRANCH   3  20
ATOM     20  C   UNL     1      11.989   1.556  -1.074  0.00  0.00    +0.387 C 
ATOM     21  O   UNL     1      12.577   2.328  -1.805  0.00  0.00    -0.241 OA
ATOM     22  O   UNL     1      12.616   0.459  -0.607  0.00  0.00    -0.241 OA
ENDBRANCH   3  20
BRANCH   1  23
ATOM     23  N   UNL     1       7.966   4.341  -1.311  0.00  0.00    -0.214 N 
ATOM     24  H   UNL     1       7.152   4.237  -2.044  0.00  0.00    +0.174 HD
BRANCH  23  25
ATOM     25  S   UNL     1       8.413   5.843  -0.778  0.00  0.00    +0.073 S 
ATOM     26  O   UNL     1       7.569   6.777  -1.438  0.00  0.00    -0.150 OA
ATOM     27  O   UNL     1       8.500   5.763   0.638  0.00  0.00    -0.150 OA
BRANCH  25  32
ATOM     28  C   UNL     1      14.009   6.858  -2.793  0.00  0.00    +0.044 C 
ATOM     29  C   UNL     1      12.611   6.605  -2.289  0.00  0.00    -0.047 A 
ATOM     30  C   UNL     1      11.564   6.493  -3.185  0.00  0.00    +0.009 A 
ATOM     31  C   UNL     1      10.282   6.261  -2.724  0.00  0.00    -0.024 A 
ATOM     32  C   UNL     1      10.047   6.140  -1.366  0.00  0.00    +0.112 A 
ATOM     33  C   UNL     1      11.094   6.257  -0.471  0.00  0.00    +0.032 A 
ATOM     34  C   UNL     1      12.377   6.485  -0.933  0.00  0.00    -0.046 A 
ATOM     35  C   UNL     1      13.518   6.607   0.043  0.00  0.00    +0.044 C 
ATOM     36  C   UNL     1       9.141   6.138  -3.700  0.00  0.00    +0.046 C 
ENDBRANCH  25  32
ENDBRANCH  23  25
ENDBRANCH   1  23
TORSDOF 7
