REMARK  Name = ZINC11661501
REMARK  8 active torsions:
REMARK  status: ('A' for Active; 'I' for Inactive)
REMARK    1  A    between atoms: C_4  and  C_7
REMARK    2  A    between atoms: C_7  and  N_63
REMARK    3  A    between atoms: C_13  and  C_15
REMARK    4  A    between atoms: C_15  and  C_16
REMARK    5  A    between atoms: N_18  and  C_19
REMARK    6  A    between atoms: C_19  and  C_20
REMARK    7  A    between atoms: C_20  and  C_21
REMARK    8  A    between atoms: C_21  and  N_22
REMARK                            x       y       z     vdW  Elec       q    Type
REMARK                         _______ _______ _______ _____ _____    ______ ____
ROOT
ATOM      1  C   UNL     1       0.757  -5.371  -0.754  0.00  0.00    +0.089 C 
ENDROOT
BRANCH   1   7
ATOM      2  C   UNL     1       4.120  -3.702  -0.778  0.00  0.00    -0.058 C 
ATOM      3  C   UNL     1       3.611  -2.266  -0.635  0.00  0.00    +0.085 C 
ATOM      4  N   UNL     1       2.311  -2.130  -1.286  0.00  0.00    -0.318 N 
ATOM      5  C   UNL     1       1.536  -3.177  -1.590  0.00  0.00    +0.200 C 
ATOM      6  O   UNL     1       0.457  -2.972  -2.103  0.00  0.00    -0.278 OA
ATOM      7  C   UNL     1       1.948  -4.597  -1.323  0.00  0.00    +0.028 C 
ATOM      8  H   UNL     1       1.995  -1.240  -1.509  0.00  0.00    +0.149 HD
ATOM      9  N   UNL     1       3.046  -4.614  -0.338  0.00  0.00    +0.391 N 
ATOM     10  H   UNL     1       2.687  -4.297   0.570  0.00  0.00    -0.080 HD
BRANCH   9  11
ATOM     11  C   UNL     1       3.575  -5.989  -0.192  0.00  0.00    -0.042 C 
BRANCH  11  15
ATOM     12  C   UNL     1       6.955  -5.920   2.420  0.00  0.00    +0.000 A 
ATOM     13  C   UNL     1       5.684  -6.094   2.937  0.00  0.00    +0.000 A 
ATOM     14  C   UNL     1       4.591  -6.116   2.092  0.00  0.00    +0.002 A 
ATOM     15  C   UNL     1       4.767  -5.965   0.729  0.00  0.00    -0.064 A 
ATOM     16  C   UNL     1       6.037  -5.791   0.212  0.00  0.00    +0.002 A 
ATOM     17  C   UNL     1       7.131  -5.768   1.057  0.00  0.00    +0.000 A 
ENDBRANCH  11  15
ENDBRANCH   9  11
ENDBRANCH   1   7
BRANCH   1  18
ATOM     18  C   UNL     1       0.364  -4.781   0.575  0.00  0.00    +0.212 C 
ATOM     19  O   UNL     1       0.943  -3.804   1.001  0.00  0.00    -0.276 OA
ATOM     20  N   UNL     1      -0.633  -5.338   1.292  0.00  0.00    -0.315 N 
ATOM     21  H   UNL     1      -1.096  -6.119   0.951  0.00  0.00    +0.149 HD
BRANCH  20  22
ATOM     22  C   UNL     1      -1.016  -4.764   2.584  0.00  0.00    +0.105 C 
BRANCH  22  23
ATOM     23  C   UNL     1      -2.163  -5.580   3.184  0.00  0.00    +0.037 C 
BRANCH  23  24
ATOM     24  C   UNL     1      -2.563  -4.980   4.534  0.00  0.00    +0.106 C 
BRANCH  24  25
ATOM     25  N   UNL     1      -3.745  -5.682   5.050  0.00  0.00    -0.330 N 
ATOM     26  C   UNL     1      -3.438  -7.083   5.344  0.00  0.00    +0.105 C 
ATOM     27  C   UNL     1      -4.713  -7.770   5.850  0.00  0.00    +0.024 C 
ATOM     28  C   UNL     1      -5.697  -7.855   4.681  0.00  0.00    +0.038 C 
ATOM     29  C   UNL     1      -5.778  -6.519   3.988  0.00  0.00    -0.026 A 
ATOM     30  C   UNL     1      -4.832  -5.528   4.191  0.00  0.00    +0.033 A 
ATOM     31  C   UNL     1      -4.956  -4.314   3.514  0.00  0.00    +0.023 A 
ATOM     32  C   UNL     1      -6.012  -4.098   2.654  0.00  0.00    +0.002 A 
ATOM     33  C   UNL     1      -6.957  -5.089   2.460  0.00  0.00    +0.000 A 
ATOM     34  C   UNL     1      -6.838  -6.293   3.125  0.00  0.00    +0.005 A 
ENDBRANCH  24  25
ENDBRANCH  23  24
ENDBRANCH  22  23
ENDBRANCH  20  22
ENDBRANCH   1  18
TORSDOF 8
