REMARK  Name = ZINC09924094
REMARK  10 active torsions:
REMARK  status: ('A' for Active; 'I' for Inactive)
REMARK    1  A    between atoms: C_1  and  C_2
REMARK    2  A    between atoms: C_2  and  C_4
REMARK    3  A    between atoms: C_2  and  N_12
REMARK    4  A    between atoms: C_13  and  C_15
REMARK    5  A    between atoms: C_15  and  O_16
REMARK    6  A    between atoms: O_16  and  C_17
REMARK    7  A    between atoms: C_17  and  C_19
REMARK    8  A    between atoms: C_22  and  N_28
REMARK    9  A    between atoms: C_23  and  N_25
REMARK   10  A    between atoms: N_28  and  C_29
REMARK                            x       y       z     vdW  Elec       q    Type
REMARK                         _______ _______ _______ _____ _____    ______ ____
ROOT
ATOM      1  C   UNL     1      -5.393   1.113   2.083  0.00  0.00    +0.328 C 
ENDROOT
BRANCH   1   3
ATOM      2  N   UNL     1      -3.489   0.901   0.519  0.00  0.00    -0.306 N 
ATOM      3  C   UNL     1      -4.510   0.306   1.167  0.00  0.00    +0.251 C 
ATOM      4  O   UNL     1      -4.718  -0.879   1.014  0.00  0.00    -0.272 OA
ATOM      5  H   UNL     1      -3.323   1.849   0.642  0.00  0.00    +0.149 HD
BRANCH   2   7
ATOM      6  C   UNL     1      -3.272   0.036  -1.758  0.00  0.00    +0.033 C 
ATOM      7  C   UNL     1      -2.631   0.116  -0.372  0.00  0.00    +0.100 C 
BRANCH   7   8
ATOM      8  C   UNL     1      -1.281   0.778  -0.480  0.00  0.00    -0.026 A 
ATOM      9  C   UNL     1      -0.133   0.007  -0.496  0.00  0.00    +0.007 A 
ATOM     10  C   UNL     1       1.105   0.613  -0.601  0.00  0.00    +0.022 A 
ATOM     11  C   UNL     1       1.196   1.991  -0.685  0.00  0.00    +0.059 A 
ATOM     12  C   UNL     1       0.047   2.763  -0.664  0.00  0.00    +0.060 A 
ATOM     13  C   UNL     1      -1.191   2.155  -0.558  0.00  0.00    +0.027 A 
ATOM     14 CL   UNL     1       0.160   4.492  -0.770  0.00  0.00    -0.082 Cl
ATOM     15 CL   UNL     1       2.751   2.752  -0.816  0.00  0.00    -0.082 Cl
ENDBRANCH   7   8
ENDBRANCH   2   7
ENDBRANCH   1   3
BRANCH   1  16
ATOM     16  O   UNL     1      -6.411   0.252   2.658  0.00  0.00    -0.452 OA
BRANCH  16  17
ATOM     17  C   UNL     1      -7.289   0.823   3.506  0.00  0.00    +0.340 C 
ATOM     18  O   UNL     1      -7.206   2.008   3.759  0.00  0.00    -0.245 OA
BRANCH  17  19
ATOM     19  C   UNL     1      -8.349   0.009   4.128  0.00  0.00    +0.061 A 
ATOM     20  C   UNL     1      -8.449  -1.355   3.833  0.00  0.00    +0.017 A 
ATOM     21  C   UNL     1      -9.428  -2.109   4.414  0.00  0.00    +0.026 A 
ATOM     22  C   UNL     1     -10.337  -1.523   5.291  0.00  0.00    +0.058 A 
ATOM     23  C   UNL     1     -10.249  -0.165   5.585  0.00  0.00    +0.148 A 
ATOM     24  C   UNL     1      -9.261   0.600   5.008  0.00  0.00    +0.049 A 
BRANCH  23  25
ATOM     25  N   UNL     1     -11.216   0.456   6.518  0.00  0.00    +0.058 N 
ATOM     26  O   UNL     1     -11.072   1.615   6.862  0.00  0.00    -0.126 OA
ATOM     27  O   UNL     1     -12.156  -0.193   6.941  0.00  0.00    -0.126 OA
ENDBRANCH  23  25
BRANCH  22  28
ATOM     28  N   UNL     1     -11.335  -2.295   5.874  0.00  0.00    -0.345 N 
ATOM     29  C   UNL     1     -11.354  -3.745   5.667  0.00  0.00    +0.125 C 
ATOM     30  H   UNL     1     -12.019  -1.874   6.418  0.00  0.00    +0.146 HD
ENDBRANCH  22  28
ENDBRANCH  17  19
ENDBRANCH  16  17
ENDBRANCH   1  16
TORSDOF 8
