REMARK  Name = ZINC06831856
REMARK  4 active torsions:
REMARK  status: ('A' for Active; 'I' for Inactive)
REMARK    1  A    between atoms: C_3  and  C_8
REMARK    2  A    between atoms: C_8  and  S_9
REMARK    3  A    between atoms: S_9  and  C_10
REMARK    4  A    between atoms: C_14  and  N_16
REMARK                            x       y       z     vdW  Elec       q    Type
REMARK                         _______ _______ _______ _____ _____    ______ ____
ROOT
ATOM      1  C   UNL     1       0.002  -0.004   0.002  0.00  0.00    +0.192 A 
ATOM      2  N   UNL     1       1.168  -0.633  -0.018  0.00  0.00    -0.207 NA
ATOM      3  C   UNL     1       1.224  -1.963  -0.020  0.00  0.00    +0.122 A 
ATOM      4  C   UNL     1       0.038  -2.692  -0.013  0.00  0.00    +0.086 A 
ATOM      5  C   UNL     1      -1.167  -1.996   0.003  0.00  0.00    +0.122 A 
ATOM      6  N   UNL     1      -1.146  -0.665   0.009  0.00  0.00    -0.207 NA
ATOM      7  N   UNL     1       2.448  -2.614  -0.035  0.00  0.00    -0.343 N 
ATOM      8  H   UNL     1       2.482  -3.583  -0.040  0.00  0.00    +0.144 HD
ATOM      9  H   UNL     1       3.271  -2.100  -0.040  0.00  0.00    +0.144 HD
ENDROOT
BRANCH   5  10
ATOM     10  N   UNL     1      -2.373  -2.680   0.011  0.00  0.00    -0.343 N 
ATOM     11  H   UNL     1      -3.209  -2.188   0.022  0.00  0.00    +0.144 HD
ATOM     12  H   UNL     1      -2.380  -3.650   0.006  0.00  0.00    +0.144 HD
ENDBRANCH   5  10
BRANCH   1  13
ATOM     13  S   UNL     1      -0.022   1.758   0.012  0.00  0.00    -0.081 S 
BRANCH  13  14
ATOM     14  C   UNL     1       1.756   2.096  -0.004  0.00  0.00    +0.112 C 
BRANCH  14  17
ATOM     15  C   UNL     1       2.310   5.629   1.208  0.00  0.00    +0.001 A 
ATOM     16  C   UNL     1       2.100   4.263   1.202  0.00  0.00    +0.004 A 
ATOM     17  C   UNL     1       1.984   3.586   0.002  0.00  0.00    -0.036 A 
ATOM     18  C   UNL     1       2.083   4.275  -1.192  0.00  0.00    +0.019 A 
ATOM     19  C   UNL     1       2.287   5.642  -1.187  0.00  0.00    +0.018 A 
ATOM     20  C   UNL     1       2.404   6.319   0.014  0.00  0.00    +0.015 A 
ATOM     21 BR   UNL     1       2.416   6.586  -2.820  0.00  0.00    -0.050 Br
ENDBRANCH  14  17
ENDBRANCH  13  14
ENDBRANCH   1  13
TORSDOF 4
