REMARK  Name = ZINC51331024
REMARK  11 active torsions:
REMARK  status: ('A' for Active; 'I' for Inactive)
REMARK    1  A    between atoms: C_1  and  C_2
REMARK    2  A    between atoms: C_2  and  N_3
REMARK    3  A    between atoms: N_3  and  C_4
REMARK    4  A    between atoms: N_3  and  C_6
REMARK    5  A    between atoms: C_4  and  C_5
REMARK    6  A    between atoms: C_9  and  C_12
REMARK    7  A    between atoms: N_13  and  N_14
REMARK    8  A    between atoms: C_15  and  C_17
REMARK    9  A    between atoms: C_18  and  C_28
REMARK   10  A    between atoms: C_28  and  N_29
REMARK   11  A    between atoms: C_32  and  C_35
REMARK                            x       y       z     vdW  Elec       q    Type
REMARK                         _______ _______ _______ _____ _____    ______ ____
ROOT
ATOM      1  C   UNL     1      -2.504  -2.784 -10.506  0.00  0.00    +0.170 A 
ATOM      2  C   UNL     1      -1.989  -3.233 -11.689  0.00  0.00    +0.063 A 
ATOM      3  N   UNL     1      -3.023  -3.326 -12.555  0.00  0.00    -0.194 N 
ATOM      4  N   UNL     1      -4.171  -2.919 -11.860  0.00  0.00    -0.058 NA
ATOM      5  N   UNL     1      -3.830  -2.613 -10.656  0.00  0.00    -0.124 NA
ATOM      6  C   UNL     1      -2.960  -3.746 -13.888  0.00  0.00    +0.240 A 
ATOM      7  C   UNL     1      -4.093  -3.834 -14.814  0.00  0.00    +0.206 A 
ATOM      8  N   UNL     1      -3.650  -4.263 -15.964  0.00  0.00    -0.032 NA
ATOM      9  O   UNL     1      -2.254  -4.468 -15.842  0.00  0.00    -0.239 OA
ATOM     10  N   UNL     1      -1.884  -4.120 -14.520  0.00  0.00    -0.027 NA
ATOM     11  N   UNL     1      -5.413  -3.515 -14.518  0.00  0.00    -0.337 N 
ATOM     12  H   UNL     1      -5.649  -3.202 -13.631  0.00  0.00    +0.144 HD
ATOM     13  H   UNL     1      -6.098  -3.605 -15.199  0.00  0.00    +0.144 HD
ENDROOT
BRANCH   1  15
ATOM     14  N   UNL     1      -2.367  -2.093  -8.165  0.00  0.00    -0.202 N 
ATOM     15  C   UNL     1      -1.737  -2.533  -9.272  0.00  0.00    +0.285 C 
ATOM     16  O   UNL     1      -0.536  -2.724  -9.253  0.00  0.00    -0.267 OA
ATOM     17  H   UNL     1      -3.325  -1.941  -8.180  0.00  0.00    +0.178 HD
BRANCH  14  19
ATOM     18  C   UNL     1      -2.245  -1.432  -5.925  0.00  0.00    +0.138 C 
ATOM     19  N   UNL     1      -1.639  -1.856  -6.992  0.00  0.00    -0.187 NA
BRANCH  18  23
ATOM     20  C   UNL     1      -0.037  -0.712  -2.371  0.00  0.00    +0.030 A 
ATOM     21  C   UNL     1      -1.411  -0.493  -2.391  0.00  0.00    +0.024 A 
ATOM     22  C   UNL     1      -2.131  -0.725  -3.542  0.00  0.00    +0.011 A 
ATOM     23  C   UNL     1      -1.479  -1.182  -4.692  0.00  0.00    -0.005 A 
ATOM     24  C   UNL     1      -0.099  -1.401  -4.668  0.00  0.00    +0.011 A 
ATOM     25  C   UNL     1       0.615  -1.161  -3.514  0.00  0.00    +0.024 A 
BRANCH  20  26
ATOM     26  N   UNL     1       0.688  -0.476  -1.203  0.00  0.00    -0.330 N 
BRANCH  26  28
ATOM     27  C   UNL     1      -0.019   1.526   0.010  0.00  0.00    +0.024 C 
ATOM     28  C   UNL     1       0.002  -0.004   0.002  0.00  0.00    +0.102 C 
ENDBRANCH  26  28
BRANCH  26  29
ATOM     29  C   UNL     1       2.135  -0.701  -1.182  0.00  0.00    +0.102 C 
ATOM     30  C   UNL     1       2.421  -2.145  -0.763  0.00  0.00    +0.024 C 
ENDBRANCH  26  29
ENDBRANCH  20  26
ENDBRANCH  18  23
ENDBRANCH  14  19
ENDBRANCH   1  15
BRANCH   2  31
ATOM     31  C   UNL     1      -0.547  -3.563 -11.973  0.00  0.00    -0.020 C 
BRANCH  31  32
ATOM     32  N   UNL     1       0.141  -2.362 -12.467  0.00  0.00    +0.383 N 
ATOM     33  C   UNL     1       0.168  -1.345 -11.409  0.00  0.00    -0.078 C 
ATOM     34  C   UNL     1       0.811  -0.064 -11.944  0.00  0.00    -0.016 C 
ATOM     35  C   UNL     1       2.242  -0.369 -12.397  0.00  0.00    -0.018 C 
ATOM     36  C   UNL     1       2.208  -1.483 -13.447  0.00  0.00    -0.016 C 
ATOM     37  C   UNL     1       1.513  -2.712 -12.857  0.00  0.00    -0.078 C 
ATOM     38  C   UNL     1       2.865   0.889 -13.006  0.00  0.00    +0.007 C 
ATOM     39  H   UNL     1      -0.352  -1.999 -13.268  0.00  0.00    -0.081 HD
ENDBRANCH  31  32
ENDBRANCH   2  31
TORSDOF 8
