REMARK  Name = ZINC25161987
REMARK  9 active torsions:
REMARK  status: ('A' for Active; 'I' for Inactive)
REMARK    1  A    between atoms: C_1  and  C_2
REMARK    2  A    between atoms: C_2  and  C_3
REMARK    3  A    between atoms: C_2  and  C_4
REMARK    4  A    between atoms: C_4  and  C_6
REMARK    5  A    between atoms: C_4  and  N_13
REMARK    6  A    between atoms: C_14  and  C_16
REMARK    7  A    between atoms: C_19  and  S_22
REMARK    8  A    between atoms: S_22  and  N_25
REMARK    9  A    between atoms: N_25  and  C_26
REMARK                            x       y       z     vdW  Elec       q    Type
REMARK                         _______ _______ _______ _____ _____    ______ ____
ROOT
ATOM      1  N   UNL     1      -0.721   1.571  -1.179  0.00  0.00    -0.304 N 
ATOM      2  C   UNL     1      -0.620   0.902  -2.344  0.00  0.00    +0.245 C 
ATOM      3  O   UNL     1       0.058  -0.104  -2.411  0.00  0.00    -0.270 OA
ATOM      4  H   UNL     1      -1.336   2.482  -1.119  0.00  0.00    +0.150 HD
ENDROOT
BRANCH   2   5
ATOM      5  C   UNL     1      -1.335   1.392  -3.542  0.00  0.00    +0.037 A 
ATOM      6  C   UNL     1      -2.120   2.543  -3.468  0.00  0.00    +0.015 A 
ATOM      7  C   UNL     1      -2.782   2.998  -4.590  0.00  0.00    +0.029 A 
ATOM      8  C   UNL     1      -2.676   2.308  -5.785  0.00  0.00    +0.105 A 
ATOM      9  C   UNL     1      -1.903   1.163  -5.865  0.00  0.00    +0.029 A 
ATOM     10  C   UNL     1      -1.233   0.701  -4.751  0.00  0.00    +0.015 A 
BRANCH   8  11
ATOM     11  S   UNL     1      -3.530   2.891  -7.212  0.00  0.00    +0.059 S 
ATOM     12  O   UNL     1      -3.744   4.282  -7.017  0.00  0.00    -0.153 OA
ATOM     13  O   UNL     1      -2.833   2.378  -8.340  0.00  0.00    -0.153 OA
BRANCH  11  14
ATOM     14  N   UNL     1      -5.024   2.177  -7.215  0.00  0.00    -0.187 NA
ATOM     15  H   UNL     1      -5.227   1.357  -7.919  0.00  0.00    +0.148 HD
BRANCH  14  16
ATOM     16  C   UNL     1      -5.983   2.483  -6.151  0.00  0.00    +0.077 C 
ATOM     17  C   UNL     1      -6.925   1.363  -5.704  0.00  0.00    +0.022 C 
ATOM     18  C   UNL     1      -7.465   2.534  -6.528  0.00  0.00    +0.022 C 
ENDBRANCH  14  16
ENDBRANCH  11  14
ENDBRANCH   8  11
ENDBRANCH   2   5
BRANCH   1  19
ATOM     19  C   UNL     1      -0.013   1.086   0.008  0.00  0.00    +0.106 C 
BRANCH  19  20
ATOM     20  C   UNL     1      -0.718   1.572   1.248  0.00  0.00    -0.027 A 
ATOM     21  C   UNL     1      -1.223   2.858   1.296  0.00  0.00    +0.007 A 
ATOM     22  C   UNL     1      -1.875   3.302   2.431  0.00  0.00    +0.020 A 
ATOM     23  C   UNL     1      -2.012   2.464   3.523  0.00  0.00    +0.041 A 
ATOM     24  C   UNL     1      -1.502   1.179   3.476  0.00  0.00    +0.020 A 
ATOM     25  C   UNL     1      -0.855   0.733   2.338  0.00  0.00    +0.007 A 
ATOM     26 CL   UNL     1      -2.824   3.024   4.951  0.00  0.00    -0.084 Cl
ENDBRANCH  19  20
BRANCH  19  28
ATOM     27  C   UNL     1       2.163   1.109   1.237  0.00  0.00    +0.009 C 
ATOM     28  C   UNL     1       1.423   1.615  -0.003  0.00  0.00    +0.008 C 
ATOM     29  C   UNL     1       2.139   1.122  -1.262  0.00  0.00    +0.009 C 
ENDBRANCH  19  28
ENDBRANCH   1  19
TORSDOF 7
