REMARK  Name = ZINC06199202
REMARK  10 active torsions:
REMARK  status: ('A' for Active; 'I' for Inactive)
REMARK    1  A    between atoms: C_1  and  C_2
REMARK    2  A    between atoms: C_5  and  S_8
REMARK    3  A    between atoms: S_8  and  C_11
REMARK    4  A    between atoms: C_11  and  N_12
REMARK    5  A    between atoms: C_13  and  C_17
REMARK    6  A    between atoms: C_17  and  N_54
REMARK    7  A    between atoms: C_18  and  C_19
REMARK    8  A    between atoms: C_18  and  N_54
REMARK    9  A    between atoms: C_26  and  C_27
REMARK   10  A    between atoms: C_26  and  N_54
REMARK                            x       y       z     vdW  Elec       q    Type
REMARK                         _______ _______ _______ _____ _____    ______ ____
ROOT
ATOM      1  C   UNL     1      -1.910  -0.611  -2.478  0.00  0.00    +0.001 C 
ENDROOT
BRANCH   1   3
ATOM      2  N   UNL     1      -1.677  -1.015   0.029  0.00  0.00    -0.210 N 
ATOM      3  C   UNL     1      -2.396  -1.009  -1.109  0.00  0.00    +0.137 A 
ATOM      4  N   UNL     1      -3.601  -1.417  -0.794  0.00  0.00    -0.115 NA
ATOM      5  N   UNL     1      -3.622  -1.661   0.470  0.00  0.00    -0.023 NA
ATOM      6  N   UNL     1      -2.459  -1.424   0.970  0.00  0.00    -0.042 NA
BRANCH   2   7
ATOM      7  C   UNL     1      -0.270  -0.634   0.171  0.00  0.00    +0.318 C 
BRANCH   7   8
ATOM      8  S   UNL     1      -0.162   1.100   0.692  0.00  0.00    +0.017 S 
ATOM      9  O   UNL     1      -0.614   1.954  -0.350  0.00  0.00    -0.168 OA
ATOM     10  O   UNL     1      -0.661   1.246   2.015  0.00  0.00    -0.168 OA
BRANCH   8  15
ATOM     11  C   UNL     1       5.749   2.220   1.145  0.00  0.00    +0.044 C 
ATOM     12  C   UNL     1       4.273   1.941   1.032  0.00  0.00    -0.050 A 
ATOM     13  C   UNL     1       3.619   2.155  -0.167  0.00  0.00    +0.005 A 
ATOM     14  C   UNL     1       2.264   1.899  -0.271  0.00  0.00    +0.027 A 
ATOM     15  C   UNL     1       1.564   1.427   0.824  0.00  0.00    +0.090 A 
ATOM     16  C   UNL     1       2.217   1.218   2.024  0.00  0.00    +0.027 A 
ATOM     17  C   UNL     1       3.573   1.470   2.127  0.00  0.00    +0.005 A 
ENDBRANCH   8  15
ENDBRANCH   7   8
ENDBRANCH   2   7
ENDBRANCH   1   3
BRANCH   1  18
ATOM     18  N   UNL     1      -1.248  -1.774  -3.106  0.00  0.00    +0.392 N 
ATOM     19  H   UNL     1      -0.549  -2.151  -2.455  0.00  0.00    -0.080 HD
BRANCH  18  20
ATOM     20  C   UNL     1      -2.245  -2.825  -3.400  0.00  0.00    -0.040 C 
BRANCH  20  21
ATOM     21  C   UNL     1      -1.522  -4.075  -3.831  0.00  0.00    -0.046 A 
ATOM     22  C   UNL     1      -1.441  -4.399  -5.172  0.00  0.00    +0.003 A 
ATOM     23  C   UNL     1      -0.774  -5.543  -5.568  0.00  0.00    +0.000 A 
ATOM     24  C   UNL     1      -0.196  -6.369  -4.621  0.00  0.00    +0.001 A 
ATOM     25  C   UNL     1      -0.281  -6.049  -3.280  0.00  0.00    +0.020 A 
ATOM     26  C   UNL     1      -0.945  -4.901  -2.884  0.00  0.00    +0.042 A 
ATOM     27 CL   UNL     1      -1.053  -4.498  -1.198  0.00  0.00    -0.083 Cl
ENDBRANCH  20  21
ENDBRANCH  18  20
BRANCH  18  28
ATOM     28  C   UNL     1      -0.570  -1.359  -4.352  0.00  0.00    -0.002 C 
BRANCH  28  29
ATOM     29  C   UNL     1       0.684  -0.605  -3.991  0.00  0.00    +0.089 A 
ATOM     30  C   UNL     1       1.898  -1.148  -3.788  0.00  0.00    +0.042 A 
ATOM     31  C   UNL     1       2.776  -0.085  -3.474  0.00  0.00    +0.041 A 
ATOM     32  C   UNL     1       2.046   1.045  -3.505  0.00  0.00    +0.195 A 
ATOM     33  O   UNL     1       0.781   0.724  -3.824  0.00  0.00    -0.470 OA
ENDBRANCH  28  29
ENDBRANCH  18  28
ENDBRANCH   1  18
TORSDOF 9
