REMARK  Name = ZINC21218552
REMARK  6 active torsions:
REMARK  status: ('A' for Active; 'I' for Inactive)
REMARK    1  A    between atoms: C_1  and  C_2
REMARK    2  A    between atoms: C_2  and  C_3
REMARK    3  A    between atoms: C_2  and  C_4
REMARK    4  A    between atoms: C_2  and  C_5
REMARK    5  A    between atoms: C_8  and  C_11
REMARK    6  A    between atoms: C_16  and  C_22
REMARK                            x       y       z     vdW  Elec       q    Type
REMARK                         _______ _______ _______ _____ _____    ______ ____
ROOT
ATOM      1  C   UNL     1      -2.553   3.869   0.045  0.00  0.00    +0.032 C 
ATOM      2  C   UNL     1      -3.374   3.479  -1.186  0.00  0.00    +0.059 C 
ATOM      3  C   UNL     1      -4.710   4.178  -1.145  0.00  0.00    +0.018 C 
ATOM      4  C   UNL     1      -5.299   4.475   0.033  0.00  0.00    +0.020 C 
ATOM      5  C   UNL     1      -6.643   5.164   0.049  0.00  0.00    +0.065 C 
ATOM      6  C   UNL     1      -6.726   6.142  -1.124  0.00  0.00    +0.109 C 
ATOM      7  C   UNL     1      -6.281   5.443  -2.382  0.00  0.00    +0.218 C 
ATOM      8  O   UNL     1      -6.789   5.728  -3.445  0.00  0.00    -0.275 OA
ATOM      9  N   UNL     1      -5.321   4.504  -2.329  0.00  0.00    -0.289 N 
ATOM     10  C   UNL     1      -4.688   4.157   1.257  0.00  0.00    +0.162 C 
ATOM     11  O   UNL     1      -5.255   4.429   2.297  0.00  0.00    -0.292 OA
ATOM     12  C   UNL     1      -3.343   3.484   1.301  0.00  0.00    +0.088 C 
ATOM     13  H   UNL     1      -5.026   3.994  -3.258  0.00  0.00    +0.155 HD
ENDROOT
BRANCH   5  14
ATOM     14  C   UNL     1      -7.737   4.135  -0.075  0.00  0.00    -0.001 A 
ATOM     15  C   UNL     1      -7.795   3.319  -1.189  0.00  0.00    +0.045 A 
ATOM     16  C   UNL     1      -8.800   2.374  -1.303  0.00  0.00    +0.124 A 
ATOM     17  C   UNL     1      -9.747   2.246  -0.301  0.00  0.00    +0.041 A 
ATOM     18  C   UNL     1      -9.690   3.062   0.812  0.00  0.00    +0.041 A 
ATOM     19  C   UNL     1      -8.682   4.004   0.928  0.00  0.00    +0.127 A 
ATOM     20  F   UNL     1      -8.623   4.799   2.019  0.00  0.00    -0.205 F 
ATOM     21  F   UNL     1      -8.856   1.575  -2.391  0.00  0.00    -0.205 F 
ENDBRANCH   5  14
BRANCH   1  25
ATOM     22  C   UNL     1       1.175   1.783   0.000  0.00  0.00    -0.042 A 
ATOM     23  C   UNL     1      -0.013   1.076   0.008  0.00  0.00    +0.004 A 
ATOM     24  C   UNL     1      -1.219   1.751   0.017  0.00  0.00    +0.004 A 
ATOM     25  C   UNL     1      -1.238   3.133   0.030  0.00  0.00    -0.043 A 
ATOM     26  C   UNL     1      -0.050   3.840   0.022  0.00  0.00    +0.004 A 
ATOM     27  C   UNL     1       1.156   3.165   0.008  0.00  0.00    +0.004 A 
BRANCH  22  29
ATOM     28  C   UNL     1       2.571   0.176  -1.271  0.00  0.00    +0.015 C 
ATOM     29  C   UNL     1       2.490   1.048  -0.016  0.00  0.00    -0.013 C 
ATOM     30  C   UNL     1       3.639   2.058  -0.022  0.00  0.00    +0.015 C 
ATOM     31  C   UNL     1       2.595   0.162   1.227  0.00  0.00    +0.015 C 
ENDBRANCH  22  29
ENDBRANCH   1  25
TORSDOF 3
