REMARK  Name = ZINC63558020
REMARK  10 active torsions:
REMARK  status: ('A' for Active; 'I' for Inactive)
REMARK    1  A    between atoms: C_1  and  C_2
REMARK    2  A    between atoms: C_2  and  C_3
REMARK    3  A    between atoms: C_3  and  C_4
REMARK    4  A    between atoms: C_3  and  C_5
REMARK    5  A    between atoms: C_3  and  C_6
REMARK    6  A    between atoms: C_10  and  N_13
REMARK    7  A    between atoms: C_14  and  C_16
REMARK    8  A    between atoms: N_21  and  C_23
REMARK    9  A    between atoms: C_23  and  C_24
REMARK   10  A    between atoms: C_24  and  C_25
REMARK                            x       y       z     vdW  Elec       q    Type
REMARK                         _______ _______ _______ _____ _____    ______ ____
ROOT
ATOM      1  C   UNL     1       2.750  -7.780  -0.035  0.00  0.00    +0.101 C 
ATOM      2  C   UNL     1       3.167  -7.797   1.454  0.00  0.00    +0.110 C 
ATOM      3  C   UNL     1       3.735  -9.183   1.665  0.00  0.00    +0.216 C 
ATOM      4  O   UNL     1       3.917  -9.702   2.746  0.00  0.00    -0.276 OA
ATOM      5  N   UNL     1       4.007  -9.756   0.480  0.00  0.00    -0.300 N 
ATOM      6  C   UNL     1       3.678  -8.859  -0.635  0.00  0.00    +0.121 C 
ENDROOT
BRANCH   1   8
ATOM      7  N   UNL     1       2.351  -5.346  -0.218  0.00  0.00    -0.290 N 
ATOM      8  C   UNL     1       3.018  -6.433  -0.655  0.00  0.00    +0.220 C 
ATOM      9  O   UNL     1       3.833  -6.327  -1.546  0.00  0.00    -0.275 OA
ATOM     10  H   UNL     1       1.699  -5.431   0.494  0.00  0.00    +0.151 HD
BRANCH   7  14
ATOM     11  C   UNL     1       0.739  -2.027  -1.265  0.00  0.00    +0.135 C 
ATOM     12  N   UNL     1       1.520  -2.557  -2.427  0.00  0.00    -0.241 NA
ATOM     13  N   UNL     1       1.956  -3.921  -2.154  0.00  0.00    -0.227 NA
ATOM     14  C   UNL     1       2.611  -4.036  -0.821  0.00  0.00    +0.216 C 
ATOM     15  S   UNL     1       1.763  -2.695   0.117  0.00  0.00    -0.101 S 
ATOM     16  H   UNL     1       0.977  -2.514  -3.277  0.00  0.00    +0.142 HD
ATOM     17  H   UNL     1       2.563  -4.260  -2.886  0.00  0.00    +0.143 HD
BRANCH  11  18
ATOM     18  C   UNL     1       0.718  -0.497  -1.257  0.00  0.00    -0.009 C 
ATOM     19  C   UNL     1      -0.022   0.009  -2.496  0.00  0.00    +0.013 C 
ATOM     20  C   UNL     1       2.154   0.032  -1.268  0.00  0.00    +0.013 C 
BRANCH  18  22
ATOM     21  C   UNL     1      -0.019   1.526   0.010  0.00  0.00    +0.004 C 
ATOM     22  C   UNL     1       0.002  -0.004   0.002  0.00  0.00    +0.005 C 
ENDBRANCH  18  22
ENDBRANCH  11  18
ENDBRANCH   7  14
ENDBRANCH   1   8
BRANCH   5  23
ATOM     23  C   UNL     1       4.560 -11.104   0.321  0.00  0.00    +0.112 C 
BRANCH  23  24
ATOM     24  C   UNL     1       3.416 -12.116   0.221  0.00  0.00    +0.052 C 
BRANCH  24  25
ATOM     25  C   UNL     1       3.985 -13.502   0.057  0.00  0.00    -0.040 C 
ATOM     26  C   UNL     1       4.213 -14.408   1.035  0.00  0.00    +0.002 A 
ATOM     27  C   UNL     1       4.007 -14.374   2.488  0.00  0.00    +0.048 A 
ATOM     28  C   UNL     1       4.340 -15.462   3.223  0.00  0.00    +0.124 A 
ATOM     29  C   UNL     1       4.874 -16.617   2.630  0.00  0.00    +0.040 A 
ATOM     30  C   UNL     1       5.091 -16.721   1.302  0.00  0.00    +0.029 A 
ATOM     31  C   UNL     1       4.777 -15.638   0.435  0.00  0.00    +0.043 A 
ATOM     32  N   UNL     1       4.894 -15.497  -0.863  0.00  0.00    -0.380 N 
ATOM     33  C   UNL     1       4.410 -14.163  -1.235  0.00  0.00    +0.144 C 
ATOM     34  F   UNL     1       4.152 -15.435   4.561  0.00  0.00    -0.205 F 
ATOM     35  H   UNL     1       5.240 -16.165  -1.476  0.00  0.00    +0.160 HD
ENDBRANCH  24  25
ENDBRANCH  23  24
ENDBRANCH   5  23
TORSDOF 7
