REMARK  Name = ZINC22659642
REMARK  7 active torsions:
REMARK  status: ('A' for Active; 'I' for Inactive)
REMARK    1  A    between atoms: C_1  and  C_2
REMARK    2  A    between atoms: C_5  and  N_9
REMARK    3  A    between atoms: C_7  and  C_8
REMARK    4  A    between atoms: C_19  and  S_20
REMARK    5  A    between atoms: S_20  and  C_21
REMARK    6  A    between atoms: C_21  and  C_22
REMARK    7  A    between atoms: C_27  and  C_30
REMARK                            x       y       z     vdW  Elec       q    Type
REMARK                         _______ _______ _______ _____ _____    ______ ____
ROOT
ATOM      1  N   UNL     1      -2.750  -4.547   0.004  0.00  0.00    -0.255 N 
ATOM      2  C   UNL     1      -3.932  -4.994  -0.481  0.00  0.00    +0.267 A 
ATOM      3  O   UNL     1      -4.045  -6.118  -0.933  0.00  0.00    -0.267 OA
ATOM      4  C   UNL     1      -5.075  -4.071  -0.442  0.00  0.00    +0.065 A 
ATOM      5  C   UNL     1      -6.333  -4.437  -0.916  0.00  0.00    +0.015 A 
ATOM      6  C   UNL     1      -7.364  -3.540  -0.856  0.00  0.00    +0.001 A 
ATOM      7  C   UNL     1      -7.169  -2.270  -0.327  0.00  0.00    +0.002 A 
ATOM      8  C   UNL     1      -5.946  -1.885   0.145  0.00  0.00    +0.028 A 
ATOM      9  C   UNL     1      -4.873  -2.780   0.097  0.00  0.00    +0.079 A 
ATOM     10  N   UNL     1      -3.646  -2.443   0.559  0.00  0.00    -0.223 NA
ATOM     11  C   UNL     1      -2.640  -3.281   0.509  0.00  0.00    +0.177 A 
ENDROOT
BRANCH   1  16
ATOM     12  C   UNL     1       1.786  -7.956  -0.059  0.00  0.00    +0.044 C 
ATOM     13  C   UNL     1       0.582  -7.050  -0.043  0.00  0.00    -0.047 A 
ATOM     14  C   UNL     1       0.324  -6.225  -1.122  0.00  0.00    +0.005 A 
ATOM     15  C   UNL     1      -0.783  -5.399  -1.112  0.00  0.00    +0.026 A 
ATOM     16  C   UNL     1      -1.630  -5.389  -0.012  0.00  0.00    +0.052 A 
ATOM     17  C   UNL     1      -1.369  -6.218   1.070  0.00  0.00    +0.030 A 
ATOM     18  C   UNL     1      -0.263  -7.047   1.052  0.00  0.00    -0.046 A 
ATOM     19  C   UNL     1       0.022  -7.948   2.225  0.00  0.00    +0.044 C 
ENDBRANCH   1  16
BRANCH  11  20
ATOM     20  S   UNL     1      -1.076  -2.755   1.126  0.00  0.00    -0.078 S 
BRANCH  20  21
ATOM     21  C   UNL     1      -1.493  -1.072   1.646  0.00  0.00    +0.173 C 
BRANCH  21  22
ATOM     22  C   UNL     1      -0.270  -0.408   2.224  0.00  0.00    +0.226 C 
ATOM     23  O   UNL     1       0.780  -1.012   2.279  0.00  0.00    -0.275 OA
ATOM     24  N   UNL     1      -0.343   0.859   2.680  0.00  0.00    -0.301 N 
ATOM     25  C   UNL     1      -1.606   1.606   2.614  0.00  0.00    +0.108 C 
ATOM     26  C   UNL     1      -1.363   2.933   1.898  0.00  0.00    +0.032 C 
ATOM     27  C   UNL     1      -0.224   3.683   2.591  0.00  0.00    +0.078 C 
ATOM     28  C   UNL     1       1.058   2.850   2.517  0.00  0.00    +0.032 C 
ATOM     29  C   UNL     1       0.840   1.520   3.246  0.00  0.00    +0.108 C 
BRANCH  27  30
ATOM     30  C   UNL     1      -0.002   5.006   1.905  0.00  0.00    +0.214 C 
ATOM     31  O   UNL     1       1.074   5.258   1.405  0.00  0.00    -0.276 OA
ATOM     32  N   UNL     1      -1.001   5.910   1.846  0.00  0.00    -0.329 N 
ATOM     33  H   UNL     1      -0.839   6.876   1.345  0.00  0.00    +0.145 HD
ATOM     34  H   UNL     1      -1.977   5.682   2.299  0.00  0.00    +0.145 HD
ENDBRANCH  27  30
ENDBRANCH  21  22
ENDBRANCH  20  21
ENDBRANCH  11  20
TORSDOF 5
