REMARK  Name = ZINC23131591
REMARK  7 active torsions:
REMARK  status: ('A' for Active; 'I' for Inactive)
REMARK    1  A    between atoms: C_1  and  C_2
REMARK    2  A    between atoms: C_9  and  C_11
REMARK    3  A    between atoms: N_13  and  C_14
REMARK    4  A    between atoms: C_14  and  C_15
REMARK    5  A    between atoms: C_15  and  N_16
REMARK    6  A    between atoms: N_16  and  S_17
REMARK    7  A    between atoms: S_17  and  C_20
REMARK                            x       y       z     vdW  Elec       q    Type
REMARK                         _______ _______ _______ _____ _____    ______ ____
ROOT
ATOM      1  C   UNL     1       1.610  -5.258   2.944  0.00  0.00    +0.251 C 
ATOM      2  O   UNL     1       1.772  -5.004   4.123  0.00  0.00    -0.270 OA
ATOM      3  N   UNL     1       1.697  -6.531   2.511  0.00  0.00    -0.310 N 
ATOM      4  H   UNL     1       1.568  -6.734   1.572  0.00  0.00    +0.149 HD
ENDROOT
BRANCH   1  12
ATOM      5  C   UNL     1      -0.019   1.526   0.010  0.00  0.00    +0.008 C 
ATOM      6  C   UNL     1       0.002  -0.004   0.002  0.00  0.00    -0.009 C 
ATOM      7  C   UNL     1       0.716  -0.496  -1.260  0.00  0.00    +0.009 C 
ATOM      8  C   UNL     1       0.494  -2.009  -1.394  0.00  0.00    +0.043 C 
ATOM      9  C   UNL     1       0.790  -2.651  -0.071  0.00  0.00    -0.006 A 
ATOM     10  C   UNL     1       0.909  -2.022   1.133  0.00  0.00    -0.036 A 
ATOM     11  C   UNL     1       1.189  -2.823   2.230  0.00  0.00    +0.024 A 
ATOM     12  C   UNL     1       1.319  -4.179   1.995  0.00  0.00    +0.074 A 
ATOM     13  S   UNL     1       1.042  -4.274   0.237  0.00  0.00    -0.088 S 
ATOM     14  C   UNL     1       0.739  -0.509   1.243  0.00  0.00    +0.039 C 
ENDBRANCH   1  12
BRANCH   3  15
ATOM     15  C   UNL     1       1.987  -7.609   3.460  0.00  0.00    +0.121 C 
BRANCH  15  16
ATOM     16  C   UNL     1       2.031  -8.945   2.716  0.00  0.00    +0.124 C 
BRANCH  16  17
ATOM     17  N   UNL     1       2.321 -10.024   3.664  0.00  0.00    -0.188 NA
ATOM     18  H   UNL     1       2.663  -9.814   4.548  0.00  0.00    +0.148 HD
BRANCH  17  19
ATOM     19  S   UNL     1       2.067 -11.601   3.228  0.00  0.00    +0.058 S 
ATOM     20  O   UNL     1       2.462 -12.397   4.337  0.00  0.00    -0.153 OA
ATOM     21  O   UNL     1       0.760 -11.663   2.673  0.00  0.00    -0.153 OA
BRANCH  19  22
ATOM     22  C   UNL     1       3.188 -11.967   1.919  0.00  0.00    +0.107 A 
ATOM     23  C   UNL     1       2.812 -11.752   0.607  0.00  0.00    +0.028 A 
ATOM     24  C   UNL     1       3.692 -12.039  -0.421  0.00  0.00    +0.003 A 
ATOM     25  C   UNL     1       4.947 -12.542  -0.136  0.00  0.00    +0.020 A 
ATOM     26  C   UNL     1       5.324 -12.757   1.178  0.00  0.00    +0.043 A 
ATOM     27  C   UNL     1       4.446 -12.463   2.206  0.00  0.00    +0.048 A 
ATOM     28 CL   UNL     1       6.901 -13.388   1.536  0.00  0.00    -0.083 Cl
ENDBRANCH  19  22
ENDBRANCH  17  19
ENDBRANCH  16  17
ENDBRANCH  15  16
ENDBRANCH   3  15
TORSDOF 6
