REMARK  Name = ZINC01296283
REMARK  3 active torsions:
REMARK  status: ('A' for Active; 'I' for Inactive)
REMARK    1  A    between atoms: N_11  and  C_12
REMARK    2  A    between atoms: C_12  and  C_13
REMARK    3  A    between atoms: C_18  and  O_19
REMARK                            x       y       z     vdW  Elec       q    Type
REMARK                         _______ _______ _______ _____ _____    ______ ____
ROOT
ATOM      1  C   UNL     1      -0.017   1.374   0.010  0.00  0.00    +0.002 A 
ATOM      2  C   UNL     1       1.169   2.094   0.002  0.00  0.00    +0.002 A 
ATOM      3  C   UNL     1       2.383   1.441  -0.013  0.00  0.00    +0.028 A 
ATOM      4  C   UNL     1       2.420   0.049  -0.021  0.00  0.00    +0.065 A 
ATOM      5  C   UNL     1       1.219  -0.679  -0.013  0.00  0.00    +0.065 A 
ATOM      6  C   UNL     1       0.002  -0.004   0.002  0.00  0.00    +0.028 A 
ATOM      7  N   UNL     1       1.568  -2.004  -0.024  0.00  0.00    -0.328 N 
ATOM      8  H   UNL     1       0.951  -2.753  -0.022  0.00  0.00    +0.169 HD
ATOM      9  C   UNL     1       2.896  -2.090  -0.037  0.00  0.00    +0.172 A 
ATOM     10  N   UNL     1       3.434  -0.872  -0.035  0.00  0.00    -0.328 N 
ATOM     11  N   UNL     1       3.610  -3.265  -0.050  0.00  0.00    -0.312 N 
ATOM     12  H   UNL     1       3.143  -4.116  -0.050  0.00  0.00    +0.149 HD
ATOM     13  H   UNL     1       4.383  -0.671  -0.044  0.00  0.00    +0.169 HD
ENDROOT
BRANCH  11  14
ATOM     14  C   UNL     1       5.074  -3.233  -0.064  0.00  0.00    +0.143 C 
BRANCH  14  15
ATOM     15  C   UNL     1       5.607  -4.643  -0.077  0.00  0.00    +0.013 A 
ATOM     16  C   UNL     1       6.052  -5.224   1.095  0.00  0.00    +0.024 A 
ATOM     17  C   UNL     1       6.542  -6.518   1.085  0.00  0.00    +0.019 A 
ATOM     18  C   UNL     1       6.587  -7.233  -0.099  0.00  0.00    +0.034 A 
ATOM     19  C   UNL     1       6.144  -6.655  -1.273  0.00  0.00    +0.061 A 
ATOM     20  C   UNL     1       5.646  -5.359  -1.263  0.00  0.00    +0.135 A 
ATOM     21 BR   UNL     1       6.207  -7.632  -2.891  0.00  0.00    -0.046 Br
ATOM     22 BR   UNL     1       7.150  -7.310   2.690  0.00  0.00    -0.050 Br
BRANCH  20  23
ATOM     23  O   UNL     1       5.204  -4.791  -2.416  0.00  0.00    -0.505 OA
ATOM     24  H   UNL     1       5.887  -4.318  -2.909  0.00  0.00    +0.292 HD
ENDBRANCH  20  23
ENDBRANCH  14  15
ENDBRANCH  11  14
TORSDOF 3
