REMARK  Name = ZINC09640898
REMARK  11 active torsions:
REMARK  status: ('A' for Active; 'I' for Inactive)
REMARK    1  A    between atoms: C_1  and  C_2
REMARK    2  A    between atoms: C_2  and  C_3
REMARK    3  A    between atoms: C_3  and  C_5
REMARK    4  A    between atoms: C_3  and  N_12
REMARK    5  A    between atoms: C_13  and  C_15
REMARK    6  A    between atoms: C_15  and  N_16
REMARK    7  A    between atoms: C_19  and  C_23
REMARK    8  A    between atoms: C_19  and  C_24
REMARK    9  A    between atoms: C_27  and  C_30
REMARK   10  A    between atoms: C_30  and  C_31
REMARK   11  A    between atoms: C_30  and  C_32
REMARK                            x       y       z     vdW  Elec       q    Type
REMARK                         _______ _______ _______ _____ _____    ______ ____
ROOT
ATOM      1  N   UNL     1      -5.407   1.725  -0.031  0.00  0.00    -0.215 N 
ATOM      2  C   UNL     1      -5.662   1.522  -1.339  0.00  0.00    +0.251 C 
ATOM      3  O   UNL     1      -5.175   0.676  -2.057  0.00  0.00    -0.272 OA
ATOM      4  C   UNL     1      -6.685   2.573  -1.724  0.00  0.00    +0.135 C 
ATOM      5  N   UNL     1      -6.908   3.315  -0.471  0.00  0.00    -0.281 N 
ATOM      6  C   UNL     1      -6.122   2.744   0.459  0.00  0.00    +0.310 C 
ATOM      7  O   UNL     1      -6.066   3.114   1.615  0.00  0.00    -0.252 OA
ATOM      8  C   UNL     1      -6.126   3.496  -2.809  0.00  0.00    +0.047 C 
ATOM      9  H   UNL     1      -7.507   4.066  -0.342  0.00  0.00    +0.152 HD
ENDROOT
BRANCH   4  10
ATOM     10  C   UNL     1      -7.962   1.923  -2.190  0.00  0.00    -0.015 A 
ATOM     11  C   UNL     1      -7.923   0.688  -2.809  0.00  0.00    +0.006 A 
ATOM     12  C   UNL     1      -9.095   0.089  -3.232  0.00  0.00    +0.004 A 
ATOM     13  C   UNL     1     -10.306   0.731  -3.046  0.00  0.00    -0.045 A 
ATOM     14  C   UNL     1     -10.344   1.969  -2.431  0.00  0.00    +0.004 A 
ATOM     15  C   UNL     1      -9.172   2.565  -2.003  0.00  0.00    +0.006 A 
BRANCH  13  16
ATOM     16  C   UNL     1     -11.583   0.082  -3.512  0.00  0.00    +0.013 C 
ATOM     17  C   UNL     1     -11.515  -0.148  -5.023  0.00  0.00    +0.012 C 
ATOM     18  C   UNL     1     -11.763  -1.260  -2.800  0.00  0.00    +0.012 C 
ENDBRANCH  13  16
ENDBRANCH   4  10
BRANCH   1  19
ATOM     19  C   UNL     1      -4.466   0.925   0.757  0.00  0.00    +0.213 C 
BRANCH  19  21
ATOM     20  N   UNL     1      -2.062   0.977   1.338  0.00  0.00    -0.307 N 
ATOM     21  C   UNL     1      -3.095   1.545   0.684  0.00  0.00    +0.231 C 
ATOM     22  O   UNL     1      -2.920   2.556   0.037  0.00  0.00    -0.274 OA
ATOM     23  H   UNL     1      -2.202   0.168   1.856  0.00  0.00    +0.149 HD
BRANCH  20  24
ATOM     24  C   UNL     1      -0.729   1.579   1.267  0.00  0.00    +0.103 C 
BRANCH  24  25
ATOM     25  C   UNL     1       0.067   1.185   2.485  0.00  0.00    -0.027 A 
ATOM     26  C   UNL     1      -0.027  -0.101   2.984  0.00  0.00    +0.006 A 
ATOM     27  C   UNL     1       0.706  -0.465   4.098  0.00  0.00    +0.015 A 
ATOM     28  C   UNL     1       1.525   0.461   4.719  0.00  0.00    +0.018 A 
ATOM     29  C   UNL     1       1.614   1.749   4.223  0.00  0.00    +0.015 A 
ATOM     30  C   UNL     1       0.884   2.110   3.105  0.00  0.00    +0.006 A 
ATOM     31 BR   UNL     1       2.523  -0.034   6.247  0.00  0.00    -0.050 Br
ENDBRANCH  24  25
BRANCH  24  33
ATOM     32  C   UNL     1      -0.753   1.593  -1.232  0.00  0.00    +0.006 C 
ATOM     33  C   UNL     1      -0.013   1.086   0.008  0.00  0.00    +0.024 C 
ENDBRANCH  24  33
ENDBRANCH  20  24
ENDBRANCH  19  21
ENDBRANCH   1  19
TORSDOF 7
