REMARK  Name = ZINC16530467
REMARK  14 active torsions:
REMARK  status: ('A' for Active; 'I' for Inactive)
REMARK    1  A    between atoms: C_1  and  C_2
REMARK    2  A    between atoms: C_2  and  O_3
REMARK    3  A    between atoms: O_3  and  C_4
REMARK    4  A    between atoms: C_4  and  C_5
REMARK    5  A    between atoms: C_5  and  C_6
REMARK    6  A    between atoms: C_6  and  N_7
REMARK    7  A    between atoms: N_7  and  C_8
REMARK    8  A    between atoms: C_8  and  C_9
REMARK    9  A    between atoms: C_19  and  C_21
REMARK   10  A    between atoms: C_26  and  C_27
REMARK   11  A    between atoms: C_28  and  C_30
REMARK   12  A    between atoms: C_30  and  C_31
REMARK   13  A    between atoms: C_30  and  C_32
REMARK   14  A    between atoms: C_30  and  C_33
REMARK                            x       y       z     vdW  Elec       q    Type
REMARK                         _______ _______ _______ _____ _____    ______ ____
ROOT
ATOM      1  C   UNL     1      -0.158  -2.475  -1.973  0.00  0.00    +0.234 C 
ATOM      2  O   UNL     1      -1.125  -3.182  -2.165  0.00  0.00    -0.274 OA
ATOM      3  N   UNL     1      -0.319  -1.151  -1.779  0.00  0.00    -0.289 N 
ATOM      4  C   UNL     1       0.851  -0.268  -1.658  0.00  0.00    +0.114 C 
ATOM      5  C   UNL     1       0.849   0.700  -2.851  0.00  0.00    +0.062 C 
ATOM      6  C   UNL     1      -0.545   1.193  -3.066  0.00  0.00    -0.003 A 
ATOM      7  C   UNL     1      -1.702   0.669  -2.577  0.00  0.00    -0.012 A 
ATOM      8  C   UNL     1      -2.882   1.322  -2.929  0.00  0.00    +0.013 A 
ATOM      9  C   UNL     1      -2.839   2.416  -3.723  0.00  0.00    +0.046 A 
ATOM     10  S   UNL     1      -1.086   2.591  -4.014  0.00  0.00    -0.101 S 
ATOM     11  C   UNL     1      -1.665  -0.570  -1.684  0.00  0.00    +0.138 C 
ENDROOT
BRANCH  11  12
ATOM     12  C   UNL     1      -2.687  -1.571  -2.158  0.00  0.00    -0.020 A 
ATOM     13  C   UNL     1      -2.959  -1.695  -3.508  0.00  0.00    +0.006 A 
ATOM     14  C   UNL     1      -3.894  -2.615  -3.942  0.00  0.00    +0.000 A 
ATOM     15  C   UNL     1      -4.563  -3.406  -3.027  0.00  0.00    +0.000 A 
ATOM     16  C   UNL     1      -4.295  -3.279  -1.677  0.00  0.00    +0.004 A 
ATOM     17  C   UNL     1      -3.357  -2.361  -1.242  0.00  0.00    -0.045 A 
ATOM     18  C   UNL     1      -3.064  -2.221   0.229  0.00  0.00    +0.044 C 
ENDBRANCH  11  12
BRANCH   1  19
ATOM     19  C   UNL     1       1.223  -3.078  -1.952  0.00  0.00    +0.203 C 
BRANCH  19  20
ATOM     20  N   UNL     1       1.130  -4.521  -2.186  0.00  0.00    -0.292 N 
ATOM     21  C   UNL     1       1.009  -5.367  -1.143  0.00  0.00    +0.221 C 
ATOM     22  O   UNL     1       0.846  -6.552  -1.340  0.00  0.00    -0.275 OA
BRANCH  21  23
ATOM     23  C   UNL     1       1.076  -4.839   0.267  0.00  0.00    +0.039 C 
ATOM     24  C   UNL     1       0.762  -5.969   1.250  0.00  0.00    +0.020 C 
ATOM     25  C   UNL     1       2.480  -4.298   0.543  0.00  0.00    +0.020 C 
ATOM     26  C   UNL     1       0.052  -3.714   0.439  0.00  0.00    +0.020 C 
ENDBRANCH  21  23
BRANCH  20  27
ATOM     27  C   UNL     1       1.168  -5.045  -3.553  0.00  0.00    +0.110 C 
BRANCH  27  28
ATOM     28  C   UNL     1       2.618  -5.334  -3.949  0.00  0.00    +0.047 C 
BRANCH  28  29
ATOM     29  C   UNL     1       2.657  -5.881  -5.377  0.00  0.00    +0.161 C 
BRANCH  29  30
ATOM     30  O   UNL     1       4.011  -6.150  -5.746  0.00  0.00    -0.380 OA
BRANCH  30  32
ATOM     31  C   UNL     1       5.643  -6.918  -7.355  0.00  0.00    +0.034 C 
ATOM     32  C   UNL     1       4.161  -6.668  -7.069  0.00  0.00    +0.156 C 
ENDBRANCH  30  32
ENDBRANCH  29  30
ENDBRANCH  28  29
ENDBRANCH  27  28
ENDBRANCH  20  27
ENDBRANCH  19  20
ENDBRANCH   1  19
TORSDOF 9
