REMARK  Name = ZINC27377817
REMARK  9 active torsions:
REMARK  status: ('A' for Active; 'I' for Inactive)
REMARK    1  A    between atoms: C_1  and  C_2
REMARK    2  A    between atoms: C_3  and  C_27
REMARK    3  A    between atoms: C_4  and  C_26
REMARK    4  A    between atoms: C_7  and  C_8
REMARK    5  A    between atoms: C_14  and  C_17
REMARK    6  A    between atoms: C_27  and  O_29
REMARK    7  A    between atoms: O_29  and  C_30
REMARK    8  A    between atoms: C_30  and  C_31
REMARK    9  A    between atoms: C_30  and  C_32
REMARK                            x       y       z     vdW  Elec       q    Type
REMARK                         _______ _______ _______ _____ _____    ______ ____
ROOT
ATOM      1  C   UNL     1      -7.859   1.093   1.921  0.00  0.00    +0.263 C 
ATOM      2  O   UNL     1      -7.940   1.597   3.025  0.00  0.00    -0.268 OA
ATOM      3  N   UNL     1      -8.949   0.543   1.350  0.00  0.00    -0.296 N 
ATOM      4  C   UNL     1     -10.267   0.653   1.991  0.00  0.00    +0.108 C 
ATOM      5  C   UNL     1     -10.862  -0.751   2.138  0.00  0.00    +0.020 C 
ATOM      6  C   UNL     1     -10.885  -1.437   0.771  0.00  0.00    +0.016 C 
ATOM      7  C   UNL     1      -9.455  -1.572   0.242  0.00  0.00    +0.092 C 
ATOM      8  C   UNL     1      -8.844  -0.172   0.071  0.00  0.00    +0.121 C 
ENDROOT
BRANCH   7   9
ATOM      9  C   UNL     1      -9.475  -2.276  -1.090  0.00  0.00    +0.201 A 
ATOM     10  N   UNL     1      -8.873  -3.398  -1.346  0.00  0.00    -0.213 NA
ATOM     11  C   UNL     1      -9.107  -3.736  -2.643  0.00  0.00    +0.110 A 
ATOM     12  C   UNL     1      -8.722  -4.811  -3.446  0.00  0.00    +0.031 A 
ATOM     13  C   UNL     1      -9.136  -4.866  -4.758  0.00  0.00    +0.002 A 
ATOM     14  C   UNL     1      -9.934  -3.861  -5.285  0.00  0.00    +0.004 A 
ATOM     15  C   UNL     1     -10.323  -2.793  -4.503  0.00  0.00    +0.048 A 
ATOM     16  C   UNL     1      -9.914  -2.722  -3.180  0.00  0.00    +0.155 A 
ATOM     17  O   UNL     1     -10.123  -1.837  -2.180  0.00  0.00    -0.439 OA
ENDBRANCH   7   9
BRANCH   1  24
ATOM     18  C   UNL     1      -7.155   2.837  -0.568  0.00  0.00    +0.047 C 
ATOM     19  C   UNL     1      -6.259   1.841   0.122  0.00  0.00    -0.006 A 
ATOM     20  C   UNL     1      -4.931   1.515  -0.238  0.00  0.00    +0.083 A 
ATOM     21  C   UNL     1      -4.488   0.567   0.665  0.00  0.00    +0.028 A 
ATOM     22  N   UNL     1      -5.480   0.311   1.533  0.00  0.00    -0.354 N 
ATOM     23  H   UNL     1      -5.330  -0.422   2.339  0.00  0.00    +0.166 HD
ATOM     24  C   UNL     1      -6.575   1.083   1.210  0.00  0.00    +0.106 A 
ATOM     25  C   UNL     1      -3.123  -0.072   0.674  0.00  0.00    +0.064 C 
BRANCH  20  26
ATOM     26  C   UNL     1      -4.163   2.083  -1.359  0.00  0.00    +0.341 C 
ATOM     27  O   UNL     1      -4.200   1.552  -2.451  0.00  0.00    -0.245 OA
BRANCH  26  28
ATOM     28  O   UNL     1      -3.419   3.191  -1.173  0.00  0.00    -0.458 OA
BRANCH  28  29
ATOM     29  C   UNL     1      -2.688   3.695  -2.322  0.00  0.00    +0.171 C 
ATOM     30  C   UNL     1      -1.301   3.052  -2.366  0.00  0.00    +0.052 C 
ATOM     31  C   UNL     1      -2.543   5.214  -2.208  0.00  0.00    +0.052 C 
ENDBRANCH  28  29
ENDBRANCH  26  28
ENDBRANCH  20  26
ENDBRANCH   1  24
TORSDOF 5
