REMARK  Name = ZINC09312247
REMARK  15 active torsions:
REMARK  status: ('A' for Active; 'I' for Inactive)
REMARK    1  A    between atoms: C_1  and  C_2
REMARK    2  A    between atoms: C_2  and  O_3
REMARK    3  A    between atoms: O_3  and  C_4
REMARK    4  A    between atoms: C_7  and  C_13
REMARK    5  A    between atoms: C_9  and  O_10
REMARK    6  A    between atoms: O_10  and  C_11
REMARK    7  A    between atoms: C_11  and  C_12
REMARK    8  A    between atoms: C_16  and  C_17
REMARK    9  A    between atoms: C_16  and  O_27
REMARK   10  A    between atoms: N_32  and  C_33
REMARK   11  A    between atoms: C_33  and  C_34
REMARK   12  A    between atoms: C_34  and  C_35
REMARK   13  A    between atoms: C_35  and  N_71
REMARK   14  A    between atoms: C_36  and  N_71
REMARK   15  A    between atoms: C_37  and  N_71
REMARK                            x       y       z     vdW  Elec       q    Type
REMARK                         _______ _______ _______ _____ _____    ______ ____
ROOT
ATOM      1  C   UNL     1       4.927  -2.955   0.148  0.00  0.00    +0.145 C 
ATOM      2  C   UNL     1       3.707  -2.070   0.048  0.00  0.00    +0.071 C 
ATOM      3  C   UNL     1       3.687  -0.691  -0.047  0.00  0.00    +0.133 C 
ATOM      4  C   UNL     1       2.598  -2.928   0.078  0.00  0.00    +0.249 C 
ATOM      5  O   UNL     1       1.430  -2.587   0.024  0.00  0.00    -0.282 OA
ATOM      6  C   UNL     1       3.096  -4.326   0.183  0.00  0.00    +0.288 C 
ATOM      7  O   UNL     1       2.391  -5.314   0.229  0.00  0.00    -0.266 OA
ATOM      8  N   UNL     1       4.439  -4.335   0.227  0.00  0.00    -0.284 N 
ENDROOT
BRANCH   3   9
ATOM      9  C   UNL     1       2.413   0.014  -0.255  0.00  0.00    +0.021 A 
ATOM     10  C   UNL     1       1.566  -0.361  -1.305  0.00  0.00    +0.015 A 
ATOM     11  C   UNL     1       0.376   0.302  -1.497  0.00  0.00    +0.050 A 
ATOM     12  C   UNL     1       0.009   1.345  -0.652  0.00  0.00    +0.162 A 
ATOM     13  C   UNL     1       0.846   1.722   0.397  0.00  0.00    +0.163 A 
ATOM     14  C   UNL     1       2.043   1.062   0.596  0.00  0.00    +0.061 A 
ATOM     15  O   UNL     1       0.496   2.734   1.237  0.00  0.00    -0.485 OA
ATOM     16  C   UNL     1      -0.535   3.618   0.784  0.00  0.00    +0.270 C 
ATOM     17  C   UNL     1      -1.682   2.770   0.219  0.00  0.00    +0.270 C 
ATOM     18  O   UNL     1      -1.168   1.990  -0.867  0.00  0.00    -0.485 OA
ENDBRANCH   3   9
BRANCH   1  22
ATOM     19  C   UNL     1       7.151  -1.991   3.671  0.00  0.00    +0.162 A 
ATOM     20  C   UNL     1       6.008  -2.767   3.762  0.00  0.00    +0.050 A 
ATOM     21  C   UNL     1       5.287  -3.073   2.622  0.00  0.00    +0.009 A 
ATOM     22  C   UNL     1       5.712  -2.614   1.389  0.00  0.00    -0.019 A 
ATOM     23  C   UNL     1       6.853  -1.839   1.291  0.00  0.00    +0.055 A 
ATOM     24  C   UNL     1       7.576  -1.524   2.431  0.00  0.00    +0.162 A 
BRANCH  19  25
ATOM     25  O   UNL     1       7.857  -1.684   4.792  0.00  0.00    -0.489 OA
BRANCH  25  27
ATOM     26  C   UNL     1       8.281  -1.752   7.171  0.00  0.00    +0.048 C 
ATOM     27  C   UNL     1       7.363  -2.197   6.031  0.00  0.00    +0.226 C 
ENDBRANCH  25  27
ENDBRANCH  19  25
BRANCH  24  28
ATOM     28  O   UNL     1       8.698  -0.762   2.337  0.00  0.00    -0.489 OA
BRANCH  28  29
ATOM     29  C   UNL     1       9.074  -0.319   1.031  0.00  0.00    +0.226 C 
ATOM     30  C   UNL     1      10.351   0.519   1.125  0.00  0.00    +0.048 C 
ENDBRANCH  28  29
ENDBRANCH  24  28
ENDBRANCH   1  22
BRANCH   3  31
ATOM     31  O   UNL     1       4.838   0.009   0.051  0.00  0.00    -0.506 OA
ATOM     32  H   UNL     1       4.643   0.985  -0.039  0.00  0.00    +0.292 HD
ENDBRANCH   3  31
BRANCH   8  33
ATOM     33  C   UNL     1       5.278  -5.530   0.337  0.00  0.00    +0.107 C 
BRANCH  33  34
ATOM     34  C   UNL     1       5.524  -5.848   1.813  0.00  0.00    +0.000 C 
BRANCH  34  35
ATOM     35  C   UNL     1       6.401  -7.096   1.927  0.00  0.00    -0.078 C 
BRANCH  35  38
ATOM     36  C   UNL     1       5.388  -7.789   4.015  0.00  0.00    -0.097 C 
ATOM     37  C   UNL     1       7.661  -8.443   3.496  0.00  0.00    -0.097 C 
ATOM     38  N   UNL     1       6.647  -7.377   3.357  0.00  0.00    +0.376 N 
ATOM     39  H   UNL     1       6.996  -6.524   3.810  0.00  0.00    -0.083 HD
ENDBRANCH  35  38
ENDBRANCH  34  35
ENDBRANCH  33  34
ENDBRANCH   8  33
TORSDOF 11
