REMARK  Name = ZINC14383206
REMARK  7 active torsions:
REMARK  status: ('A' for Active; 'I' for Inactive)
REMARK    1  A    between atoms: C_4  and  C_7
REMARK    2  A    between atoms: C_7  and  N_8
REMARK    3  A    between atoms: C_9  and  N_35
REMARK    4  A    between atoms: C_10  and  N_17
REMARK    5  A    between atoms: N_17  and  C_18
REMARK    6  A    between atoms: C_18  and  C_19
REMARK    7  A    between atoms: C_25  and  C_27
REMARK                            x       y       z     vdW  Elec       q    Type
REMARK                         _______ _______ _______ _____ _____    ______ ____
ROOT
ATOM      1  N   UNL     1       2.655   2.553  -0.816  0.00  0.00    -0.276 N 
ATOM      2  C   UNL     1       3.510   2.687   0.253  0.00  0.00    +0.128 A 
ATOM      3  C   UNL     1       3.120   3.449   1.336  0.00  0.00    +0.140 A 
ATOM      4  C   UNL     1       1.851   4.060   1.315  0.00  0.00    +0.277 A 
ATOM      5  O   UNL     1       1.480   4.736   2.260  0.00  0.00    -0.266 OA
ATOM      6  N   UNL     1       1.051   3.892   0.244  0.00  0.00    -0.273 N 
ATOM      7  H   UNL     1       0.150   4.326   0.229  0.00  0.00    +0.173 HD
ATOM      8  C   UNL     1       1.450   3.150  -0.803  0.00  0.00    +0.331 A 
ATOM      9  O   UNL     1       0.707   3.015  -1.757  0.00  0.00    -0.246 OA
ENDROOT
BRANCH   3  10
ATOM     10  N   UNL     1       3.975   3.610   2.445  0.00  0.00    -0.256 N 
ATOM     11  C   UNL     1       3.563   3.240   3.674  0.00  0.00    +0.253 C 
ATOM     12  O   UNL     1       4.293   3.395   4.633  0.00  0.00    -0.270 OA
BRANCH  11  13
ATOM     13  C   UNL     1       2.222   2.644   3.854  0.00  0.00    +0.057 A 
ATOM     14  C   UNL     1       1.593   1.998   2.789  0.00  0.00    +0.014 A 
ATOM     15  C   UNL     1       0.342   1.444   2.963  0.00  0.00    +0.002 A 
ATOM     16  C   UNL     1      -0.291   1.527   4.191  0.00  0.00    +0.021 A 
ATOM     17  C   UNL     1       0.326   2.165   5.253  0.00  0.00    +0.060 A 
ATOM     18  C   UNL     1       1.582   2.720   5.094  0.00  0.00    +0.071 A 
ATOM     19 CL   UNL     1       2.359   3.514   6.428  0.00  0.00    -0.081 Cl
ATOM     20 CL   UNL     1      -0.476   2.264   6.790  0.00  0.00    -0.082 Cl
ENDBRANCH  11  13
BRANCH  10  21
ATOM     21  C   UNL     1       5.313   4.180   2.263  0.00  0.00    +0.149 C 
BRANCH  21  22
ATOM     22  C   UNL     1       5.246   5.677   2.414  0.00  0.00    -0.030 A 
ATOM     23  C   UNL     1       4.919   6.468   1.328  0.00  0.00    +0.005 A 
ATOM     24  C   UNL     1       4.852   7.842   1.469  0.00  0.00    +0.000 A 
ATOM     25  C   UNL     1       5.123   8.425   2.692  0.00  0.00    +0.000 A 
ATOM     26  C   UNL     1       5.456   7.635   3.776  0.00  0.00    +0.000 A 
ATOM     27  C   UNL     1       5.517   6.261   3.638  0.00  0.00    +0.005 A 
ENDBRANCH  21  22
ENDBRANCH  10  21
ENDBRANCH   3  10
BRANCH   2  28
ATOM     28  N   UNL     1       4.739   2.073   0.242  0.00  0.00    -0.343 N 
ATOM     29  H   UNL     1       5.066   1.657  -0.571  0.00  0.00    +0.144 HD
ATOM     30  H   UNL     1       5.280   2.055   1.048  0.00  0.00    +0.144 HD
ENDBRANCH   2  28
BRANCH   1  31
ATOM     31  C   UNL     1       3.058   1.751  -1.974  0.00  0.00    +0.163 C 
BRANCH  31  35
ATOM     32  C   UNL     1       5.052   4.245  -4.811  0.00  0.00    +0.000 A 
ATOM     33  C   UNL     1       5.777   3.605  -3.824  0.00  0.00    +0.000 A 
ATOM     34  C   UNL     1       5.132   2.798  -2.905  0.00  0.00    +0.005 A 
ATOM     35  C   UNL     1       3.761   2.631  -2.975  0.00  0.00    -0.028 A 
ATOM     36  C   UNL     1       3.037   3.266  -3.966  0.00  0.00    +0.005 A 
ATOM     37  C   UNL     1       3.682   4.077  -4.881  0.00  0.00    +0.000 A 
ENDBRANCH  31  35
ENDBRANCH   1  31
TORSDOF 7
