REMARK  Name = ZINC12281651
REMARK  6 active torsions:
REMARK  status: ('A' for Active; 'I' for Inactive)
REMARK    1  A    between atoms: C_1  and  C_2
REMARK    2  A    between atoms: C_9  and  C_18
REMARK    3  A    between atoms: C_18  and  N_19
REMARK    4  A    between atoms: N_19  and  C_20
REMARK    5  A    between atoms: C_20  and  C_21
REMARK    6  A    between atoms: C_27  and  C_29
REMARK                            x       y       z     vdW  Elec       q    Type
REMARK                         _______ _______ _______ _____ _____    ______ ____
ROOT
ATOM      1  C   UNL     1       2.551  -3.026   8.892  0.00  0.00    +0.044 C 
ATOM      2  C   UNL     1       3.335  -3.248   7.625  0.00  0.00    -0.050 A 
ATOM      3  C   UNL     1       4.277  -4.273   7.570  0.00  0.00    +0.005 A 
ATOM      4  C   UNL     1       5.003  -4.500   6.441  0.00  0.00    +0.026 A 
ATOM      5  C   UNL     1       4.803  -3.692   5.309  0.00  0.00    +0.048 A 
ATOM      6  C   UNL     1       3.844  -2.651   5.367  0.00  0.00    -0.001 A 
ATOM      7  C   UNL     1       3.114  -2.446   6.547  0.00  0.00    +0.013 A 
ATOM      8  C   UNL     1       3.642  -1.840   4.231  0.00  0.00    +0.018 A 
ATOM      9  C   UNL     1       4.384  -2.093   3.117  0.00  0.00    +0.008 A 
ATOM     10  C   UNL     1       5.314  -3.142   3.120  0.00  0.00    +0.104 A 
ATOM     11  N   UNL     1       6.058  -3.392   1.977  0.00  0.00    -0.316 N 
ATOM     12  C   UNL     1       5.749  -4.729   1.424  0.00  0.00    +0.106 C 
ATOM     13  C   UNL     1       6.715  -5.156   0.353  0.00  0.00    +0.019 C 
ATOM     14  C   UNL     1       7.834  -5.993   1.008  0.00  0.00    +0.002 C 
ATOM     15  C   UNL     1       8.824  -5.158   1.681  0.00  0.00    +0.002 C 
ATOM     16  C   UNL     1       8.204  -4.323   2.820  0.00  0.00    +0.019 C 
ATOM     17  C   UNL     1       7.497  -3.140   2.215  0.00  0.00    +0.106 C 
ATOM     18  N   UNL     1       5.554  -3.950   4.184  0.00  0.00    -0.343 N 
ATOM     19  H   UNL     1       6.249  -4.704   4.152  0.00  0.00    +0.167 HD
ENDROOT
BRANCH   9  20
ATOM     20  C   UNL     1       4.201  -1.251   1.881  0.00  0.00    +0.146 C 
BRANCH  20  21
ATOM     21  N   UNL     1       3.266  -0.160   2.167  0.00  0.00    -0.295 N 
ATOM     22  C   UNL     1       1.953  -0.311   1.901  0.00  0.00    +0.213 C 
ATOM     23  O   UNL     1       1.195   0.625   2.039  0.00  0.00    -0.276 OA
ATOM     24  C   UNL     1       1.428  -1.643   1.430  0.00  0.00    +0.109 C 
BRANCH  21  25
ATOM     25  C   UNL     1       3.757   1.094   2.743  0.00  0.00    +0.139 C 
BRANCH  25  26
ATOM     26  C   UNL     1       4.137   2.058   1.617  0.00  0.00    +0.136 C 
ATOM     27  C   UNL     1       4.658   3.389   2.201  0.00  0.00    +0.035 C 
ATOM     28  C   UNL     1       5.793   3.803   1.238  0.00  0.00    +0.031 C 
ATOM     29  C   UNL     1       5.823   2.673   0.185  0.00  0.00    +0.160 C 
ATOM     30  O   UNL     1       5.244   1.531   0.853  0.00  0.00    -0.375 OA
ENDBRANCH  25  26
ENDBRANCH  21  25
ENDBRANCH  20  21
ENDBRANCH   9  20
TORSDOF 4
