REMARK  Name = ZINC48837655
REMARK  5 active torsions:
REMARK  status: ('A' for Active; 'I' for Inactive)
REMARK    1  A    between atoms: C_1  and  C_2
REMARK    2  A    between atoms: C_2  and  C_3
REMARK    3  A    between atoms: C_2  and  C_10
REMARK    4  A    between atoms: C_2  and  N_13
REMARK    5  A    between atoms: C_17  and  N_20
REMARK                            x       y       z     vdW  Elec       q    Type
REMARK                         _______ _______ _______ _____ _____    ______ ____
ROOT
ATOM      1  C   UNL     1       1.061  -0.636   0.907  0.00  0.00    +0.007 C 
ATOM      2  C   UNL     1       0.002  -0.004   0.002  0.00  0.00    +0.061 C 
ENDROOT
BRANCH   2   3
ATOM      3  C   UNL     1      -1.308  -0.728   0.181  0.00  0.00    -0.047 A 
ATOM      4  C   UNL     1      -1.820  -1.494  -0.850  0.00  0.00    +0.004 A 
ATOM      5  C   UNL     1      -3.021  -2.158  -0.686  0.00  0.00    +0.015 A 
ATOM      6  C   UNL     1      -3.711  -2.056   0.509  0.00  0.00    +0.018 A 
ATOM      7  C   UNL     1      -3.198  -1.289   1.540  0.00  0.00    +0.015 A 
ATOM      8  C   UNL     1      -1.994  -0.629   1.377  0.00  0.00    +0.004 A 
ATOM      9 BR   UNL     1      -5.354  -2.964   0.733  0.00  0.00    -0.050 Br
ENDBRANCH   2   3
BRANCH   2  10
ATOM     10  N   UNL     1       0.431  -0.107  -1.399  0.00  0.00    +0.392 N 
ATOM     11  C   UNL     1       1.736   0.547  -1.559  0.00  0.00    -0.077 C 
ATOM     12  C   UNL     1       2.225   0.372  -2.998  0.00  0.00    -0.020 C 
ATOM     13  C   UNL     1       1.213   1.008  -3.956  0.00  0.00    -0.020 C 
ATOM     14  C   UNL     1      -0.161   0.370  -3.729  0.00  0.00    -0.092 C 
ATOM     15  C   UNL     1      -0.561   0.545  -2.262  0.00  0.00    -0.093 C 
ATOM     16  H   UNL     1       0.511  -1.080  -1.655  0.00  0.00    -0.080 HD
BRANCH  14  17
ATOM     17  N   UNL     1      -1.154   1.025  -4.591  0.00  0.00    +0.379 N 
ATOM     18  H   UNL     1      -0.887   0.912  -5.557  0.00  0.00    -0.090 HD
ATOM     19  H   UNL     1      -2.059   0.604  -4.440  0.00  0.00    -0.090 HD
ATOM     20  H   UNL     1      -1.199   2.007  -4.367  0.00  0.00    -0.090 HD
ENDBRANCH  14  17
ENDBRANCH   2  10
BRANCH   2  21
ATOM     21  C   UNL     1      -0.172   1.447   0.369  0.00  0.00    +0.350 C 
ATOM     22  O   UNL     1       0.157   2.319  -0.418  0.00  0.00    -0.248 OA
ATOM     23  O   UNL     1      -0.640   1.750   1.453  0.00  0.00    -0.248 OA
ENDBRANCH   2  21
TORSDOF 4
