REMARK  Name = ZINC04145775
REMARK  11 active torsions:
REMARK  status: ('A' for Active; 'I' for Inactive)
REMARK    1  A    between atoms: C_1  and  C_2
REMARK    2  A    between atoms: C_3  and  C_18
REMARK    3  A    between atoms: C_4  and  C_11
REMARK    4  A    between atoms: N_9  and  C_10
REMARK    5  A    between atoms: C_18  and  C_20
REMARK    6  A    between atoms: C_18  and  N_64
REMARK    7  A    between atoms: C_21  and  C_22
REMARK    8  A    between atoms: C_21  and  N_64
REMARK    9  A    between atoms: C_28  and  C_29
REMARK   10  A    between atoms: C_28  and  N_64
REMARK   11  A    between atoms: C_34  and  C_35
REMARK                            x       y       z     vdW  Elec       q    Type
REMARK                         _______ _______ _______ _____ _____    ______ ____
ROOT
ATOM      1  C   UNL     1       0.379   5.834   2.591  0.00  0.00    -0.040 C 
ATOM      2  C   UNL     1       1.769   6.457   2.450  0.00  0.00    -0.009 C 
ENDROOT
BRANCH   1   5
ATOM      3  C   UNL     1       0.721   8.440   1.529  0.00  0.00    +0.061 C 
ATOM      4  C   UNL     1      -0.358   7.543   0.979  0.00  0.00    +0.011 C 
ATOM      5  C   UNL     1      -0.510   6.330   1.480  0.00  0.00    -0.042 C 
ATOM      6  C   UNL     1      -1.603   5.454   0.905  0.00  0.00    +0.131 C 
ATOM      7  N   UNL     1      -2.422   6.024  -0.177  0.00  0.00    -0.288 N 
ATOM      8  C   UNL     1      -2.154   7.279  -0.590  0.00  0.00    +0.307 C 
ATOM      9  O   UNL     1      -2.822   7.763  -1.483  0.00  0.00    -0.252 OA
ATOM     10  N   UNL     1      -1.172   8.007  -0.042  0.00  0.00    -0.263 N 
ATOM     11  C   UNL     1      -0.947   9.363  -0.549  0.00  0.00    +0.139 C 
ATOM     12  H   UNL     1      -3.136   5.509  -0.584  0.00  0.00    +0.151 HD
BRANCH   6  13
ATOM     13  C   UNL     1      -2.527   5.068   2.031  0.00  0.00    -0.023 A 
ATOM     14  C   UNL     1      -2.440   3.809   2.596  0.00  0.00    +0.008 A 
ATOM     15  C   UNL     1      -3.287   3.454   3.628  0.00  0.00    +0.038 A 
ATOM     16  C   UNL     1      -4.223   4.359   4.098  0.00  0.00    +0.123 A 
ATOM     17  C   UNL     1      -4.313   5.618   3.528  0.00  0.00    +0.038 A 
ATOM     18  C   UNL     1      -3.461   5.973   2.499  0.00  0.00    +0.008 A 
ATOM     19  F   UNL     1      -5.052   4.013   5.107  0.00  0.00    -0.205 F 
ENDBRANCH   6  13
ENDBRANCH   1   5
BRANCH   1  20
ATOM     20  N   UNL     1       0.462   4.360   2.507  0.00  0.00    +0.389 N 
ATOM     21  H   UNL     1      -0.459   3.989   2.247  0.00  0.00    -0.080 HD
BRANCH  20  22
ATOM     22  C   UNL     1       1.447   3.969   1.477  0.00  0.00    -0.042 C 
BRANCH  22  23
ATOM     23  C   UNL     1       0.797   4.079   0.122  0.00  0.00    -0.064 A 
ATOM     24  C   UNL     1       0.010   3.047  -0.354  0.00  0.00    +0.002 A 
ATOM     25  C   UNL     1      -0.591   3.151  -1.595  0.00  0.00    +0.000 A 
ATOM     26  C   UNL     1      -0.394   4.282  -2.365  0.00  0.00    +0.000 A 
ATOM     27  C   UNL     1       0.397   5.312  -1.891  0.00  0.00    +0.000 A 
ATOM     28  C   UNL     1       0.993   5.210  -0.648  0.00  0.00    +0.002 A 
ENDBRANCH  22  23
ENDBRANCH  20  22
BRANCH  20  29
ATOM     29  C   UNL     1       0.853   3.801   3.818  0.00  0.00    -0.040 C 
BRANCH  29  30
ATOM     30  C   UNL     1       0.848   2.296   3.728  0.00  0.00    -0.047 A 
ATOM     31  C   UNL     1      -0.297   1.589   4.033  0.00  0.00    +0.003 A 
ATOM     32  C   UNL     1      -0.305   0.208   3.947  0.00  0.00    +0.000 A 
ATOM     33  C   UNL     1       0.837  -0.473   3.563  0.00  0.00    +0.001 A 
ATOM     34  C   UNL     1       1.990   0.221   3.260  0.00  0.00    +0.019 A 
ATOM     35  C   UNL     1       2.003   1.615   3.340  0.00  0.00    +0.053 A 
BRANCH  35  36
ATOM     36  C   UNL     1       3.196   2.342   3.027  0.00  0.00    +0.099 C 
ATOM     37  N   UNL     1       4.143   2.919   2.779  0.00  0.00    -0.191 NA
ENDBRANCH  35  36
ENDBRANCH  29  30
ENDBRANCH  20  29
ENDBRANCH   1  20
TORSDOF 8
