REMARK  Name = ZINC62933049
REMARK  4 active torsions:
REMARK  status: ('A' for Active; 'I' for Inactive)
REMARK    1  A    between atoms: C_1  and  C_2
REMARK    2  A    between atoms: C_2  and  C_17
REMARK    3  A    between atoms: N_5  and  C_7
REMARK    4  A    between atoms: C_12  and  C_13
REMARK                            x       y       z     vdW  Elec       q    Type
REMARK                         _______ _______ _______ _____ _____    ______ ____
ROOT
ATOM      1  C   UNL     1      -0.026  -1.395   3.514  0.00  0.00    +0.043 A 
ATOM      2  C   UNL     1       0.000  -2.771   3.696  0.00  0.00    +0.024 A 
ATOM      3  C   UNL     1       0.247  -3.299   4.947  0.00  0.00    +0.003 A 
ATOM      4  C   UNL     1       0.470  -2.464   6.030  0.00  0.00    +0.021 A 
ATOM      5  C   UNL     1       0.448  -1.094   5.869  0.00  0.00    +0.055 A 
ATOM      6  C   UNL     1       0.205  -0.544   4.606  0.00  0.00    +0.076 A 
ATOM      7 CL   UNL     1       0.728  -0.055   7.231  0.00  0.00    -0.083 Cl
ENDROOT
BRANCH   1  12
ATOM      8  C   UNL     1      -0.019   1.526   0.010  0.00  0.00    +0.024 C 
ATOM      9  C   UNL     1       0.002  -0.004   0.002  0.00  0.00    +0.086 C 
ATOM     10  C   UNL     1      -1.431  -0.574   0.176  0.00  0.00    +0.038 C 
ATOM     11  C   UNL     1      -1.602  -0.518   1.715  0.00  0.00    +0.106 C 
ATOM     12  N   UNL     1      -0.275  -0.862   2.256  0.00  0.00    -0.328 N 
ATOM     13  C   UNL     1       0.743  -0.547   1.242  0.00  0.00    +0.123 C 
BRANCH   9  14
ATOM     14  C   UNL     1       0.634  -0.520  -1.265  0.00  0.00    +0.363 C 
ATOM     15  O   UNL     1       1.053   0.264  -2.100  0.00  0.00    -0.246 OA
ATOM     16  O   UNL     1       0.727  -1.721  -1.455  0.00  0.00    -0.246 OA
ENDBRANCH   9  14
ENDBRANCH   1  12
BRANCH   6  17
ATOM     17  C   UNL     1       0.187   0.918   4.425  0.00  0.00    +0.245 C 
ATOM     18  O   UNL     1      -0.853   1.534   4.559  0.00  0.00    -0.270 OA
ATOM     19  N   UNL     1       1.322   1.573   4.111  0.00  0.00    -0.325 N 
ATOM     20  H   UNL     1       2.151   1.081   4.004  0.00  0.00    +0.145 HD
ATOM     21  H   UNL     1       1.310   2.535   3.992  0.00  0.00    +0.145 HD
ENDBRANCH   6  17
TORSDOF 3
