REMARK  Name = ZINC00623969
REMARK  6 active torsions:
REMARK  status: ('A' for Active; 'I' for Inactive)
REMARK    1  A    between atoms: C_6  and  N_7
REMARK    2  A    between atoms: N_7  and  S_8
REMARK    3  A    between atoms: S_8  and  C_11
REMARK    4  A    between atoms: C_22  and  S_24
REMARK    5  A    between atoms: S_24  and  N_27
REMARK    6  A    between atoms: N_27  and  C_28
REMARK                            x       y       z     vdW  Elec       q    Type
REMARK                         _______ _______ _______ _____ _____    ______ ____
ROOT
ATOM      1  C   UNL     1      -1.603  -1.224   1.646  0.00  0.00    +0.109 A 
ATOM      2  C   UNL     1      -1.453   0.141   1.812  0.00  0.00    +0.029 A 
ATOM      3  C   UNL     1      -0.233   0.739   1.575  0.00  0.00    +0.011 A 
ATOM      4  C   UNL     1       0.856  -0.034   1.167  0.00  0.00    -0.014 A 
ATOM      5  C   UNL     1       0.694  -1.407   1.004  0.00  0.00    -0.033 A 
ATOM      6  C   UNL     1      -0.529  -1.997   1.242  0.00  0.00    +0.033 A 
ATOM      7  C   UNL     1       2.023  -1.972   0.564  0.00  0.00    +0.071 C 
ATOM      8  C   UNL     1       2.970  -0.799   0.487  0.00  0.00    -0.033 A 
ATOM      9  C   UNL     1       2.256   0.340   0.849  0.00  0.00    -0.014 A 
ATOM     10  C   UNL     1       2.903   1.577   0.862  0.00  0.00    +0.011 A 
ATOM     11  C   UNL     1       4.236   1.661   0.519  0.00  0.00    +0.029 A 
ATOM     12  C   UNL     1       4.937   0.523   0.160  0.00  0.00    +0.109 A 
ATOM     13  C   UNL     1       4.302  -0.706   0.145  0.00  0.00    +0.033 A 
ENDROOT
BRANCH   1  14
ATOM     14  S   UNL     1      -3.166  -1.980   1.950  0.00  0.00    +0.072 S 
ATOM     15  O   UNL     1      -2.916  -3.366   2.140  0.00  0.00    -0.150 OA
ATOM     16  O   UNL     1      -3.819  -1.183   2.928  0.00  0.00    -0.150 OA
BRANCH  14  17
ATOM     17  N   UNL     1      -4.054  -1.846   0.559  0.00  0.00    -0.216 N 
ATOM     18  H   UNL     1      -4.353  -2.644   0.096  0.00  0.00    +0.174 HD
BRANCH  17  24
ATOM     19  C   UNL     1      -4.864   0.403   0.898  0.00  0.00    +0.027 A 
ATOM     20  C   UNL     1      -5.173   1.652   0.396  0.00  0.00    +0.040 A 
ATOM     21  C   UNL     1      -5.002   1.919  -0.952  0.00  0.00    +0.124 A 
ATOM     22  C   UNL     1      -4.517   0.937  -1.798  0.00  0.00    +0.040 A 
ATOM     23  C   UNL     1      -4.202  -0.312  -1.300  0.00  0.00    +0.027 A 
ATOM     24  C   UNL     1      -4.372  -0.582   0.052  0.00  0.00    +0.048 A 
ATOM     25  F   UNL     1      -5.310   3.140  -1.442  0.00  0.00    -0.205 F 
ENDBRANCH  17  24
ENDBRANCH  14  17
ENDBRANCH   1  14
BRANCH  12  26
ATOM     26  S   UNL     1       6.639   0.640  -0.278  0.00  0.00    +0.072 S 
ATOM     27  O   UNL     1       7.168   1.748   0.438  0.00  0.00    -0.150 OA
ATOM     28  O   UNL     1       7.179  -0.670  -0.161  0.00  0.00    -0.150 OA
BRANCH  26  29
ATOM     29  N   UNL     1       6.706   1.038  -1.884  0.00  0.00    -0.216 N 
ATOM     30  H   UNL     1       7.123   1.868  -2.161  0.00  0.00    +0.174 HD
BRANCH  29  31
ATOM     31  C   UNL     1       6.160   0.176  -2.841  0.00  0.00    +0.048 A 
ATOM     32  C   UNL     1       6.431  -1.185  -2.787  0.00  0.00    +0.027 A 
ATOM     33  C   UNL     1       5.887  -2.034  -3.730  0.00  0.00    +0.040 A 
ATOM     34  C   UNL     1       5.080  -1.528  -4.735  0.00  0.00    +0.124 A 
ATOM     35  C   UNL     1       4.813  -0.171  -4.794  0.00  0.00    +0.040 A 
ATOM     36  C   UNL     1       5.351   0.682  -3.850  0.00  0.00    +0.027 A 
ATOM     37  F   UNL     1       4.553  -2.360  -5.660  0.00  0.00    -0.205 F 
ENDBRANCH  29  31
ENDBRANCH  26  29
ENDBRANCH  12  26
TORSDOF 6
