REMARK  Name = ZINC33058455
REMARK  13 active torsions:
REMARK  status: ('A' for Active; 'I' for Inactive)
REMARK    1  A    between atoms: C_1  and  C_2
REMARK    2  A    between atoms: C_2  and  C_3
REMARK    3  A    between atoms: C_8  and  N_9
REMARK    4  A    between atoms: N_9  and  C_10
REMARK    5  A    between atoms: C_11  and  S_26
REMARK    6  A    between atoms: C_12  and  N_25
REMARK    7  A    between atoms: C_13  and  C_15
REMARK    8  A    between atoms: C_15  and  C_17
REMARK    9  A    between atoms: C_20  and  O_23
REMARK   10  A    between atoms: O_23  and  C_24
REMARK   11  A    between atoms: S_26  and  C_29
REMARK   12  A    between atoms: C_32  and  O_35
REMARK   13  A    between atoms: O_35  and  C_36
REMARK                            x       y       z     vdW  Elec       q    Type
REMARK                         _______ _______ _______ _____ _____    ______ ____
ROOT
ATOM      1  C   UNL     1      -3.442   1.671   0.253  0.00  0.00    +0.098 A 
ATOM      2  C   UNL     1      -2.217   1.045   0.136  0.00  0.00    +0.143 A 
ATOM      3  C   UNL     1      -1.076   1.806   0.192  0.00  0.00    +0.070 A 
ATOM      4  C   UNL     1      -1.210   3.188   0.371  0.00  0.00    +0.084 A 
ATOM      5  S   UNL     1      -2.982   3.385   0.448  0.00  0.00    -0.066 S 
ENDROOT
BRANCH   3   6
ATOM      6  N   UNL     1       0.180   1.219   0.079  0.00  0.00    -0.355 N 
ATOM      7  H   UNL     1       1.085   1.842   0.126  0.00  0.00    +0.142 HD
ATOM      8  H   UNL     1       0.268   0.131  -0.057  0.00  0.00    +0.142 HD
ENDBRANCH   3   6
BRANCH   2   9
ATOM      9  S   UNL     1      -2.120  -0.701  -0.082  0.00  0.00    +0.029 S 
ATOM     10  O   UNL     1      -3.369  -1.113  -0.620  0.00  0.00    -0.164 OA
ATOM     11  O   UNL     1      -0.886  -0.961  -0.737  0.00  0.00    -0.164 OA
BRANCH   9  12
ATOM     12  C   UNL     1      -2.001  -1.420   1.522  0.00  0.00    +0.094 A 
ATOM     13  C   UNL     1      -0.759  -1.634   2.092  0.00  0.00    +0.031 A 
ATOM     14  C   UNL     1      -0.663  -2.192   3.352  0.00  0.00    +0.047 A 
ATOM     15  C   UNL     1      -1.813  -2.549   4.040  0.00  0.00    +0.120 A 
ATOM     16  C   UNL     1      -3.057  -2.339   3.464  0.00  0.00    +0.047 A 
ATOM     17  C   UNL     1      -3.148  -1.775   2.207  0.00  0.00    +0.031 A 
BRANCH  15  18
ATOM     18  O   UNL     1      -1.721  -3.103   5.278  0.00  0.00    -0.495 OA
ATOM     19  C   UNL     1      -0.407  -3.291   5.809  0.00  0.00    +0.277 C 
ENDBRANCH  15  18
ENDBRANCH   9  12
ENDBRANCH   2   9
BRANCH   1  20
ATOM     20  N   UNL     1      -4.707   1.111   0.226  0.00  0.00    -0.307 N 
ATOM     21  H   UNL     1      -4.829   0.034   0.038  0.00  0.00    +0.153 HD
BRANCH  20  27
ATOM     22  C   UNL     1      -7.019   1.639  -0.229  0.00  0.00    -0.026 A 
ATOM     23  C   UNL     1      -8.129   2.431  -0.013  0.00  0.00    +0.005 A 
ATOM     24  C   UNL     1      -8.057   3.504   0.856  0.00  0.00    +0.000 A 
ATOM     25  C   UNL     1      -6.874   3.785   1.516  0.00  0.00    +0.002 A 
ATOM     26  C   UNL     1      -5.762   2.994   1.310  0.00  0.00    +0.023 A 
ATOM     27  C   UNL     1      -5.831   1.914   0.437  0.00  0.00    +0.035 A 
BRANCH  22  29
ATOM     28  C   UNL     1      -7.411  -0.804  -0.398  0.00  0.00    +0.009 C 
ATOM     29  C   UNL     1      -7.097   0.473  -1.180  0.00  0.00    +0.033 C 
ENDBRANCH  22  29
ENDBRANCH  20  27
ENDBRANCH   1  20
BRANCH   4  30
ATOM     30  C   UNL     1      -0.206   4.169   0.464  0.00  0.00    +0.202 C 
ATOM     31  O   UNL     1       0.966   3.838   0.531  0.00  0.00    -0.286 OA
BRANCH  30  32
ATOM     32  C   UNL     1      -0.572   5.601   0.482  0.00  0.00    +0.023 A 
ATOM     33  C   UNL     1      -1.706   6.042  -0.202  0.00  0.00    +0.015 A 
ATOM     34  C   UNL     1      -2.048   7.377  -0.179  0.00  0.00    +0.046 A 
ATOM     35  C   UNL     1      -1.258   8.286   0.515  0.00  0.00    +0.120 A 
ATOM     36  C   UNL     1      -0.124   7.851   1.192  0.00  0.00    +0.046 A 
ATOM     37  C   UNL     1       0.220   6.518   1.178  0.00  0.00    +0.015 A 
BRANCH  35  38
ATOM     38  O   UNL     1      -1.594   9.601   0.532  0.00  0.00    -0.495 OA
ATOM     39  C   UNL     1      -2.771   9.978  -0.185  0.00  0.00    +0.277 C 
ENDBRANCH  35  38
ENDBRANCH  30  32
ENDBRANCH   4  30
TORSDOF 10
