REMARK  Name = ZINC04184477
REMARK  4 active torsions:
REMARK  status: ('A' for Active; 'I' for Inactive)
REMARK    1  A    between atoms: C_4  and  N_7
REMARK    2  A    between atoms: N_7  and  N_8
REMARK    3  A    between atoms: C_9  and  C_10
REMARK    4  A    between atoms: C_15  and  N_16
REMARK                            x       y       z     vdW  Elec       q    Type
REMARK                         _______ _______ _______ _____ _____    ______ ____
ROOT
ATOM      1  C   UNL     1      -1.244   3.047   0.137  0.00  0.00    +0.016 A 
ATOM      2  C   UNL     1      -2.465   3.723   0.138  0.00  0.00    +0.012 A 
ATOM      3  C   UNL     1      -3.651   3.026   0.035  0.00  0.00    +0.013 A 
ATOM      4  C   UNL     1      -3.644   1.635  -0.075  0.00  0.00    +0.035 A 
ATOM      5  C   UNL     1      -2.419   0.935  -0.084  0.00  0.00    +0.054 A 
ATOM      6  C   UNL     1      -1.217   1.640   0.020  0.00  0.00    +0.045 A 
ATOM      7  C   UNL     1      -2.408  -0.532  -0.200  0.00  0.00    +0.196 C 
ATOM      8  O   UNL     1      -1.351  -1.135  -0.207  0.00  0.00    -0.287 OA
ATOM      9  C   UNL     1      -3.682  -1.272  -0.308  0.00  0.00    +0.033 A 
ATOM     10  C   UNL     1      -3.681  -2.660  -0.418  0.00  0.00    +0.012 A 
ATOM     11  C   UNL     1      -4.878  -3.345  -0.519  0.00  0.00    +0.001 A 
ATOM     12  C   UNL     1      -6.080  -2.660  -0.511  0.00  0.00    +0.001 A 
ATOM     13  C   UNL     1      -6.100  -1.281  -0.403  0.00  0.00    +0.012 A 
ATOM     14  C   UNL     1      -4.904  -0.576  -0.300  0.00  0.00    +0.033 A 
ATOM     15  C   UNL     1      -4.915   0.897  -0.184  0.00  0.00    +0.195 C 
ATOM     16  O   UNL     1      -5.971   1.499  -0.177  0.00  0.00    -0.287 OA
ENDROOT
BRANCH   6  17
ATOM     17  N   UNL     1      -0.011   0.965   0.013  0.00  0.00    -0.357 N 
ATOM     18  H   UNL     1       0.093   0.165  -0.524  0.00  0.00    +0.142 HD
ATOM     19  H   UNL     1       0.732   1.294   0.543  0.00  0.00    +0.142 HD
ENDBRANCH   6  17
BRANCH   1  21
ATOM     20  N   UNL     1       1.153   3.181   0.145  0.00  0.00    -0.190 NA
ATOM     21  C   UNL     1       0.012   3.799   0.252  0.00  0.00    +0.140 C 
BRANCH  20  22
ATOM     22  N   UNL     1       2.351   3.898   0.255  0.00  0.00    -0.238 N 
ATOM     23  H   UNL     1       2.331   4.856   0.410  0.00  0.00    +0.174 HD
BRANCH  22  27
ATOM     24  C   UNL     1       5.998   1.921  -0.084  0.00  0.00    +0.000 A 
ATOM     25  C   UNL     1       5.971   3.287   0.137  0.00  0.00    +0.002 A 
ATOM     26  C   UNL     1       4.763   3.946   0.250  0.00  0.00    +0.025 A 
ATOM     27  C   UNL     1       3.573   3.236   0.141  0.00  0.00    +0.048 A 
ATOM     28  C   UNL     1       3.604   1.863  -0.075  0.00  0.00    +0.025 A 
ATOM     29  C   UNL     1       4.816   1.212  -0.193  0.00  0.00    +0.002 A 
ENDBRANCH  22  27
ENDBRANCH  20  22
ENDBRANCH   1  21
TORSDOF 4
