REMARK  Name = ZINC63879057
REMARK  10 active torsions:
REMARK  status: ('A' for Active; 'I' for Inactive)
REMARK    1  A    between atoms: C_1  and  C_2
REMARK    2  A    between atoms: C_2  and  O_3
REMARK    3  A    between atoms: O_3  and  C_4
REMARK    4  A    between atoms: C_6  and  C_15
REMARK    5  A    between atoms: C_9  and  O_10
REMARK    6  A    between atoms: O_10  and  C_11
REMARK    7  A    between atoms: C_11  and  C_12
REMARK    8  A    between atoms: C_12  and  C_13
REMARK    9  A    between atoms: C_12  and  C_14
REMARK   10  A    between atoms: C_27  and  C_31
REMARK                            x       y       z     vdW  Elec       q    Type
REMARK                         _______ _______ _______ _____ _____    ______ ____
ROOT
ATOM      1  C   UNL     1      -0.229  -4.969   0.477  0.00  0.00    +0.111 C 
ATOM      2  C   UNL     1      -1.630  -5.409   0.046  0.00  0.00    +0.128 C 
ATOM      3  C   UNL     1      -1.443  -6.250  -1.212  0.00  0.00    -0.028 C 
ATOM      4  C   UNL     1      -2.223  -5.715  -2.140  0.00  0.00    -0.000 A 
ATOM      5  C   UNL     1      -2.535  -6.129  -3.518  0.00  0.00    +0.010 A 
ATOM      6  C   UNL     1      -3.382  -5.322  -4.210  0.00  0.00    +0.001 A 
ATOM      7  C   UNL     1      -3.944  -4.158  -3.675  0.00  0.00    +0.002 A 
ATOM      8  C   UNL     1      -3.718  -3.706  -2.416  0.00  0.00    +0.026 A 
ATOM      9  C   UNL     1      -2.847  -4.473  -1.589  0.00  0.00    +0.043 A 
ATOM     10  N   UNL     1      -2.481  -4.282  -0.336  0.00  0.00    -0.376 N 
ATOM     11  C   UNL     1      -0.447  -7.383  -1.265  0.00  0.00    +0.061 C 
ATOM     12  C   UNL     1       0.868  -6.827  -0.689  0.00  0.00    +0.094 C 
ATOM     13  N   UNL     1       0.617  -6.167   0.596  0.00  0.00    -0.307 NA
ATOM     14  H   UNL     1       1.482  -5.953   1.069  0.00  0.00    +0.123 HD
ATOM     15  H   UNL     1      -2.721  -3.534   0.232  0.00  0.00    +0.160 HD
ENDROOT
BRANCH   1  18
ATOM     16  C   UNL     1       1.362  -1.939  -1.122  0.00  0.00    +0.162 A 
ATOM     17  C   UNL     1       0.828  -2.796  -0.174  0.00  0.00    +0.054 A 
ATOM     18  C   UNL     1       0.352  -4.037  -0.555  0.00  0.00    -0.024 A 
ATOM     19  C   UNL     1       0.407  -4.425  -1.881  0.00  0.00    +0.009 A 
ATOM     20  C   UNL     1       0.939  -3.574  -2.832  0.00  0.00    +0.050 A 
ATOM     21  C   UNL     1       1.413  -2.327  -2.458  0.00  0.00    +0.162 A 
BRANCH  16  22
ATOM     22  O   UNL     1       1.831  -0.718  -0.749  0.00  0.00    -0.489 OA
BRANCH  22  24
ATOM     23  C   UNL     1       2.319   1.015   0.864  0.00  0.00    +0.048 C 
ATOM     24  C   UNL     1       1.748  -0.387   0.638  0.00  0.00    +0.226 C 
ENDBRANCH  22  24
ENDBRANCH  16  22
BRANCH  21  25
ATOM     25  O   UNL     1       1.931  -1.486  -3.393  0.00  0.00    -0.488 OA
BRANCH  25  26
ATOM     26  C   UNL     1       1.950  -1.952  -4.744  0.00  0.00    +0.232 C 
BRANCH  26  27
ATOM     27  C   UNL     1       2.564  -0.877  -5.644  0.00  0.00    +0.020 C 
ATOM     28  C   UNL     1       4.033  -0.673  -5.265  0.00  0.00    +0.010 C 
ATOM     29  C   UNL     1       2.472  -1.323  -7.105  0.00  0.00    +0.010 C 
ENDBRANCH  26  27
ENDBRANCH  25  26
ENDBRANCH  21  25
ENDBRANCH   1  18
BRANCH  11  30
ATOM     30  C   UNL     1      -0.933  -8.540  -0.430  0.00  0.00    -0.039 A 
ATOM     31  C   UNL     1      -1.163  -8.368   0.922  0.00  0.00    +0.004 A 
ATOM     32  C   UNL     1      -1.608  -9.429   1.688  0.00  0.00    +0.000 A 
ATOM     33  C   UNL     1      -1.824 -10.662   1.101  0.00  0.00    +0.000 A 
ATOM     34  C   UNL     1      -1.595 -10.834  -0.251  0.00  0.00    +0.000 A 
ATOM     35  C   UNL     1      -1.154  -9.772  -1.018  0.00  0.00    +0.004 A 
ENDBRANCH  11  30
TORSDOF 7
