REMARK  Name = ZINC29870119
REMARK  8 active torsions:
REMARK  status: ('A' for Active; 'I' for Inactive)
REMARK    1  A    between atoms: C_4  and  C_18
REMARK    2  A    between atoms: C_5  and  C_7
REMARK    3  A    between atoms: C_7  and  S_8
REMARK    4  A    between atoms: S_8  and  C_9
REMARK    5  A    between atoms: N_20  and  C_21
REMARK    6  A    between atoms: C_21  and  C_22
REMARK    7  A    between atoms: C_22  and  C_24
REMARK    8  A    between atoms: C_22  and  N_29
REMARK                            x       y       z     vdW  Elec       q    Type
REMARK                         _______ _______ _______ _____ _____    ______ ____
ROOT
ATOM      1  C   UNL     1      -0.280   1.033   0.071  0.00  0.00    +0.244 C 
ATOM      2  O   UNL     1      -1.350   1.606   0.124  0.00  0.00    -0.270 OA
ATOM      3  N   UNL     1       0.867   1.741   0.094  0.00  0.00    -0.312 N 
ATOM      4  H   UNL     1       1.835   1.222   0.042  0.00  0.00    +0.149 HD
ENDROOT
BRANCH   1   8
ATOM      5  C   UNL     1      -0.153  -3.204  -0.202  0.00  0.00    +0.000 A 
ATOM      6  C   UNL     1       1.022  -2.475  -0.257  0.00  0.00    +0.001 A 
ATOM      7  C   UNL     1       0.988  -1.099  -0.169  0.00  0.00    +0.013 A 
ATOM      8  C   UNL     1      -0.235  -0.442  -0.024  0.00  0.00    +0.041 A 
ATOM      9  C   UNL     1      -1.416  -1.184   0.037  0.00  0.00    -0.025 A 
ATOM     10  C   UNL     1      -1.368  -2.560  -0.057  0.00  0.00    +0.005 A 
BRANCH   9  11
ATOM     11  C   UNL     1      -2.740  -0.484   0.200  0.00  0.00    +0.114 C 
BRANCH  11  12
ATOM     12  S   UNL     1      -3.021  -0.126   1.952  0.00  0.00    -0.062 S 
BRANCH  12  13
ATOM     13  C   UNL     1      -4.591   0.669   1.854  0.00  0.00    +0.258 A 
ATOM     14  N   UNL     1      -5.260   1.137   2.877  0.00  0.00    -0.203 NA
ATOM     15  C   UNL     1      -6.424   1.681   2.426  0.00  0.00    +0.110 A 
ATOM     16  C   UNL     1      -7.500   2.311   3.053  0.00  0.00    +0.031 A 
ATOM     17  C   UNL     1      -8.560   2.764   2.298  0.00  0.00    +0.002 A 
ATOM     18  C   UNL     1      -8.563   2.598   0.922  0.00  0.00    +0.004 A 
ATOM     19  C   UNL     1      -7.505   1.977   0.289  0.00  0.00    +0.048 A 
ATOM     20  C   UNL     1      -6.431   1.515   1.033  0.00  0.00    +0.156 A 
ATOM     21  O   UNL     1      -5.275   0.887   0.716  0.00  0.00    -0.431 OA
ENDBRANCH  12  13
ENDBRANCH  11  12
ENDBRANCH   9  11
ENDBRANCH   1   8
BRANCH   3  22
ATOM     22  C   UNL     1       0.823   3.203   0.188  0.00  0.00    +0.097 C 
BRANCH  22  23
ATOM     23  C   UNL     1       2.241   3.764   0.068  0.00  0.00    +0.016 C 
BRANCH  23  24
ATOM     24  N   UNL     1       3.110   3.117   1.060  0.00  0.00    +0.387 N 
ATOM     25  C   UNL     1       2.535   3.217   2.407  0.00  0.00    -0.078 C 
ATOM     26  C   UNL     1       3.388   2.410   3.389  0.00  0.00    -0.019 C 
ATOM     27  C   UNL     1       4.819   2.956   3.382  0.00  0.00    -0.004 C 
ATOM     28  C   UNL     1       5.377   2.886   1.958  0.00  0.00    -0.019 C 
ATOM     29  C   UNL     1       4.466   3.679   1.018  0.00  0.00    -0.078 C 
ATOM     30  H   UNL     1       3.181   2.049   0.804  0.00  0.00    -0.081 HD
ENDBRANCH  23  24
BRANCH  23  31
ATOM     31  C   UNL     1       2.772   3.495  -1.317  0.00  0.00    +0.093 A 
ATOM     32  C   UNL     1       2.807   4.377  -2.331  0.00  0.00    +0.043 A 
ATOM     33  C   UNL     1       3.383   3.709  -3.436  0.00  0.00    +0.041 A 
ATOM     34  C   UNL     1       3.658   2.455  -3.033  0.00  0.00    +0.195 A 
ATOM     35  O   UNL     1       3.286   2.332  -1.748  0.00  0.00    -0.469 OA
ENDBRANCH  23  31
ENDBRANCH  22  23
ENDBRANCH   3  22
TORSDOF 8
