REMARK  Name = ZINC66566587
REMARK  7 active torsions:
REMARK  status: ('A' for Active; 'I' for Inactive)
REMARK    1  A    between atoms: C_1  and  C_2
REMARK    2  A    between atoms: C_7  and  N_10
REMARK    3  A    between atoms: C_11  and  C_13
REMARK    4  A    between atoms: C_13  and  N_14
REMARK    5  A    between atoms: N_17  and  C_20
REMARK    6  A    between atoms: C_20  and  C_22
REMARK    7  A    between atoms: C_20  and  C_23
REMARK                            x       y       z     vdW  Elec       q    Type
REMARK                         _______ _______ _______ _____ _____    ______ ____
ROOT
ATOM      1  N   UNL     1       3.330  -5.577   3.359  0.00  0.00    -0.292 NA
ATOM      2  C   UNL     1       2.250  -6.558   3.175  0.00  0.00    +0.100 C 
ATOM      3  C   UNL     1       2.856  -7.918   2.821  0.00  0.00    +0.100 C 
ATOM      4  N   UNL     1       3.769  -8.339   3.893  0.00  0.00    -0.289 NA
ATOM      5  C   UNL     1       4.848  -7.359   4.077  0.00  0.00    +0.100 C 
ATOM      6  C   UNL     1       4.242  -5.998   4.431  0.00  0.00    +0.100 C 
ENDROOT
BRANCH   4   7
ATOM      7  C   UNL     1       4.313  -9.677   3.625  0.00  0.00    +0.140 C 
ATOM      8  C   UNL     1       5.284  -9.606   2.445  0.00  0.00    +0.034 C 
BRANCH   7   9
ATOM      9  C   UNL     1       5.042 -10.176   4.846  0.00  0.00    +0.237 C 
ATOM     10  O   UNL     1       5.102  -9.486   5.841  0.00  0.00    -0.274 OA
ATOM     11  N   UNL     1       5.627 -11.390   4.832  0.00  0.00    -0.239 N 
ATOM     12  C   UNL     1       6.279 -11.837   5.924  0.00  0.00    +0.303 C 
ATOM     13  O   UNL     1       6.339 -11.145   6.921  0.00  0.00    -0.253 OA
ATOM     14  N   UNL     1       6.864 -13.051   5.910  0.00  0.00    -0.313 N 
ATOM     15  H   UNL     1       5.579 -11.943   4.036  0.00  0.00    +0.159 HD
ATOM     16  H   UNL     1       6.816 -13.604   5.114  0.00  0.00    +0.146 HD
ATOM     17  H   UNL     1       7.333 -13.372   6.696  0.00  0.00    +0.146 HD
ENDBRANCH   7   9
ENDBRANCH   4   7
BRANCH   1  18
ATOM     18  C   UNL     1       2.785  -4.239   3.627  0.00  0.00    +0.180 C 
BRANCH  18  20
ATOM     19  N   UNL     1       1.471  -2.526   2.420  0.00  0.00    -0.311 N 
ATOM     20  C   UNL     1       2.056  -3.740   2.406  0.00  0.00    +0.227 C 
ATOM     21  O   UNL     1       1.996  -4.431   1.411  0.00  0.00    -0.274 OA
ATOM     22  H   UNL     1       1.520  -1.974   3.216  0.00  0.00    +0.149 HD
BRANCH  19  28
ATOM     23  C   UNL     1      -0.019   1.526   0.010  0.00  0.00    +0.007 C 
ATOM     24  C   UNL     1       0.002  -0.004   0.002  0.00  0.00    -0.012 C 
ATOM     25  C   UNL     1      -1.433  -0.534   0.013  0.00  0.00    +0.003 C 
ATOM     26  C   UNL     1      -1.413  -2.063   0.004  0.00  0.00    +0.002 C 
ATOM     27  C   UNL     1      -0.673  -2.570   1.244  0.00  0.00    +0.022 C 
ATOM     28  C   UNL     1       0.763  -2.041   1.233  0.00  0.00    +0.073 C 
ATOM     29  C   UNL     1       0.742  -0.511   1.242  0.00  0.00    +0.025 C 
ENDBRANCH  19  28
ENDBRANCH  18  20
ENDBRANCH   1  18
TORSDOF 5
