REMARK  Name = ZINC43736948
REMARK  6 active torsions:
REMARK  status: ('A' for Active; 'I' for Inactive)
REMARK    1  A    between atoms: C_1  and  C_2
REMARK    2  A    between atoms: C_5  and  O_36
REMARK    3  A    between atoms: C_18  and  C_35
REMARK    4  A    between atoms: C_23  and  N_25
REMARK    5  A    between atoms: C_26  and  C_28
REMARK    6  A    between atoms: C_28  and  N_29
REMARK                            x       y       z     vdW  Elec       q    Type
REMARK                         _______ _______ _______ _____ _____    ______ ____
ROOT
ATOM      1  C   UNL     1       0.040   1.453  -0.133  0.00  0.00    +0.012 C 
ATOM      2  C   UNL     1       0.030  -0.084  -0.129  0.00  0.00    -0.026 C 
ATOM      3  C   UNL     1       0.708  -0.576  -1.410  0.00  0.00    +0.010 C 
ATOM      4  C   UNL     1       2.168  -0.115  -1.452  0.00  0.00    +0.032 C 
ATOM      5  C   UNL     1       2.916  -0.656  -0.234  0.00  0.00    +0.115 C 
ATOM      6  C   UNL     1       2.250  -0.165   1.049  0.00  0.00    +0.035 C 
ATOM      7  C   UNL     1       0.792  -0.604   1.085  0.00  0.00    -0.002 C 
ATOM      8  C   UNL     1       0.118  -0.105   2.362  0.00  0.00    +0.004 C 
ATOM      9  C   UNL     1      -1.301  -0.662   2.415  0.00  0.00    +0.004 C 
ATOM     10  C   UNL     1      -2.135  -0.212   1.207  0.00  0.00    -0.004 C 
ATOM     11  C   UNL     1      -1.418  -0.542  -0.100  0.00  0.00    -0.001 C 
ATOM     12  C   UNL     1      -1.591  -2.020  -0.428  0.00  0.00    +0.005 C 
ATOM     13  C   UNL     1      -3.043  -2.287  -0.868  0.00  0.00    +0.009 C 
ATOM     14  C   UNL     1      -3.983  -1.387  -0.107  0.00  0.00    -0.011 C 
ATOM     15  C   UNL     1      -3.423  -1.019   1.277  0.00  0.00    +0.000 C 
ATOM     16  C   UNL     1      -4.613  -0.296   1.927  0.00  0.00    +0.006 C 
ATOM     17  C   UNL     1      -5.842  -1.093   1.417  0.00  0.00    +0.023 C 
ATOM     18  C   UNL     1      -5.330  -2.026   0.289  0.00  0.00    +0.079 C 
ATOM     19  C   UNL     1      -4.324  -0.144  -0.939  0.00  0.00    +0.013 C 
ENDROOT
BRANCH  18  20
ATOM     20  N   UNL     1      -5.136  -3.377   0.805  0.00  0.00    -0.311 N 
ATOM     21  C   UNL     1      -6.138  -4.276   0.734  0.00  0.00    +0.227 C 
ATOM     22  O   UNL     1      -7.201  -3.961   0.242  0.00  0.00    -0.274 OA
ATOM     23  H   UNL     1      -4.286  -3.629   1.199  0.00  0.00    +0.149 HD
BRANCH  21  24
ATOM     24  C   UNL     1      -5.938  -5.671   1.267  0.00  0.00    +0.180 C 
BRANCH  24  25
ATOM     25  N   UNL     1      -7.169  -6.450   1.074  0.00  0.00    -0.290 NA
ATOM     26  C   UNL     1      -8.263  -5.921   1.900  0.00  0.00    +0.113 C 
ATOM     27  C   UNL     1      -9.538  -6.722   1.624  0.00  0.00    +0.175 C 
ATOM     28  O   UNL     1      -9.289  -8.107   1.878  0.00  0.00    -0.377 OA
ATOM     29  C   UNL     1      -8.229  -8.656   1.089  0.00  0.00    +0.175 C 
ATOM     30  C   UNL     1      -6.941  -7.874   1.360  0.00  0.00    +0.113 C 
ENDBRANCH  24  25
ENDBRANCH  21  24
ENDBRANCH  18  20
BRANCH   5  31
ATOM     31  O   UNL     1       4.275  -0.211  -0.265  0.00  0.00    -0.392 OA
ATOM     32  H   UNL     1       4.765  -0.496  -1.048  0.00  0.00    +0.210 HD
ENDBRANCH   5  31
TORSDOF 4
