REMARK  Name = ZINC20757446
REMARK  4 active torsions:
REMARK  status: ('A' for Active; 'I' for Inactive)
REMARK    1  A    between atoms: C_1  and  C_2
REMARK    2  A    between atoms: C_2  and  N_3
REMARK    3  A    between atoms: C_16  and  C_18
REMARK    4  A    between atoms: N_24  and  C_27
REMARK                            x       y       z     vdW  Elec       q    Type
REMARK                         _______ _______ _______ _____ _____    ______ ____
ROOT
ATOM      1  N   UNL     1      -0.578   0.511   1.129  0.00  0.00    +0.388 N 
ATOM      2  C   UNL     1       0.476   1.471   0.777  0.00  0.00    -0.073 C 
ATOM      3  C   UNL     1       1.679   1.278   1.711  0.00  0.00    +0.019 C 
ATOM      4  C   UNL     1       2.016  -0.192   1.730  0.00  0.00    -0.022 A 
ATOM      5  C   UNL     1       3.213  -0.855   2.194  0.00  0.00    +0.003 A 
ATOM      6  C   UNL     1       4.405  -0.385   2.756  0.00  0.00    +0.010 A 
ATOM      7  C   UNL     1       5.350  -1.325   3.084  0.00  0.00    +0.001 A 
ATOM      8  C   UNL     1       5.146  -2.679   2.875  0.00  0.00    +0.002 A 
ATOM      9  C   UNL     1       3.977  -3.172   2.321  0.00  0.00    +0.026 A 
ATOM     10  C   UNL     1       2.999  -2.242   1.976  0.00  0.00    +0.047 A 
ATOM     11  N   UNL     1       1.759  -2.381   1.421  0.00  0.00    -0.359 N 
ATOM     12  H   UNL     1       1.352  -3.224   1.168  0.00  0.00    +0.166 HD
ATOM     13  C   UNL     1       1.176  -1.151   1.277  0.00  0.00    +0.011 A 
ATOM     14  C   UNL     1      -0.190  -0.845   0.712  0.00  0.00    +0.021 C 
ATOM     15  H   UNL     1      -0.721   0.526   2.128  0.00  0.00    -0.080 HD
ENDROOT
BRANCH  14  16
ATOM     16  C   UNL     1      -1.190  -1.842   1.239  0.00  0.00    +0.074 A 
ATOM     17  C   UNL     1      -1.489  -1.894   2.612  0.00  0.00    +0.260 A 
ATOM     18  N   UNL     1      -2.387  -2.793   3.063  0.00  0.00    -0.274 N 
ATOM     19  H   UNL     1      -2.595  -2.831   4.010  0.00  0.00    +0.173 HD
ATOM     20  C   UNL     1      -2.996  -3.637   2.211  0.00  0.00    +0.337 A 
ATOM     21  O   UNL     1      -3.802  -4.441   2.638  0.00  0.00    -0.246 OA
ATOM     22  N   UNL     1      -2.725  -3.605   0.893  0.00  0.00    -0.229 N 
ATOM     23  C   UNL     1      -1.821  -2.702   0.390  0.00  0.00    +0.267 A 
ATOM     24  O   UNL     1      -1.557  -2.669  -0.933  0.00  0.00    -0.267 OA
ATOM     25  O   UNL     1      -0.941  -1.132   3.389  0.00  0.00    -0.267 OA
BRANCH  22  26
ATOM     26  C   UNL     1      -3.375  -4.497   0.027  0.00  0.00    +0.055 A 
ATOM     27  C   UNL     1      -4.579  -4.138  -0.564  0.00  0.00    +0.029 A 
ATOM     28  C   UNL     1      -5.217  -5.017  -1.417  0.00  0.00    +0.040 A 
ATOM     29  C   UNL     1      -4.656  -6.255  -1.683  0.00  0.00    +0.124 A 
ATOM     30  C   UNL     1      -3.456  -6.614  -1.094  0.00  0.00    +0.040 A 
ATOM     31  C   UNL     1      -2.812  -5.736  -0.245  0.00  0.00    +0.029 A 
ATOM     32  F   UNL     1      -5.282  -7.114  -2.518  0.00  0.00    -0.205 F 
ENDBRANCH  22  26
ENDBRANCH  14  16
BRANCH   1  34
ATOM     33  C   UNL     1      -2.299   2.247   0.979  0.00  0.00    -0.017 C 
ATOM     34  C   UNL     1      -1.827   0.889   0.454  0.00  0.00    -0.081 C 
ENDBRANCH   1  34
TORSDOF 3
