REMARK  Name = ZINC66597684
REMARK  9 active torsions:
REMARK  status: ('A' for Active; 'I' for Inactive)
REMARK    1  A    between atoms: C_1  and  C_2
REMARK    2  A    between atoms: C_5  and  C_9
REMARK    3  A    between atoms: C_6  and  C_8
REMARK    4  A    between atoms: C_9  and  C_10
REMARK    5  A    between atoms: C_10  and  C_12
REMARK    6  A    between atoms: C_10  and  N_13
REMARK    7  A    between atoms: N_16  and  C_17
REMARK    8  A    between atoms: C_17  and  C_18
REMARK    9  A    between atoms: C_21  and  N_24
REMARK                            x       y       z     vdW  Elec       q    Type
REMARK                         _______ _______ _______ _____ _____    ______ ____
ROOT
ATOM      1  N   UNL     1      -2.147  -4.458  -1.084  0.00  0.00    -0.297 N 
ATOM      2  C   UNL     1      -3.486  -4.332  -1.002  0.00  0.00    +0.300 C 
ATOM      3  O   UNL     1      -4.053  -4.541   0.053  0.00  0.00    -0.253 OA
ATOM      4  N   UNL     1      -4.197  -3.976  -2.091  0.00  0.00    -0.295 N 
ATOM      5  H   UNL     1      -1.695  -4.292  -1.926  0.00  0.00    +0.151 HD
ATOM      6  H   UNL     1      -3.745  -3.810  -2.932  0.00  0.00    +0.151 HD
ENDROOT
BRANCH   1   7
ATOM      7  C   UNL     1      -1.374  -4.846   0.099  0.00  0.00    +0.076 C 
ATOM      8  C   UNL     1      -1.363  -6.371   0.223  0.00  0.00    +0.028 C 
BRANCH   7   9
ATOM      9  C   UNL     1       0.061  -4.334  -0.040  0.00  0.00    +0.057 C 
BRANCH   9  14
ATOM     10  C   UNL     1       0.053   1.444  -0.036  0.00  0.00    +0.044 C 
ATOM     11  C   UNL     1       0.055  -0.063  -0.037  0.00  0.00    -0.050 A 
ATOM     12  C   UNL     1       0.046  -0.753  -1.235  0.00  0.00    +0.003 A 
ATOM     13  C   UNL     1       0.048  -2.135  -1.236  0.00  0.00    +0.004 A 
ATOM     14  C   UNL     1       0.060  -2.827  -0.039  0.00  0.00    -0.043 A 
ATOM     15  C   UNL     1       0.070  -2.137   1.158  0.00  0.00    -0.047 A 
ATOM     16  C   UNL     1       0.072  -0.754   1.159  0.00  0.00    +0.007 A 
ATOM     17  C   UNL     1       0.082  -2.891   2.463  0.00  0.00    +0.044 C 
ENDBRANCH   9  14
ENDBRANCH   7   9
ENDBRANCH   1   7
BRANCH   4  18
ATOM     18  C   UNL     1      -5.653  -3.839  -2.002  0.00  0.00    +0.141 C 
BRANCH  18  19
ATOM     19  C   UNL     1      -6.203  -3.435  -3.346  0.00  0.00    -0.030 A 
ATOM     20  C   UNL     1      -6.323  -2.095  -3.667  0.00  0.00    +0.007 A 
ATOM     21  C   UNL     1      -6.826  -1.721  -4.898  0.00  0.00    +0.023 A 
ATOM     22  C   UNL     1      -7.212  -2.692  -5.813  0.00  0.00    +0.030 A 
ATOM     23  C   UNL     1      -7.090  -4.037  -5.487  0.00  0.00    +0.023 A 
ATOM     24  C   UNL     1      -6.581  -4.404  -4.256  0.00  0.00    +0.007 A 
BRANCH  22  25
ATOM     25  N   UNL     1      -7.721  -2.317  -7.058  0.00  0.00    -0.320 N 
ATOM     26  C   UNL     1      -8.027  -3.319  -8.094  0.00  0.00    +0.124 C 
ATOM     27  C   UNL     1      -9.523  -3.245  -8.402  0.00  0.00    +0.123 C 
ATOM     28  N   UNL     1      -9.947  -1.863  -8.582  0.00  0.00    -0.313 N 
ATOM     29  C   UNL     1      -9.294  -0.803  -8.102  0.00  0.00    +0.230 C 
ATOM     30  O   UNL     1      -9.788   0.295  -8.249  0.00  0.00    -0.274 OA
ATOM     31  C   UNL     1      -7.980  -0.907  -7.386  0.00  0.00    +0.200 C 
ATOM     32  H   UNL     1     -10.760  -1.702  -9.085  0.00  0.00    +0.149 HD
ENDBRANCH  22  25
ENDBRANCH  18  19
ENDBRANCH   4  18
TORSDOF 6
