REMARK  Name = ZINC38050451
REMARK  6 active torsions:
REMARK  status: ('A' for Active; 'I' for Inactive)
REMARK    1  A    between atoms: C_1  and  C_2
REMARK    2  A    between atoms: C_4  and  N_21
REMARK    3  A    between atoms: C_7  and  S_8
REMARK    4  A    between atoms: S_8  and  N_11
REMARK    5  A    between atoms: N_11  and  C_12
REMARK    6  A    between atoms: C_18  and  N_20
REMARK                            x       y       z     vdW  Elec       q    Type
REMARK                         _______ _______ _______ _____ _____    ______ ____
ROOT
ATOM      1  S   UNL     1      -0.063  -0.053   2.731  0.00  0.00    +0.059 S 
ATOM      2  O   UNL     1      -1.267   0.702   2.747  0.00  0.00    -0.153 OA
ATOM      3  O   UNL     1       0.183  -1.113   3.644  0.00  0.00    -0.153 OA
ENDROOT
BRANCH   1  10
ATOM      4  C   UNL     1       2.232  -1.801   1.823  0.00  0.00    +0.046 C 
ATOM      5  C   UNL     1       1.168  -1.526   0.791  0.00  0.00    -0.022 A 
ATOM      6  C   UNL     1       1.278  -2.068  -0.476  0.00  0.00    +0.038 A 
ATOM      7  C   UNL     1       0.303  -1.815  -1.423  0.00  0.00    +0.127 A 
ATOM      8  C   UNL     1      -0.783  -1.022  -1.102  0.00  0.00    +0.034 A 
ATOM      9  C   UNL     1      -0.893  -0.481   0.166  0.00  0.00    +0.031 A 
ATOM     10  C   UNL     1       0.080  -0.737   1.113  0.00  0.00    +0.108 A 
BRANCH   7  11
ATOM     11  N   UNL     1       0.421  -2.395  -2.780  0.00  0.00    +0.056 N 
ATOM     12  O   UNL     1       1.371  -3.088  -3.061  0.00  0.00    -0.126 OA
ATOM     13  O   UNL     1      -0.432  -2.174  -3.607  0.00  0.00    -0.126 OA
ENDBRANCH   7  11
ENDBRANCH   1  10
BRANCH   1  14
ATOM     14  N   UNL     1       1.176   1.029   2.916  0.00  0.00    -0.188 NA
ATOM     15  H   UNL     1       1.876   0.859   3.567  0.00  0.00    +0.148 HD
BRANCH  14  16
ATOM     16  C   UNL     1       1.217   2.244   2.098  0.00  0.00    +0.062 C 
ATOM     17  C   UNL     1       0.568   3.397   2.865  0.00  0.00    +0.019 C 
ATOM     18  C   UNL     1       1.330   3.636   4.170  0.00  0.00    +0.001 C 
ATOM     19  C   UNL     1       2.785   3.989   3.853  0.00  0.00    -0.001 C 
ATOM     20  C   UNL     1       3.434   2.835   3.086  0.00  0.00    -0.015 C 
ATOM     21  C   UNL     1       2.672   2.597   1.782  0.00  0.00    -0.056 C 
BRANCH  21  22
ATOM     22  N   UNL     1       3.295   1.490   1.045  0.00  0.00    +0.381 N 
ATOM     23  H   UNL     1       2.792   1.333   0.185  0.00  0.00    -0.090 HD
ATOM     24  H   UNL     1       4.255   1.722   0.836  0.00  0.00    -0.090 HD
ATOM     25  H   UNL     1       3.267   0.653   1.609  0.00  0.00    -0.090 HD
ENDBRANCH  21  22
ENDBRANCH  14  16
ENDBRANCH   1  14
TORSDOF 5
