REMARK  Name = ZINC33811852
REMARK  6 active torsions:
REMARK  status: ('A' for Active; 'I' for Inactive)
REMARK    1  A    between atoms: C_1  and  C_2
REMARK    2  A    between atoms: C_3  and  C_18
REMARK    3  A    between atoms: C_4  and  N_12
REMARK    4  A    between atoms: N_5  and  C_11
REMARK    5  A    between atoms: C_8  and  C_9
REMARK    6  A    between atoms: N_22  and  C_26
REMARK                            x       y       z     vdW  Elec       q    Type
REMARK                         _______ _______ _______ _____ _____    ______ ____
ROOT
ATOM      1  C   UNL     1       0.708  -2.517  -3.008  0.00  0.00    +0.046 C 
ATOM      2  C   UNL     1       0.536  -3.569  -4.073  0.00  0.00    -0.017 A 
ATOM      3  C   UNL     1       0.785  -4.922  -3.788  0.00  0.00    +0.019 A 
ATOM      4  C   UNL     1       0.623  -5.882  -4.799  0.00  0.00    +0.112 A 
ATOM      5  N   UNL     1       0.219  -5.514  -6.042  0.00  0.00    -0.298 N 
ATOM      6  C   UNL     1      -0.025  -4.225  -6.341  0.00  0.00    +0.270 A 
ATOM      7  O   UNL     1      -0.382  -3.923  -7.466  0.00  0.00    -0.266 OA
ATOM      8  C   UNL     1       0.129  -3.216  -5.357  0.00  0.00    +0.120 A 
ATOM      9  C   UNL     1       0.052  -6.537  -7.077  0.00  0.00    +0.154 C 
ENDROOT
BRANCH   3  10
ATOM     10  C   UNL     1       1.215  -5.326  -2.448  0.00  0.00    +0.032 C 
ATOM     11  C   UNL     1       2.429  -4.933  -1.975  0.00  0.00    +0.077 C 
ATOM     12  C   UNL     1       3.476  -4.223  -2.639  0.00  0.00    +0.259 C 
ATOM     13  O   UNL     1       3.359  -3.873  -3.799  0.00  0.00    -0.269 OA
ATOM     14  N   UNL     1       4.575  -3.956  -1.955  0.00  0.00    -0.251 N 
ATOM     15  C   UNL     1       4.707  -4.350  -0.669  0.00  0.00    +0.121 C 
ATOM     16  S   UNL     1       6.030  -4.120   0.393  0.00  0.00    -0.027 S 
ATOM     17  S   UNL     1       3.149  -5.166  -0.356  0.00  0.00    -0.061 S 
BRANCH  14  18
ATOM     18  C   UNL     1       5.670  -3.229  -2.603  0.00  0.00    +0.105 C 
ATOM     19  C   UNL     1       5.938  -1.923  -1.838  0.00  0.00    +0.047 C 
ATOM     20  C   UNL     1       7.286  -1.334  -2.343  0.00  0.00    +0.168 C 
ATOM     21  S   UNL     1       8.294  -2.871  -2.483  0.00  0.00    -0.029 S 
ATOM     22  O   UNL     1       9.008  -2.845  -3.712  0.00  0.00    -0.174 OA
ATOM     23  O   UNL     1       9.000  -3.073  -1.267  0.00  0.00    -0.174 OA
ATOM     24  C   UNL     1       6.941  -4.111  -2.604  0.00  0.00    +0.188 C 
ENDBRANCH  14  18
ENDBRANCH   3  10
BRANCH   4  25
ATOM     25  N   UNL     1       0.869  -7.197  -4.529  0.00  0.00    -0.312 N 
ATOM     26  C   UNL     1      -0.093  -7.722  -3.550  0.00  0.00    +0.134 C 
ATOM     27  C   UNL     1       0.180  -9.211  -3.322  0.00  0.00    +0.178 C 
ATOM     28  O   UNL     1       1.534  -9.382  -2.896  0.00  0.00    -0.377 OA
ATOM     29  C   UNL     1       2.498  -8.882  -3.827  0.00  0.00    +0.178 C 
ATOM     30  C   UNL     1       2.248  -7.390  -4.060  0.00  0.00    +0.134 C 
ENDBRANCH   4  25
BRANCH   8  31
ATOM     31  C   UNL     1      -0.133  -1.846  -5.681  0.00  0.00    +0.105 C 
ATOM     32  N   UNL     1      -0.341  -0.759  -5.937  0.00  0.00    -0.191 NA
ENDBRANCH   8  31
TORSDOF 4
