REMARK  Name = ZINC12292926
REMARK  8 active torsions:
REMARK  status: ('A' for Active; 'I' for Inactive)
REMARK    1  A    between atoms: C_1  and  C_2
REMARK    2  A    between atoms: C_5  and  C_8
REMARK    3  A    between atoms: C_8  and  O_27
REMARK    4  A    between atoms: C_13  and  C_14
REMARK    5  A    between atoms: C_13  and  N_55
REMARK    6  A    between atoms: C_15  and  C_26
REMARK    7  A    between atoms: C_18  and  O_24
REMARK    8  A    between atoms: O_24  and  C_25
REMARK                            x       y       z     vdW  Elec       q    Type
REMARK                         _______ _______ _______ _____ _____    ______ ____
ROOT
ATOM      1  C   UNL     1      -3.584  -0.959  -3.563  0.00  0.00    +0.088 C 
ATOM      2  C   UNL     1      -3.195  -2.277  -2.887  0.00  0.00    +0.021 C 
ATOM      3  C   UNL     1      -2.821  -2.005  -1.428  0.00  0.00    -0.075 C 
ATOM      4  C   UNL     1      -2.065   0.230  -1.978  0.00  0.00    -0.075 C 
ATOM      5  C   UNL     1      -2.417   0.025  -3.453  0.00  0.00    +0.021 C 
ATOM      6  N   UNL     1      -1.677  -1.070  -1.392  0.00  0.00    +0.383 N 
ATOM      7  H   UNL     1      -0.905  -1.466  -1.942  0.00  0.00    -0.081 HD
ENDROOT
BRANCH   1  12
ATOM      8  C   UNL     1      -4.785  -1.927  -9.132  0.00  0.00    +0.044 C 
ATOM      9  C   UNL     1      -4.471  -1.674  -7.680  0.00  0.00    -0.050 A 
ATOM     10  C   UNL     1      -5.105  -0.648  -7.004  0.00  0.00    +0.004 A 
ATOM     11  C   UNL     1      -4.817  -0.417  -5.672  0.00  0.00    +0.007 A 
ATOM     12  C   UNL     1      -3.897  -1.212  -5.015  0.00  0.00    -0.016 A 
ATOM     13  C   UNL     1      -3.260  -2.235  -5.692  0.00  0.00    +0.007 A 
ATOM     14  C   UNL     1      -3.550  -2.469  -7.023  0.00  0.00    +0.004 A 
ENDBRANCH   1  12
BRANCH   1  15
ATOM     15  O   UNL     1      -4.734  -0.411  -2.914  0.00  0.00    -0.384 OA
ATOM     16  H   UNL     1      -5.036   0.426  -3.292  0.00  0.00    +0.211 HD
ENDBRANCH   1  15
BRANCH   6  17
ATOM     17  C   UNL     1      -1.223  -0.881   0.002  0.00  0.00    -0.024 C 
BRANCH  17  18
ATOM     18  C   UNL     1       0.136  -0.230  -0.017  0.00  0.00    +0.003 A 
ATOM     19  C   UNL     1       1.287  -0.859  -0.304  0.00  0.00    -0.024 A 
ATOM     20  C   UNL     1       2.356   0.138  -0.206  0.00  0.00    +0.006 A 
ATOM     21  C   UNL     1       3.740   0.096  -0.387  0.00  0.00    +0.056 A 
ATOM     22  C   UNL     1       4.486   1.244  -0.213  0.00  0.00    +0.121 A 
ATOM     23  C   UNL     1       3.864   2.439   0.140  0.00  0.00    +0.047 A 
ATOM     24  C   UNL     1       2.499   2.492   0.320  0.00  0.00    +0.030 A 
ATOM     25  C   UNL     1       1.730   1.346   0.150  0.00  0.00    +0.047 A 
ATOM     26  N   UNL     1       0.380   1.087   0.257  0.00  0.00    -0.359 N 
ATOM     27  H   UNL     1      -0.296   1.742   0.492  0.00  0.00    +0.166 HD
ATOM     28  C   UNL     1       1.450  -2.315  -0.655  0.00  0.00    +0.046 C 
BRANCH  22  29
ATOM     29  O   UNL     1       5.834   1.209  -0.388  0.00  0.00    -0.495 OA
ATOM     30  C   UNL     1       6.546   2.433  -0.193  0.00  0.00    +0.277 C 
ENDBRANCH  22  29
ENDBRANCH  17  18
ENDBRANCH   6  17
TORSDOF 5
