REMARK  Name = ZINC20035857
REMARK  2 active torsions:
REMARK  status: ('A' for Active; 'I' for Inactive)
REMARK    1  A    between atoms: C_6  and  N_7
REMARK    2  A    between atoms: C_8  and  C_9
REMARK                            x       y       z     vdW  Elec       q    Type
REMARK                         _______ _______ _______ _____ _____    ______ ____
ROOT
ATOM      1  C   UNL     1      -2.625  -2.489  -0.776  0.00  0.00    +0.184 C 
ATOM      2  C   UNL     1      -3.229  -2.514  -2.163  0.00  0.00    +0.192 C 
ATOM      3  O   UNL     1      -3.586  -1.562  -2.826  0.00  0.00    -0.290 OA
ATOM      4  C   UNL     1      -3.291  -3.933  -2.536  0.00  0.00    +0.060 A 
ATOM      5  C   UNL     1      -2.775  -4.702  -1.481  0.00  0.00    +0.040 A 
ATOM      6  C   UNL     1      -2.733  -6.089  -1.611  0.00  0.00    +0.025 A 
ATOM      7  C   UNL     1      -3.192  -6.695  -2.760  0.00  0.00    +0.018 A 
ATOM      8  C   UNL     1      -3.701  -5.937  -3.804  0.00  0.00    +0.037 A 
ATOM      9  C   UNL     1      -3.754  -4.563  -3.700  0.00  0.00    +0.067 A 
ATOM     10 CL   UNL     1      -4.393  -3.616  -5.007  0.00  0.00    -0.082 Cl
ATOM     11 BR   UNL     1      -4.325  -6.790  -5.372  0.00  0.00    -0.049 Br
ATOM     12  N   UNL     1      -2.373  -3.891  -0.430  0.00  0.00    -0.329 N 
ATOM     13  H   UNL     1      -1.988  -4.203   0.404  0.00  0.00    +0.147 HD
ENDROOT
BRANCH   1  15
ATOM     14  N   UNL     1      -1.176  -0.709   0.010  0.00  0.00    -0.258 NA
ATOM     15  C   UNL     1      -1.332  -1.715  -0.784  0.00  0.00    +0.114 C 
BRANCH  14  21
ATOM     16  C   UNL     1      -0.017   1.391   0.010  0.00  0.00    +0.029 A 
ATOM     17  C   UNL     1       1.170   2.094   0.002  0.00  0.00    +0.017 A 
ATOM     18  C   UNL     1       2.378   1.418  -0.013  0.00  0.00    +0.018 A 
ATOM     19  C   UNL     1       2.403   0.034  -0.022  0.00  0.00    +0.017 A 
ATOM     20  C   UNL     1       1.222  -0.680  -0.014  0.00  0.00    +0.029 A 
ATOM     21  C   UNL     1       0.002  -0.004   0.002  0.00  0.00    +0.064 A 
ATOM     22 BR   UNL     1       4.000   2.390  -0.024  0.00  0.00    -0.050 Br
ENDBRANCH  14  21
ENDBRANCH   1  15
TORSDOF 2
