REMARK  Name = ZINC21222369
REMARK  12 active torsions:
REMARK  status: ('A' for Active; 'I' for Inactive)
REMARK    1  A    between atoms: C_1  and  O_2
REMARK    2  A    between atoms: O_2  and  C_3
REMARK    3  A    between atoms: C_6  and  O_39
REMARK    4  A    between atoms: C_7  and  C_9
REMARK    5  A    between atoms: C_14  and  C_24
REMARK    6  A    between atoms: C_26  and  O_34
REMARK    7  A    between atoms: C_27  and  O_32
REMARK    8  A    between atoms: C_29  and  O_30
REMARK    9  A    between atoms: O_30  and  C_31
REMARK   10  A    between atoms: O_32  and  C_33
REMARK   11  A    between atoms: O_34  and  C_35
REMARK   12  A    between atoms: O_39  and  C_40
REMARK                            x       y       z     vdW  Elec       q    Type
REMARK                         _______ _______ _______ _____ _____    ______ ____
ROOT
ATOM      1  C   UNL     1       5.724   4.263  -1.139  0.00  0.00    +0.036 C 
ATOM      2  C   UNL     1       5.342   2.789  -1.025  0.00  0.00    +0.060 C 
ATOM      3  C   UNL     1       3.863   2.659  -0.701  0.00  0.00    +0.017 C 
ATOM      4  C   UNL     1       2.982   3.564  -1.161  0.00  0.00    +0.037 C 
ATOM      5  C   UNL     1       1.490   3.544  -0.932  0.00  0.00    +0.140 C 
ATOM      6  N   UNL     1       1.047   2.596   0.068  0.00  0.00    -0.331 N 
ATOM      7  C   UNL     1       1.201   1.223  -0.122  0.00  0.00    +0.049 A 
ATOM      8  C   UNL     1       0.109   0.385  -0.277  0.00  0.00    +0.025 A 
ATOM      9  C   UNL     1       0.316  -0.957  -0.550  0.00  0.00    +0.002 A 
ATOM     10  C   UNL     1       1.599  -1.457  -0.666  0.00  0.00    +0.002 A 
ATOM     11  C   UNL     1       2.693  -0.625  -0.496  0.00  0.00    +0.025 A 
ATOM     12  C   UNL     1       2.488   0.713  -0.207  0.00  0.00    +0.052 A 
ATOM     13  N   UNL     1       3.539   1.583   0.058  0.00  0.00    -0.316 N 
ATOM     14  C   UNL     1       3.428   4.662  -1.934  0.00  0.00    +0.163 C 
ATOM     15  O   UNL     1       2.608   5.457  -2.351  0.00  0.00    -0.292 OA
ATOM     16  C   UNL     1       4.876   4.880  -2.257  0.00  0.00    +0.088 C 
ATOM     17  H   UNL     1       0.580   2.954   0.997  0.00  0.00    +0.147 HD
ATOM     18  H   UNL     1       4.127   1.347   0.957  0.00  0.00    +0.152 HD
ENDROOT
BRANCH   1  23
ATOM     19  C   UNL     1       9.020   3.944  -2.959  0.00  0.00    +0.121 A 
ATOM     20  C   UNL     1       9.877   4.617  -2.100  0.00  0.00    +0.049 A 
ATOM     21  C   UNL     1       9.390   5.174  -0.934  0.00  0.00    +0.049 A 
ATOM     22  C   UNL     1       8.044   5.060  -0.621  0.00  0.00    +0.124 A 
ATOM     23  C   UNL     1       7.187   4.387  -1.479  0.00  0.00    +0.002 A 
ATOM     24  C   UNL     1       7.675   3.826  -2.643  0.00  0.00    +0.053 A 
BRANCH  19  26
ATOM     25  C   UNL     1      10.897   3.551  -4.366  0.00  0.00    +0.277 C 
ATOM     26  O   UNL     1       9.500   3.396  -4.107  0.00  0.00    -0.495 OA
ENDBRANCH  19  26
BRANCH  22  27
ATOM     27  O   UNL     1       7.564   5.609   0.527  0.00  0.00    -0.495 OA
ATOM     28  C   UNL     1       8.503   6.287   1.363  0.00  0.00    +0.277 C 
ENDBRANCH  22  27
ENDBRANCH   1  23
BRANCH   5  29
ATOM     29  C   UNL     1       0.812   3.214  -2.237  0.00  0.00    +0.023 A 
ATOM     30  C   UNL     1       1.514   2.561  -3.234  0.00  0.00    +0.058 A 
ATOM     31  C   UNL     1       0.892   2.257  -4.434  0.00  0.00    +0.162 A 
ATOM     32  C   UNL     1      -0.439   2.608  -4.636  0.00  0.00    +0.165 A 
ATOM     33  C   UNL     1      -1.140   3.261  -3.636  0.00  0.00    +0.095 A 
ATOM     34  C   UNL     1      -0.516   3.559  -2.434  0.00  0.00    +0.129 A 
BRANCH  34  35
ATOM     35  O   UNL     1      -1.206   4.196  -1.450  0.00  0.00    -0.495 OA
ATOM     36  C   UNL     1      -2.570   4.522  -1.721  0.00  0.00    +0.277 C 
ENDBRANCH  34  35
BRANCH  32  37
ATOM     37  O   UNL     1      -1.050   2.310  -5.813  0.00  0.00    -0.491 OA
ATOM     38  C   UNL     1      -2.418   2.700  -5.951  0.00  0.00    +0.277 C 
ENDBRANCH  32  37
BRANCH  31  39
ATOM     39  O   UNL     1       1.583   1.614  -5.414  0.00  0.00    -0.491 OA
ATOM     40  C   UNL     1       2.909   1.184  -5.098  0.00  0.00    +0.277 C 
ENDBRANCH  31  39
ENDBRANCH   5  29
TORSDOF 7
