REMARK  Name = ZINC38688719
REMARK  12 active torsions:
REMARK  status: ('A' for Active; 'I' for Inactive)
REMARK    1  A    between atoms: C_1  and  C_2
REMARK    2  A    between atoms: C_2  and  O_3
REMARK    3  A    between atoms: O_3  and  C_4
REMARK    4  A    between atoms: C_7  and  C_12
REMARK    5  A    between atoms: C_9  and  O_10
REMARK    6  A    between atoms: O_10  and  C_11
REMARK    7  A    between atoms: C_17  and  O_26
REMARK    8  A    between atoms: C_21  and  N_25
REMARK    9  A    between atoms: C_22  and  C_23
REMARK   10  A    between atoms: O_26  and  C_27
REMARK   11  A    between atoms: C_27  and  C_29
REMARK   12  A    between atoms: C_30  and  C_39
REMARK                            x       y       z     vdW  Elec       q    Type
REMARK                         _______ _______ _______ _____ _____    ______ ____
ROOT
ATOM      1  C   UNL     1       1.122  -6.086  -1.797  0.00  0.00    +0.098 C 
ATOM      2  C   UNL     1      -0.260  -6.679  -1.875  0.00  0.00    +0.008 A 
ATOM      3  C   UNL     1      -1.029  -6.466  -3.005  0.00  0.00    +0.012 A 
ATOM      4  C   UNL     1      -2.299  -7.001  -3.095  0.00  0.00    +0.047 A 
ATOM      5  C   UNL     1      -2.808  -7.757  -2.047  0.00  0.00    +0.136 A 
ATOM      6  C   UNL     1      -2.041  -7.972  -0.914  0.00  0.00    +0.093 A 
ATOM      7  C   UNL     1      -0.764  -7.432  -0.826  0.00  0.00    +0.138 A 
ATOM      8  O   UNL     1      -0.026  -7.651   0.290  0.00  0.00    -0.441 OA
ATOM      9  C   UNL     1       1.307  -7.488   0.254  0.00  0.00    +0.199 C 
ATOM     10  C   UNL     1       1.911  -6.758  -0.708  0.00  0.00    +0.098 C 
ENDROOT
BRANCH   1  14
ATOM     11  C   UNL     1       0.823  -1.905  -0.952  0.00  0.00    +0.162 A 
ATOM     12  C   UNL     1       0.309  -2.833  -0.061  0.00  0.00    +0.050 A 
ATOM     13  C   UNL     1       0.407  -4.184  -0.337  0.00  0.00    +0.008 A 
ATOM     14  C   UNL     1       1.017  -4.612  -1.501  0.00  0.00    -0.031 A 
ATOM     15  C   UNL     1       1.532  -3.691  -2.394  0.00  0.00    +0.054 A 
ATOM     16  C   UNL     1       1.432  -2.335  -2.126  0.00  0.00    +0.162 A 
BRANCH  16  17
ATOM     17  O   UNL     1       1.933  -1.428  -3.007  0.00  0.00    -0.491 OA
ATOM     18  C   UNL     1       2.544  -1.942  -4.191  0.00  0.00    +0.277 C 
ENDBRANCH  16  17
BRANCH  11  19
ATOM     19  O   UNL     1       0.726  -0.575  -0.682  0.00  0.00    -0.489 OA
BRANCH  19  21
ATOM     20  C   UNL     1       0.074   1.318   0.671  0.00  0.00    +0.048 C 
ATOM     21  C   UNL     1       0.088  -0.206   0.542  0.00  0.00    +0.226 C 
ENDBRANCH  19  21
ENDBRANCH  11  19
ENDBRANCH   1  14
BRANCH   9  22
ATOM     22  N   UNL     1       2.077  -8.080   1.225  0.00  0.00    -0.328 N 
ATOM     23  H   UNL     1       1.657  -8.607   1.923  0.00  0.00    +0.145 HD
ATOM     24  H   UNL     1       3.041  -7.972   1.213  0.00  0.00    +0.145 HD
ENDBRANCH   9  22
BRANCH  10  25
ATOM     25  C   UNL     1       3.337  -6.622  -0.689  0.00  0.00    +0.101 C 
ATOM     26  N   UNL     1       4.467  -6.514  -0.674  0.00  0.00    -0.191 NA
ENDBRANCH  10  25
BRANCH   5  27
ATOM     27  O   UNL     1      -4.057  -8.284  -2.133  0.00  0.00    -0.420 OA
BRANCH  27  28
ATOM     28  C   UNL     1      -5.015  -7.777  -1.330  0.00  0.00    +0.380 C 
ATOM     29  O   UNL     1      -4.776  -6.808  -0.636  0.00  0.00    -0.241 OA
BRANCH  28  30
ATOM     30  C   UNL     1      -6.346  -8.395  -1.295  0.00  0.00    +0.216 A 
ATOM     31  C   UNL     1      -7.387  -7.969  -0.532  0.00  0.00    +0.010 A 
ATOM     32  C   UNL     1      -8.497  -8.876  -0.818  0.00  0.00    +0.027 A 
ATOM     33  C   UNL     1      -9.816  -8.973  -0.366  0.00  0.00    +0.050 A 
ATOM     34  C   UNL     1     -10.629  -9.975  -0.849  0.00  0.00    +0.124 A 
ATOM     35  C   UNL     1     -10.141 -10.885  -1.780  0.00  0.00    +0.042 A 
ATOM     36  C   UNL     1      -8.843 -10.800  -2.234  0.00  0.00    +0.050 A 
ATOM     37  C   UNL     1      -8.005  -9.797  -1.761  0.00  0.00    +0.136 A 
ATOM     38  O   UNL     1      -6.723  -9.470  -2.020  0.00  0.00    -0.448 OA
ATOM     39  F   UNL     1     -11.905 -10.074  -0.416  0.00  0.00    -0.205 F 
ATOM     40  C   UNL     1      -7.394  -6.799   0.418  0.00  0.00    +0.048 C 
ENDBRANCH  28  30
ENDBRANCH  27  28
ENDBRANCH   5  27
TORSDOF 9
