REMARK  Name = ZINC20885190
REMARK  6 active torsions:
REMARK  status: ('A' for Active; 'I' for Inactive)
REMARK    1  A    between atoms: C_1  and  C_2
REMARK    2  A    between atoms: C_2  and  C_3
REMARK    3  A    between atoms: C_2  and  O_4
REMARK    4  A    between atoms: O_4  and  C_5
REMARK    5  A    between atoms: C_8  and  C_11
REMARK    6  A    between atoms: C_16  and  C_21
REMARK                            x       y       z     vdW  Elec       q    Type
REMARK                         _______ _______ _______ _____ _____    ______ ____
ROOT
ATOM      1  C   UNL     1       3.746  -0.457  -0.952  0.00  0.00    +0.136 C 
ATOM      2  C   UNL     1       4.494  -0.565   0.355  0.00  0.00    +0.036 C 
ATOM      3  C   UNL     1       5.594   0.131   0.694  0.00  0.00    +0.017 C 
ATOM      4  C   UNL     1       6.254  -0.080   2.046  0.00  0.00    +0.059 C 
ATOM      5  C   UNL     1       5.202  -0.446   3.091  0.00  0.00    +0.032 C 
ATOM      6  C   UNL     1       4.510  -1.732   2.625  0.00  0.00    +0.088 C 
ATOM      7  C   UNL     1       3.933  -1.496   1.262  0.00  0.00    +0.163 C 
ATOM      8  O   UNL     1       2.951  -2.125   0.922  0.00  0.00    -0.292 OA
ATOM      9  N   UNL     1       6.209   1.040  -0.104  0.00  0.00    -0.316 N 
ATOM     10  C   UNL     1       5.560   2.041  -0.817  0.00  0.00    +0.052 A 
ATOM     11  C   UNL     1       5.752   3.385  -0.548  0.00  0.00    +0.025 A 
ATOM     12  C   UNL     1       5.111   4.332  -1.329  0.00  0.00    +0.002 A 
ATOM     13  C   UNL     1       4.289   3.938  -2.369  0.00  0.00    +0.002 A 
ATOM     14  C   UNL     1       4.082   2.594  -2.628  0.00  0.00    +0.025 A 
ATOM     15  C   UNL     1       4.705   1.644  -1.834  0.00  0.00    +0.049 A 
ATOM     16  N   UNL     1       4.440   0.284  -1.983  0.00  0.00    -0.331 N 
ATOM     17  H   UNL     1       7.302   1.017  -0.223  0.00  0.00    +0.152 HD
ATOM     18  H   UNL     1       4.766  -0.225  -2.902  0.00  0.00    +0.147 HD
ENDROOT
BRANCH   5  19
ATOM     19  C   UNL     1       5.865  -0.675   4.425  0.00  0.00    -0.043 A 
ATOM     20  C   UNL     1       6.817  -1.668   4.561  0.00  0.00    +0.005 A 
ATOM     21  C   UNL     1       7.429  -1.875   5.783  0.00  0.00    +0.020 A 
ATOM     22  C   UNL     1       7.082  -1.096   6.872  0.00  0.00    +0.041 A 
ATOM     23  C   UNL     1       6.125  -0.106   6.736  0.00  0.00    +0.020 A 
ATOM     24  C   UNL     1       5.517   0.104   5.512  0.00  0.00    +0.005 A 
ATOM     25 CL   UNL     1       7.846  -1.360   8.408  0.00  0.00    -0.084 Cl
ENDBRANCH   5  19
BRANCH   1  29
ATOM     26  C   UNL     1      -0.009   1.443  -0.211  0.00  0.00    +0.121 A 
ATOM     27  C   UNL     1       0.029   0.137  -0.676  0.00  0.00    +0.046 A 
ATOM     28  C   UNL     1       1.244  -0.475  -0.915  0.00  0.00    +0.009 A 
ATOM     29  C   UNL     1       2.422   0.213  -0.690  0.00  0.00    -0.023 A 
ATOM     30  C   UNL     1       2.387   1.515  -0.227  0.00  0.00    +0.009 A 
ATOM     31  C   UNL     1       1.175   2.132   0.013  0.00  0.00    +0.046 A 
BRANCH  26  32
ATOM     32  O   UNL     1      -1.203   2.046   0.030  0.00  0.00    -0.489 OA
BRANCH  32  34
ATOM     33  C   UNL     1      -0.996   4.399  -0.476  0.00  0.00    +0.051 C 
ATOM     34  C   UNL     1      -1.166   3.346   0.621  0.00  0.00    +0.167 C 
ATOM     35  C   UNL     1      -2.473   3.602   1.374  0.00  0.00    +0.051 C 
ENDBRANCH  32  34
ENDBRANCH  26  32
ENDBRANCH   1  29
TORSDOF 4
