REMARK  Name = ZINC67511309
REMARK  5 active torsions:
REMARK  status: ('A' for Active; 'I' for Inactive)
REMARK    1  A    between atoms: C_1  and  C_2
REMARK    2  A    between atoms: N_4  and  C_5
REMARK    3  A    between atoms: C_8  and  C_11
REMARK    4  A    between atoms: C_12  and  C_13
REMARK    5  A    between atoms: C_22  and  N_24
REMARK                            x       y       z     vdW  Elec       q    Type
REMARK                         _______ _______ _______ _____ _____    ______ ____
ROOT
ATOM      1  C   UNL     1       0.649  -8.357  -2.688  0.00  0.00    +0.244 C 
ATOM      2  O   UNL     1       0.566  -9.021  -1.671  0.00  0.00    -0.270 OA
ATOM      3  N   UNL     1       0.846  -8.965  -3.875  0.00  0.00    -0.267 N 
ATOM      4  C   UNL     1       0.864  -8.285  -5.173  0.00  0.00    +0.118 C 
ATOM      5  C   UNL     1       1.120  -9.395  -6.205  0.00  0.00    +0.056 C 
ATOM      6  C   UNL     1       1.232 -10.660  -5.384  0.00  0.00    -0.022 A 
ATOM      7  C   UNL     1       1.069 -10.333  -4.047  0.00  0.00    +0.040 A 
ATOM      8  C   UNL     1       1.137 -11.346  -3.088  0.00  0.00    +0.026 A 
ATOM      9  C   UNL     1       1.368 -12.651  -3.471  0.00  0.00    +0.034 A 
ATOM     10  C   UNL     1       1.533 -12.965  -4.807  0.00  0.00    +0.127 A 
ATOM     11  C   UNL     1       1.458 -11.969  -5.763  0.00  0.00    +0.038 A 
ENDROOT
BRANCH  10  12
ATOM     12  N   UNL     1       1.781 -14.367  -5.214  0.00  0.00    +0.056 N 
ATOM     13  O   UNL     1       1.839 -15.238  -4.378  0.00  0.00    -0.126 OA
ATOM     14  O   UNL     1       1.926 -14.640  -6.383  0.00  0.00    -0.126 OA
ENDBRANCH  10  12
BRANCH   1  16
ATOM     15  C   UNL     1       0.441  -6.285  -1.424  0.00  0.00    +0.013 C 
ATOM     16  C   UNL     1       0.536  -6.901  -2.621  0.00  0.00    +0.068 C 
BRANCH  15  20
ATOM     17  C   UNL     1       0.115  -2.061  -1.231  0.00  0.00    +0.033 A 
ATOM     18  C   UNL     1       0.123  -2.810  -0.059  0.00  0.00    +0.024 A 
ATOM     19  C   UNL     1       0.229  -4.181  -0.116  0.00  0.00    +0.010 A 
ATOM     20  C   UNL     1       0.328  -4.821  -1.357  0.00  0.00    -0.025 A 
ATOM     21  C   UNL     1       0.318  -4.064  -2.534  0.00  0.00    +0.010 A 
ATOM     22  C   UNL     1       0.207  -2.694  -2.467  0.00  0.00    +0.024 A 
BRANCH  17  26
ATOM     23  C   UNL     1       0.567   1.511  -0.147  0.00  0.00    +0.109 C 
ATOM     24  C   UNL     1       0.594   0.005  -0.160  0.00  0.00    +0.214 C 
ATOM     25  O   UNL     1       1.143  -0.600   0.737  0.00  0.00    -0.276 OA
ATOM     26  N   UNL     1       0.008  -0.671  -1.168  0.00  0.00    -0.286 N 
ATOM     27  H   UNL     1      -0.489  -0.191  -1.849  0.00  0.00    +0.155 HD
ENDBRANCH  17  26
ENDBRANCH  15  20
ENDBRANCH   1  16
TORSDOF 4
