REMARK  Name = ZINC20238985
REMARK  6 active torsions:
REMARK  status: ('A' for Active; 'I' for Inactive)
REMARK    1  A    between atoms: C_1  and  C_2
REMARK    2  A    between atoms: C_5  and  N_32
REMARK    3  A    between atoms: C_7  and  C_8
REMARK    4  A    between atoms: C_11  and  C_13
REMARK    5  A    between atoms: C_23  and  C_25
REMARK    6  A    between atoms: C_25  and  C_26
REMARK                            x       y       z     vdW  Elec       q    Type
REMARK                         _______ _______ _______ _____ _____    ______ ____
ROOT
ATOM      1  C   UNL     1       1.310   2.972   4.539  0.00  0.00    +0.063 C 
ATOM      2  C   UNL     1       2.262   3.614   3.763  0.00  0.00    +0.084 C 
ATOM      3  C   UNL     1       2.618   3.131   2.402  0.00  0.00    +0.153 C 
ATOM      4  N   UNL     1       1.761   2.561   1.595  0.00  0.00    -0.283 NA
ATOM      5  N   UNL     1       3.972   3.348   2.066  0.00  0.00    -0.152 N 
ATOM      6  C   UNL     1       4.639   4.352   2.735  0.00  0.00    +0.181 C 
ATOM      7  N   UNL     1       4.195   5.081   3.727  0.00  0.00    -0.152 NA
ATOM      8  C   UNL     1       2.974   4.821   4.242  0.00  0.00    +0.273 C 
ATOM      9  O   UNL     1       2.473   5.555   5.080  0.00  0.00    -0.268 OA
ATOM     10  S   UNL     1       6.214   4.358   1.919  0.00  0.00    -0.038 S 
ATOM     11  C   UNL     1       5.917   2.975   0.826  0.00  0.00    +0.104 C 
ATOM     12  N   UNL     1       4.689   2.653   1.116  0.00  0.00    -0.169 NA
ATOM     13  H   UNL     1       2.023   2.335   0.689  0.00  0.00    +0.188 HD
ENDROOT
BRANCH   1  17
ATOM     14  C   UNL     1       0.464  -0.107   2.970  0.00  0.00    +0.136 A 
ATOM     15  C   UNL     1      -0.414  -0.146   4.033  0.00  0.00    +0.050 A 
ATOM     16  C   UNL     1      -0.211   1.018   4.773  0.00  0.00    +0.050 A 
ATOM     17  C   UNL     1       0.790   1.732   4.131  0.00  0.00    +0.129 A 
ATOM     18  O   UNL     1       1.183   1.026   3.049  0.00  0.00    -0.455 OA
BRANCH  14  25
ATOM     19  C   UNL     1       0.056   0.608   0.196  0.00  0.00    +0.044 C 
ATOM     20  C   UNL     1       0.401  -0.807   0.582  0.00  0.00    -0.040 A 
ATOM     21  C   UNL     1       0.532  -1.776  -0.391  0.00  0.00    +0.006 A 
ATOM     22  C   UNL     1       0.849  -3.076  -0.039  0.00  0.00    +0.033 A 
ATOM     23  C   UNL     1       1.038  -3.414   1.290  0.00  0.00    +0.127 A 
ATOM     24  C   UNL     1       0.911  -2.455   2.273  0.00  0.00    +0.044 A 
ATOM     25  C   UNL     1       0.596  -1.139   1.925  0.00  0.00    +0.022 A 
BRANCH  23  26
ATOM     26  N   UNL     1       1.376  -4.807   1.657  0.00  0.00    +0.056 N 
ATOM     27  O   UNL     1       1.488  -5.649   0.796  0.00  0.00    -0.126 OA
ATOM     28  O   UNL     1       1.542  -5.104   2.817  0.00  0.00    -0.126 OA
ENDBRANCH  23  26
ENDBRANCH  14  25
ENDBRANCH   1  17
BRANCH  11  29
ATOM     29  C   UNL     1       6.848   2.344  -0.176  0.00  0.00    +0.099 C 
BRANCH  29  30
ATOM     30  C   UNL     1       6.147   1.202  -0.865  0.00  0.00    -0.041 A 
ATOM     31  C   UNL     1       6.218  -0.073  -0.335  0.00  0.00    +0.004 A 
ATOM     32  C   UNL     1       5.574  -1.121  -0.967  0.00  0.00    +0.000 A 
ATOM     33  C   UNL     1       4.859  -0.893  -2.128  0.00  0.00    +0.000 A 
ATOM     34  C   UNL     1       4.788   0.382  -2.658  0.00  0.00    +0.000 A 
ATOM     35  C   UNL     1       5.428   1.430  -2.024  0.00  0.00    +0.004 A 
ENDBRANCH  29  30
ENDBRANCH  11  29
TORSDOF 5
