REMARK  Name = ZINC63195869
REMARK  9 active torsions:
REMARK  status: ('A' for Active; 'I' for Inactive)
REMARK    1  A    between atoms: C_1  and  C_2
REMARK    2  A    between atoms: C_2  and  C_4
REMARK    3  A    between atoms: C_2  and  N_21
REMARK    4  A    between atoms: N_10  and  C_11
REMARK    5  A    between atoms: C_11  and  C_12
REMARK    6  A    between atoms: C_15  and  C_17
REMARK    7  A    between atoms: C_17  and  C_18
REMARK    8  A    between atoms: C_17  and  C_19
REMARK    9  A    between atoms: C_17  and  C_20
REMARK                            x       y       z     vdW  Elec       q    Type
REMARK                         _______ _______ _______ _____ _____    ______ ____
ROOT
ATOM      1  C   UNL     1      -1.306  -0.633  -0.102  0.00  0.00    -0.083 C 
ATOM      2  C   UNL     1      -1.183  -2.157  -0.051  0.00  0.00    -0.017 C 
ATOM      3  C   UNL     1      -2.583  -2.776  -0.004  0.00  0.00    -0.003 C 
ATOM      4  C   UNL     1      -3.382  -2.299  -1.221  0.00  0.00    -0.019 C 
ATOM      5  C   UNL     1      -3.424  -0.769  -1.229  0.00  0.00    -0.078 C 
ATOM      6  N   UNL     1      -2.057  -0.240  -1.301  0.00  0.00    +0.386 N 
ATOM      7  H   UNL     1      -1.597  -0.608  -2.120  0.00  0.00    -0.081 HD
ENDROOT
BRANCH   1   9
ATOM      8  C   UNL     1       0.864  -0.398   1.114  0.00  0.00    -0.016 C 
ATOM      9  C   UNL     1       0.090  -0.010  -0.148  0.00  0.00    -0.092 C 
BRANCH   9  10
ATOM     10  N   UNL     1       0.807  -0.502  -1.332  0.00  0.00    +0.379 N 
ATOM     11  H   UNL     1       0.888  -1.506  -1.283  0.00  0.00    -0.090 HD
ATOM     12  H   UNL     1       0.297  -0.246  -2.164  0.00  0.00    -0.090 HD
ATOM     13  H   UNL     1       1.728  -0.091  -1.363  0.00  0.00    -0.090 HD
ENDBRANCH   9  10
ENDBRANCH   1   9
BRANCH   6  14
ATOM     14  C   UNL     1      -2.105   1.226  -1.387  0.00  0.00    +0.021 C 
BRANCH  14  15
ATOM     15  C   UNL     1      -2.788   1.631  -2.669  0.00  0.00    +0.201 A 
ATOM     16  N   UNL     1      -4.063   1.842  -2.830  0.00  0.00    -0.114 NA
ATOM     17  N   UNL     1      -4.290   2.172  -4.052  0.00  0.00    -0.112 NA
ATOM     18  C   UNL     1      -3.168   2.183  -4.713  0.00  0.00    +0.222 A 
ATOM     19  O   UNL     1      -2.191   1.846  -3.853  0.00  0.00    -0.426 OA
BRANCH  18  20
ATOM     20  C   UNL     1      -2.995   2.518  -6.172  0.00  0.00    +0.040 C 
ATOM     21  C   UNL     1      -3.484   3.944  -6.430  0.00  0.00    +0.020 C 
ATOM     22  C   UNL     1      -1.516   2.410  -6.548  0.00  0.00    +0.020 C 
ATOM     23  C   UNL     1      -3.809   1.538  -7.020  0.00  0.00    +0.020 C 
ENDBRANCH  18  20
ENDBRANCH  14  15
ENDBRANCH   6  14
TORSDOF 5
