REMARK  Name = ZINC39632019
REMARK  15 active torsions:
REMARK  status: ('A' for Active; 'I' for Inactive)
REMARK    1  A    between atoms: C_1  and  C_2
REMARK    2  A    between atoms: C_2  and  C_3
REMARK    3  A    between atoms: C_3  and  C_5
REMARK    4  A    between atoms: C_3  and  C_6
REMARK    5  A    between atoms: C_6  and  C_7
REMARK    6  A    between atoms: C_11  and  C_20
REMARK    7  A    between atoms: N_22  and  C_23
REMARK    8  A    between atoms: C_23  and  C_25
REMARK    9  A    between atoms: C_23  and  C_26
REMARK   10  A    between atoms: C_26  and  C_27
REMARK   11  A    between atoms: C_27  and  C_28
REMARK   12  A    between atoms: C_28  and  C_29
REMARK   13  A    between atoms: C_29  and  C_30
REMARK   14  A    between atoms: C_29  and  C_31
REMARK   15  A    between atoms: C_29  and  O_32
REMARK                            x       y       z     vdW  Elec       q    Type
REMARK                         _______ _______ _______ _____ _____    ______ ____
ROOT
ATOM      1  C   UNL     1      -2.942  -2.588   0.247  0.00  0.00    +0.216 C 
ATOM      2  O   UNL     1      -3.883  -1.824   0.290  0.00  0.00    -0.276 OA
ATOM      3  N   UNL     1      -3.143  -3.913   0.389  0.00  0.00    -0.300 N 
ATOM      4  C   UNL     1      -2.127  -4.992   0.372  0.00  0.00    +0.121 C 
ATOM      5  C   UNL     1      -2.586  -5.978   1.470  0.00  0.00    +0.100 C 
ATOM      6  C   UNL     1      -4.097  -5.730   1.613  0.00  0.00    -0.004 C 
ATOM      7  C   UNL     1      -4.428  -4.619   0.606  0.00  0.00    +0.115 C 
ATOM      8  C   UNL     1      -4.425  -5.264   3.029  0.00  0.00    -0.010 C 
ATOM      9  C   UNL     1      -5.939  -5.079   3.163  0.00  0.00    -0.082 C 
ATOM     10  N   UNL     1      -6.616  -6.350   2.875  0.00  0.00    +0.379 N 
ATOM     11  C   UNL     1      -6.371  -6.744   1.482  0.00  0.00    -0.082 C 
ATOM     12  C   UNL     1      -4.875  -6.998   1.277  0.00  0.00    -0.010 C 
ATOM     13  H   UNL     1      -6.262  -7.065   3.493  0.00  0.00    -0.086 HD
ATOM     14  H   UNL     1      -7.608  -6.241   3.023  0.00  0.00    -0.086 HD
ENDROOT
BRANCH   5  15
ATOM     15  C   UNL     1      -2.323  -7.399   1.043  0.00  0.00    +0.218 C 
ATOM     16  O   UNL     1      -2.379  -7.699  -0.131  0.00  0.00    -0.275 OA
ATOM     17  N   UNL     1      -2.026  -8.335   1.965  0.00  0.00    -0.312 N 
ATOM     18  H   UNL     1      -1.982  -8.095   2.904  0.00  0.00    +0.149 HD
BRANCH  17  19
ATOM     19  C   UNL     1      -1.770  -9.717   1.550  0.00  0.00    +0.070 C 
ATOM     20  C   UNL     1      -0.303  -9.864   1.141  0.00  0.00    +0.028 C 
BRANCH  19  21
ATOM     21  C   UNL     1      -2.073 -10.664   2.713  0.00  0.00    +0.022 C 
BRANCH  21  22
ATOM     22  C   UNL     1      -3.567 -10.609   3.040  0.00  0.00    +0.005 C 
BRANCH  22  23
ATOM     23  C   UNL     1      -3.870 -11.555   4.203  0.00  0.00    +0.034 C 
BRANCH  23  24
ATOM     24  C   UNL     1      -5.364 -11.501   4.529  0.00  0.00    +0.061 C 
ATOM     25  C   UNL     1      -5.646 -12.350   5.770  0.00  0.00    +0.041 C 
ATOM     26  C   UNL     1      -5.774 -10.052   4.799  0.00  0.00    +0.041 C 
BRANCH  24  27
ATOM     27  O   UNL     1      -6.112 -12.009   3.424  0.00  0.00    -0.389 OA
ATOM     28  H   UNL     1      -5.903 -12.926   3.196  0.00  0.00    +0.210 HD
ENDBRANCH  24  27
ENDBRANCH  23  24
ENDBRANCH  22  23
ENDBRANCH  21  22
ENDBRANCH  19  21
ENDBRANCH  17  19
ENDBRANCH   5  15
BRANCH   1  29
ATOM     29  C   UNL     1      -1.549  -2.055   0.034  0.00  0.00    +0.099 C 
BRANCH  29  30
ATOM     30  C   UNL     1      -1.600  -0.531  -0.097  0.00  0.00    -0.006 C 
ATOM     31  C   UNL     1      -2.375  -0.153  -1.360  0.00  0.00    +0.008 C 
BRANCH  30  33
ATOM     32  C   UNL     1      -0.221   1.550  -0.193  0.00  0.00    +0.004 C 
ATOM     33  C   UNL     1      -0.176   0.020  -0.189  0.00  0.00    +0.000 C 
ENDBRANCH  30  33
ENDBRANCH  29  30
ENDBRANCH   1  29
TORSDOF 10
