REMARK  Name = ZINC36560525
REMARK  18 active torsions:
REMARK  status: ('A' for Active; 'I' for Inactive)
REMARK    1  A    between atoms: C_1  and  C_2
REMARK    2  A    between atoms: C_2  and  C_3
REMARK    3  A    between atoms: C_3  and  N_4
REMARK    4  A    between atoms: N_4  and  C_5
REMARK    5  A    between atoms: C_5  and  C_7
REMARK    6  A    between atoms: C_5  and  C_16
REMARK    7  A    between atoms: C_8  and  O_15
REMARK    8  A    between atoms: C_10  and  O_14
REMARK    9  A    between atoms: C_12  and  O_13
REMARK   10  A    between atoms: N_18  and  C_19
REMARK   11  A    between atoms: C_19  and  C_20
REMARK   12  A    between atoms: C_19  and  C_21
REMARK   13  A    between atoms: C_19  and  C_22
REMARK   14  A    between atoms: C_22  and  C_23
REMARK   15  A    between atoms: C_23  and  C_24
REMARK   16  A    between atoms: C_23  and  C_25
REMARK   17  A    between atoms: C_23  and  C_26
REMARK   18  A    between atoms: C_27  and  C_29
REMARK                            x       y       z     vdW  Elec       q    Type
REMARK                         _______ _______ _______ _____ _____    ______ ____
ROOT
ATOM      1  C   UNL     1      -2.786  -3.447   1.423  0.00  0.00    +0.199 C 
ENDROOT
BRANCH   1   2
ATOM      2  C   UNL     1      -1.578  -3.847   2.230  0.00  0.00    +0.065 A 
ATOM      3  C   UNL     1      -0.572  -2.925   2.475  0.00  0.00    +0.129 A 
ATOM      4  C   UNL     1       0.540  -3.294   3.217  0.00  0.00    +0.091 A 
ATOM      5  C   UNL     1       0.645  -4.584   3.715  0.00  0.00    +0.124 A 
ATOM      6  C   UNL     1      -0.362  -5.505   3.471  0.00  0.00    +0.091 A 
ATOM      7  C   UNL     1      -1.476  -5.136   2.732  0.00  0.00    +0.129 A 
BRANCH   7   8
ATOM      8  O   UNL     1      -2.465  -6.038   2.497  0.00  0.00    -0.506 OA
ATOM      9  H   UNL     1      -2.341  -6.554   1.689  0.00  0.00    +0.292 HD
ENDBRANCH   7   8
BRANCH   5  10
ATOM     10  O   UNL     1       1.735  -4.945   4.442  0.00  0.00    -0.507 OA
ATOM     11  H   UNL     1       1.641  -4.797   5.393  0.00  0.00    +0.292 HD
ENDBRANCH   5  10
BRANCH   3  12
ATOM     12  O   UNL     1      -0.675  -1.661   1.987  0.00  0.00    -0.506 OA
ATOM     13  H   UNL     1      -1.045  -1.026   2.615  0.00  0.00    +0.292 HD
ENDBRANCH   3  12
ENDBRANCH   1   2
BRANCH   1  14
ATOM     14  C   UNL     1      -3.441  -2.248   2.060  0.00  0.00    +0.239 C 
ATOM     15  O   UNL     1      -3.551  -1.214   1.435  0.00  0.00    -0.273 OA
ATOM     16  N   UNL     1      -3.904  -2.325   3.323  0.00  0.00    -0.308 N 
ATOM     17  H   UNL     1      -3.816  -3.151   3.823  0.00  0.00    +0.149 HD
BRANCH  16  18
ATOM     18  C   UNL     1      -4.540  -1.159   3.942  0.00  0.00    +0.030 C 
ATOM     19  C   UNL     1      -3.500  -0.055   4.138  0.00  0.00    +0.031 C 
ATOM     20  C   UNL     1      -5.661  -0.648   3.035  0.00  0.00    +0.031 C 
BRANCH  18  21
ATOM     21  C   UNL     1      -5.124  -1.557   5.299  0.00  0.00    +0.031 C 
BRANCH  21  22
ATOM     22  C   UNL     1      -5.867  -2.888   5.164  0.00  0.00    -0.036 C 
ATOM     23  C   UNL     1      -4.871  -4.043   5.291  0.00  0.00    +0.010 C 
ATOM     24  C   UNL     1      -6.920  -2.999   6.269  0.00  0.00    +0.010 C 
ATOM     25  C   UNL     1      -6.552  -2.953   3.798  0.00  0.00    +0.010 C 
ENDBRANCH  21  22
ENDBRANCH  18  21
ENDBRANCH  16  18
ENDBRANCH   1  14
BRANCH   1  26
ATOM     26  N   UNL     1      -2.373  -3.111   0.059  0.00  0.00    -0.285 N 
ATOM     27  C   UNL     1      -3.232  -2.487  -0.772  0.00  0.00    +0.220 C 
ATOM     28  O   UNL     1      -4.378  -2.294  -0.425  0.00  0.00    -0.275 OA
BRANCH  27  29
ATOM     29  C   UNL     1      -2.769  -2.030  -2.131  0.00  0.00    +0.075 C 
ATOM     30  C   UNL     1      -2.216  -0.607  -2.029  0.00  0.00    +0.013 C 
ATOM     31  C   UNL     1      -1.746  -0.143  -3.409  0.00  0.00    +0.001 C 
ATOM     32  C   UNL     1      -2.926  -0.163  -4.384  0.00  0.00    +0.000 C 
ATOM     33  C   UNL     1      -3.478  -1.586  -4.485  0.00  0.00    +0.001 C 
ATOM     34  C   UNL     1      -3.949  -2.050  -3.105  0.00  0.00    +0.013 C 
ENDBRANCH  27  29
BRANCH  26  35
ATOM     35  C   UNL     1      -1.025  -3.452  -0.404  0.00  0.00    +0.108 C 
BRANCH  35  37
ATOM     36  C   UNL     1       0.292  -5.036  -1.817  0.00  0.00    +0.005 C 
ATOM     37  C   UNL     1      -1.068  -4.777  -1.167  0.00  0.00    +0.016 C 
ENDBRANCH  35  37
ENDBRANCH  26  35
ENDBRANCH   1  26
TORSDOF 12
