REMARK  Name = ZINC36029904
REMARK  13 active torsions:
REMARK  status: ('A' for Active; 'I' for Inactive)
REMARK    1  A    between atoms: C_1  and  C_2
REMARK    2  A    between atoms: C_2  and  C_3
REMARK    3  A    between atoms: C_2  and  C_4
REMARK    4  A    between atoms: C_4  and  C_5
REMARK    5  A    between atoms: N_9  and  C_27
REMARK    6  A    between atoms: N_14  and  S_17
REMARK    7  A    between atoms: S_17  and  C_20
REMARK    8  A    between atoms: C_27  and  C_28
REMARK    9  A    between atoms: C_28  and  C_29
REMARK   10  A    between atoms: C_32  and  O_37
REMARK   11  A    between atoms: C_33  and  O_35
REMARK   12  A    between atoms: O_35  and  C_36
REMARK   13  A    between atoms: O_37  and  C_38
REMARK                            x       y       z     vdW  Elec       q    Type
REMARK                         _______ _______ _______ _____ _____    ______ ____
ROOT
ATOM      1  C   UNL     1      -1.135  -1.954  -0.147  0.00  0.00    +0.019 C 
ATOM      2  C   UNL     1      -2.472  -2.608  -0.427  0.00  0.00    +0.200 C 
ATOM      3  O   UNL     1      -3.091  -2.537  -1.467  0.00  0.00    -0.277 OA
ATOM      4  N   UNL     1      -2.858  -3.283   0.676  0.00  0.00    -0.313 N 
ATOM      5  C   UNL     1      -1.847  -3.124   1.725  0.00  0.00    +0.006 C 
ATOM      6  N   UNL     1      -0.614  -2.654   1.053  0.00  0.00    +0.401 N 
ATOM      7  C   UNL     1      -1.581  -4.464   2.410  0.00  0.00    +0.023 C 
ATOM      8  C   UNL     1      -2.871  -4.962   3.070  0.00  0.00    +0.109 C 
ATOM      9  N   UNL     1      -3.383  -3.910   3.959  0.00  0.00    -0.177 NA
ATOM     10  C   UNL     1      -3.601  -2.564   3.411  0.00  0.00    +0.109 C 
ATOM     11  C   UNL     1      -2.305  -2.087   2.748  0.00  0.00    +0.023 C 
ATOM     12  H   UNL     1      -0.033  -3.434   0.786  0.00  0.00    -0.082 HD
ATOM     13  H   UNL     1      -0.105  -2.014   1.645  0.00  0.00    -0.082 HD
ENDROOT
BRANCH   9  14
ATOM     14  S   UNL     1      -3.709  -4.235   5.550  0.00  0.00    +0.061 S 
ATOM     15  O   UNL     1      -4.665  -3.272   5.974  0.00  0.00    -0.153 OA
ATOM     16  O   UNL     1      -3.946  -5.633   5.638  0.00  0.00    -0.153 OA
BRANCH  14  17
ATOM     17  C   UNL     1      -2.235  -3.916   6.460  0.00  0.00    +0.106 A 
ATOM     18  C   UNL     1      -1.308  -4.924   6.650  0.00  0.00    +0.031 A 
ATOM     19  C   UNL     1      -0.151  -4.675   7.363  0.00  0.00    +0.040 A 
ATOM     20  C   UNL     1       0.081  -3.414   7.887  0.00  0.00    +0.124 A 
ATOM     21  C   UNL     1      -0.848  -2.405   7.696  0.00  0.00    +0.040 A 
ATOM     22  C   UNL     1      -2.002  -2.655   6.978  0.00  0.00    +0.031 A 
ATOM     23  F   UNL     1       1.211  -3.170   8.585  0.00  0.00    -0.205 F 
ENDBRANCH  14  17
ENDBRANCH   9  14
BRANCH   1  24
ATOM     24  C   UNL     1      -1.322  -0.464   0.144  0.00  0.00    -0.004 C 
BRANCH  24  26
ATOM     25  C   UNL     1      -2.038   1.723  -0.829  0.00  0.00    +0.007 C 
ATOM     26  C   UNL     1      -1.707   0.263  -1.146  0.00  0.00    -0.018 C 
ATOM     27  C   UNL     1      -0.537   0.208  -2.131  0.00  0.00    +0.007 C 
ENDBRANCH  24  26
ENDBRANCH   1  24
BRANCH   4  28
ATOM     28  C   UNL     1      -4.096  -4.054   0.805  0.00  0.00    +0.110 C 
BRANCH  28  29
ATOM     29  C   UNL     1      -3.861  -5.482   0.309  0.00  0.00    +0.054 C 
BRANCH  29  30
ATOM     30  C   UNL     1      -5.153  -6.255   0.373  0.00  0.00    -0.042 A 
ATOM     31  C   UNL     1      -5.486  -6.949   1.521  0.00  0.00    +0.007 A 
ATOM     32  C   UNL     1      -6.670  -7.660   1.585  0.00  0.00    +0.049 A 
ATOM     33  C   UNL     1      -7.527  -7.678   0.496  0.00  0.00    +0.161 A 
ATOM     34  C   UNL     1      -7.192  -6.979  -0.660  0.00  0.00    +0.162 A 
ATOM     35  C   UNL     1      -6.006  -6.264  -0.715  0.00  0.00    +0.053 A 
BRANCH  34  36
ATOM     36  O   UNL     1      -8.030  -6.993  -1.731  0.00  0.00    -0.491 OA
ATOM     37  C   UNL     1      -7.622  -6.253  -2.883  0.00  0.00    +0.277 C 
ENDBRANCH  34  36
BRANCH  33  38
ATOM     38  O   UNL     1      -8.692  -8.377   0.557  0.00  0.00    -0.491 OA
ATOM     39  C   UNL     1      -8.969  -9.070   1.775  0.00  0.00    +0.277 C 
ENDBRANCH  33  38
ENDBRANCH  29  30
ENDBRANCH  28  29
ENDBRANCH   4  28
TORSDOF 9
