REMARK  Name = ZINC62870606
REMARK  5 active torsions:
REMARK  status: ('A' for Active; 'I' for Inactive)
REMARK    1  A    between atoms: C_1  and  C_2
REMARK    2  A    between atoms: C_2  and  C_3
REMARK    3  A    between atoms: C_3  and  C_18
REMARK    4  A    between atoms: C_9  and  C_11
REMARK    5  A    between atoms: C_12  and  C_17
REMARK                            x       y       z     vdW  Elec       q    Type
REMARK                         _______ _______ _______ _____ _____    ______ ____
ROOT
ATOM      1  C   UNL     1       0.174   0.486   0.279  0.00  0.00    +0.087 C 
ATOM      2  C   UNL     1      -0.440  -0.759  -0.364  0.00  0.00    +0.021 C 
ATOM      3  C   UNL     1       0.371  -1.149  -1.602  0.00  0.00    +0.020 C 
ATOM      4  C   UNL     1       1.807  -1.480  -1.183  0.00  0.00    +0.108 C 
ATOM      5  N   UNL     1       2.356  -0.340  -0.437  0.00  0.00    -0.296 N 
ATOM      6  C   UNL     1       1.608   0.174   0.719  0.00  0.00    +0.126 C 
ATOM      7  C   UNL     1       3.524   0.223  -0.804  0.00  0.00    +0.255 C 
ATOM      8  O   UNL     1       3.917   1.230  -0.244  0.00  0.00    -0.269 OA
ENDROOT
BRANCH   7   9
ATOM      9  C   UNL     1       4.319  -0.375  -1.876  0.00  0.00    +0.098 A 
ATOM     10  C   UNL     1       5.123   0.233  -2.829  0.00  0.00    +0.060 A 
ATOM     11  N   UNL     1       5.725  -0.562  -3.676  0.00  0.00    -0.230 NA
ATOM     12  C   UNL     1       5.570  -1.874  -3.621  0.00  0.00    +0.156 A 
ATOM     13  S   UNL     1       4.530  -2.093  -2.316  0.00  0.00    -0.048 S 
ATOM     14  N   UNL     1       6.130  -2.834  -4.436  0.00  0.00    -0.337 N 
ATOM     15  C   UNL     1       5.295   1.730  -2.885  0.00  0.00    +0.067 C 
ATOM     16  H   UNL     1       6.723  -2.572  -5.158  0.00  0.00    +0.144 HD
ATOM     17  H   UNL     1       5.932  -3.772  -4.287  0.00  0.00    +0.144 HD
ENDBRANCH   7   9
BRANCH   1  18
ATOM     18  C   UNL     1      -0.644   0.889   1.479  0.00  0.00    +0.364 C 
ATOM     19  O   UNL     1      -1.166   1.990   1.518  0.00  0.00    -0.246 OA
ATOM     20  O   UNL     1      -0.783   0.114   2.410  0.00  0.00    -0.246 OA
ENDBRANCH   1  18
BRANCH   1  22
ATOM     21  C   UNL     1       0.807   2.874  -0.094  0.00  0.00    +0.005 C 
ATOM     22  C   UNL     1       0.189   1.631  -0.737  0.00  0.00    +0.016 C 
ENDBRANCH   1  22
TORSDOF 3
