REMARK  Name = ZINC20412835
REMARK  7 active torsions:
REMARK  status: ('A' for Active; 'I' for Inactive)
REMARK    1  A    between atoms: C_1  and  C_2
REMARK    2  A    between atoms: C_10  and  C_14
REMARK    3  A    between atoms: C_18  and  C_20
REMARK    4  A    between atoms: C_20  and  N_21
REMARK    5  A    between atoms: N_24  and  C_27
REMARK    6  A    between atoms: C_27  and  C_28
REMARK    7  A    between atoms: C_27  and  C_35
REMARK                            x       y       z     vdW  Elec       q    Type
REMARK                         _______ _______ _______ _____ _____    ______ ____
ROOT
ATOM      1  N   UNL     1      -4.482   3.690   5.757  0.00  0.00    +0.382 N 
ATOM      2  C   UNL     1      -5.052   2.686   6.667  0.00  0.00    -0.063 C 
ATOM      3  C   UNL     1      -5.435   3.358   7.987  0.00  0.00    +0.067 C 
ATOM      4  N   UNL     1      -6.400   4.435   7.725  0.00  0.00    -0.295 NA
ATOM      5  C   UNL     1      -5.829   5.439   6.815  0.00  0.00    +0.067 C 
ATOM      6  C   UNL     1      -5.447   4.767   5.494  0.00  0.00    -0.063 C 
ATOM      7  H   UNL     1      -3.603   4.133   6.248  0.00  0.00    -0.082 HD
ENDROOT
BRANCH   1   8
ATOM      8  C   UNL     1      -4.032   3.069   4.504  0.00  0.00    -0.064 C 
BRANCH   8  24
ATOM      9  C   UNL     1      -4.185   1.539  -0.009  0.00  0.00    +0.039 C 
ATOM     10  C   UNL     1      -2.679   1.585  -0.005  0.00  0.00    -0.073 C 
ATOM     11  C   UNL     1      -2.070   1.900   1.100  0.00  0.00    -0.064 C 
ATOM     12  C   UNL     1      -2.902   2.214   2.325  0.00  0.00    +0.039 C 
ATOM     13  C   UNL     1      -2.456   1.346   3.506  0.00  0.00    +0.046 C 
ATOM     14  C   UNL     1      -0.924   1.372   3.662  0.00  0.00    +0.181 C 
ATOM     15  C   UNL     1      -0.166   1.059   2.400  0.00  0.00    +0.056 C 
ATOM     16  C   UNL     1      -0.577   1.979   1.246  0.00  0.00    -0.007 C 
ATOM     17  C   UNL     1       0.167   1.577  -0.016  0.00  0.00    +0.011 C 
ATOM     18  C   UNL     1      -0.602   2.002  -1.265  0.00  0.00    +0.005 C 
ATOM     19  C   UNL     1      -1.946   1.265  -1.277  0.00  0.00    +0.030 C 
ATOM     20  C   UNL     1      -0.190   3.413   1.614  0.00  0.00    +0.016 C 
ATOM     21  O   UNL     1      -0.658   2.693   4.208  0.00  0.00    -0.461 OA
ATOM     22  C   UNL     1      -1.613   2.933   5.136  0.00  0.00    +0.309 C 
ATOM     23  O   UNL     1      -1.494   3.667   6.089  0.00  0.00    -0.251 OA
ATOM     24  C   UNL     1      -2.856   2.134   4.792  0.00  0.00    +0.088 C 
ENDBRANCH   8  24
ENDBRANCH   1   8
BRANCH   4  25
ATOM     25  C   UNL     1      -6.850   5.056   8.978  0.00  0.00    +0.117 C 
BRANCH  25  26
ATOM     26  C   UNL     1      -7.878   6.115   8.673  0.00  0.00    -0.026 A 
ATOM     27  C   UNL     1      -8.883   5.859   7.758  0.00  0.00    +0.008 A 
ATOM     28  C   UNL     1      -9.829   6.827   7.482  0.00  0.00    +0.038 A 
ATOM     29  C   UNL     1      -9.764   8.058   8.113  0.00  0.00    +0.123 A 
ATOM     30  C   UNL     1      -8.754   8.315   9.024  0.00  0.00    +0.038 A 
ATOM     31  C   UNL     1      -7.812   7.343   9.303  0.00  0.00    +0.008 A 
ATOM     32  F   UNL     1     -10.685   9.008   7.838  0.00  0.00    -0.205 F 
ENDBRANCH  25  26
BRANCH  25  33
ATOM     33  C   UNL     1      -7.461   4.004   9.868  0.00  0.00    -0.026 A 
ATOM     34  C   UNL     1      -8.357   3.091   9.344  0.00  0.00    +0.008 A 
ATOM     35  C   UNL     1      -8.914   2.123  10.158  0.00  0.00    +0.038 A 
ATOM     36  C   UNL     1      -8.583   2.075  11.501  0.00  0.00    +0.123 A 
ATOM     37  C   UNL     1      -7.689   2.993  12.026  0.00  0.00    +0.038 A 
ATOM     38  C   UNL     1      -7.129   3.957  11.209  0.00  0.00    +0.008 A 
ATOM     39  F   UNL     1      -9.131   1.133  12.300  0.00  0.00    -0.205 F 
ENDBRANCH  25  33
ENDBRANCH   4  25
TORSDOF 5
