REMARK  Name = ZINC64055395
REMARK  6 active torsions:
REMARK  status: ('A' for Active; 'I' for Inactive)
REMARK    1  A    between atoms: C_1  and  C_2
REMARK    2  A    between atoms: C_7  and  C_10
REMARK    3  A    between atoms: C_11  and  C_13
REMARK    4  A    between atoms: C_13  and  S_14
REMARK    5  A    between atoms: S_14  and  C_15
REMARK    6  A    between atoms: C_19  and  C_21
REMARK                            x       y       z     vdW  Elec       q    Type
REMARK                         _______ _______ _______ _____ _____    ______ ____
ROOT
ATOM      1  C   UNL     1      -2.837  -6.901  -1.298  0.00  0.00    +0.339 C 
ATOM      2  N   UNL     1      -3.283  -7.178   0.079  0.00  0.00    -0.219 N 
ATOM      3  N   UNL     1      -2.155  -7.679   0.745  0.00  0.00    -0.145 NA
ATOM      4  C   UNL     1      -1.134  -7.723  -0.070  0.00  0.00    +0.238 C 
ATOM      5  O   UNL     1      -1.453  -7.277  -1.312  0.00  0.00    -0.443 OA
ATOM      6  H   UNL     1      -4.170  -7.042   0.447  0.00  0.00    +0.173 HD
ENDROOT
BRANCH   4   7
ATOM      7  C   UNL     1       0.141  -8.177   0.296  0.00  0.00    +0.043 C 
ATOM      8  C   UNL     1       0.540  -8.655   1.544  0.00  0.00    +0.008 A 
ATOM      9  C   UNL     1      -0.148  -8.828   2.764  0.00  0.00    +0.010 A 
ATOM     10  C   UNL     1       0.508  -9.325   3.844  0.00  0.00    +0.001 A 
ATOM     11  C   UNL     1       1.859  -9.675   3.781  0.00  0.00    +0.002 A 
ATOM     12  C   UNL     1       2.582  -9.536   2.642  0.00  0.00    +0.026 A 
ATOM     13  C   UNL     1       1.964  -9.022   1.473  0.00  0.00    +0.043 A 
ATOM     14  N   UNL     1       2.439  -8.794   0.264  0.00  0.00    -0.380 N 
ATOM     15  C   UNL     1       1.369  -8.259  -0.583  0.00  0.00    +0.154 C 
ATOM     16  H   UNL     1       3.352  -8.959  -0.021  0.00  0.00    +0.160 HD
ENDBRANCH   4   7
BRANCH   1  17
ATOM     17  S   UNL     1      -3.018  -5.137  -1.679  0.00  0.00    -0.087 S 
BRANCH  17  18
ATOM     18  C   UNL     1      -2.006  -4.310  -0.421  0.00  0.00    +0.170 C 
BRANCH  18  27
ATOM     19  C   UNL     1      -0.019   1.526   0.010  0.00  0.00    +0.039 C 
ATOM     20  C   UNL     1       0.002  -0.004   0.002  0.00  0.00    +0.133 C 
ATOM     21  C   UNL     1      -1.436  -0.536   0.015  0.00  0.00    +0.139 C 
ATOM     22  N   UNL     1      -1.389  -1.995   0.196  0.00  0.00    -0.296 N 
ATOM     23  C   UNL     1      -0.578  -2.530   1.302  0.00  0.00    +0.139 C 
ATOM     24  C   UNL     1       0.818  -1.901   1.226  0.00  0.00    +0.133 C 
ATOM     25  O   UNL     1       0.691  -0.479   1.161  0.00  0.00    -0.371 OA
ATOM     26  C   UNL     1       1.539  -2.407  -0.025  0.00  0.00    +0.039 C 
ATOM     27  C   UNL     1      -2.069  -2.818  -0.627  0.00  0.00    +0.226 C 
ATOM     28  O   UNL     1      -2.732  -2.358  -1.532  0.00  0.00    -0.275 OA
ENDBRANCH  18  27
ENDBRANCH  17  18
ENDBRANCH   1  17
TORSDOF 4
