REMARK  Name = ZINC08750365
REMARK  7 active torsions:
REMARK  status: ('A' for Active; 'I' for Inactive)
REMARK    1  A    between atoms: C_5  and  C_7
REMARK    2  A    between atoms: C_10  and  S_19
REMARK    3  A    between atoms: N_11  and  C_12
REMARK    4  A    between atoms: S_19  and  C_20
REMARK    5  A    between atoms: C_20  and  C_21
REMARK    6  A    between atoms: N_23  and  C_24
REMARK    7  A    between atoms: C_25  and  C_29
REMARK                            x       y       z     vdW  Elec       q    Type
REMARK                         _______ _______ _______ _____ _____    ______ ____
ROOT
ATOM      1  C   UNL     1      -3.206   0.975  -1.071  0.00  0.00    +0.171 A 
ATOM      2  N   UNL     1      -4.309   0.437  -0.602  0.00  0.00    -0.128 NA
ATOM      3  N   UNL     1      -4.220   0.291   0.671  0.00  0.00    -0.122 NA
ATOM      4  C   UNL     1      -3.053   0.722   1.096  0.00  0.00    +0.197 A 
ATOM      5  N   UNL     1      -2.368   1.178   0.004  0.00  0.00    -0.267 N 
ENDROOT
BRANCH   1  10
ATOM      6  C   UNL     1      -2.133   2.849  -4.143  0.00  0.00    +0.001 A 
ATOM      7  C   UNL     1      -2.378   1.911  -5.131  0.00  0.00    +0.001 A 
ATOM      8  C   UNL     1      -2.893   0.670  -4.802  0.00  0.00    +0.021 A 
ATOM      9  C   UNL     1      -3.159   0.357  -3.484  0.00  0.00    +0.052 A 
ATOM     10  C   UNL     1      -2.918   1.301  -2.483  0.00  0.00    +0.038 A 
ATOM     11  C   UNL     1      -2.400   2.551  -2.823  0.00  0.00    +0.013 A 
ATOM     12 CL   UNL     1      -3.798  -1.204  -3.072  0.00  0.00    -0.083 Cl
ENDBRANCH   1  10
BRANCH   5  13
ATOM     13  C   UNL     1      -1.079   1.731  -0.019  0.00  0.00    +0.086 A 
ATOM     14  C   UNL     1      -0.897   3.083   0.240  0.00  0.00    +0.029 A 
ATOM     15  C   UNL     1       0.372   3.626   0.212  0.00  0.00    +0.002 A 
ATOM     16  C   UNL     1       1.464   2.824  -0.068  0.00  0.00    +0.003 A 
ATOM     17  C   UNL     1       1.289   1.476  -0.321  0.00  0.00    +0.040 A 
ATOM     18  C   UNL     1       0.020   0.926  -0.294  0.00  0.00    +0.147 A 
ATOM     19  F   UNL     1      -0.152  -0.391  -0.541  0.00  0.00    -0.203 F 
ENDBRANCH   5  13
BRANCH   4  20
ATOM     20  S   UNL     1      -2.481   0.717   2.763  0.00  0.00    -0.076 S 
BRANCH  20  21
ATOM     21  C   UNL     1      -3.915  -0.018   3.586  0.00  0.00    +0.173 C 
BRANCH  21  22
ATOM     22  C   UNL     1      -3.646  -0.124   5.065  0.00  0.00    +0.228 C 
ATOM     23  O   UNL     1      -2.588   0.259   5.518  0.00  0.00    -0.275 OA
ATOM     24  N   UNL     1      -4.580  -0.646   5.884  0.00  0.00    -0.279 N 
ATOM     25  H   UNL     1      -5.426  -0.953   5.522  0.00  0.00    +0.155 HD
BRANCH  24  26
ATOM     26  C   UNL     1      -4.333  -0.744   7.245  0.00  0.00    +0.084 A 
ATOM     27  C   UNL     1      -5.165  -1.242   8.240  0.00  0.00    +0.065 A 
ATOM     28  C   UNL     1      -4.646  -1.228   9.587  0.00  0.00    +0.022 A 
ATOM     29  C   UNL     1      -3.411  -0.726   9.764  0.00  0.00    +0.048 A 
ATOM     30  S   UNL     1      -2.914  -0.268   8.117  0.00  0.00    -0.081 S 
BRANCH  27  31
ATOM     31  C   UNL     1      -6.503  -1.760   7.937  0.00  0.00    +0.244 C 
ATOM     32  O   UNL     1      -6.909  -1.760   6.789  0.00  0.00    -0.270 OA
ATOM     33  N   UNL     1      -7.282  -2.235   8.928  0.00  0.00    -0.325 N 
ATOM     34  H   UNL     1      -6.959  -2.234   9.842  0.00  0.00    +0.145 HD
ATOM     35  H   UNL     1      -8.167  -2.577   8.727  0.00  0.00    +0.145 HD
ENDBRANCH  27  31
ENDBRANCH  24  26
ENDBRANCH  21  22
ENDBRANCH  20  21
ENDBRANCH   4  20
TORSDOF 7
