REMARK  Name = ZINC47835955
REMARK  7 active torsions:
REMARK  status: ('A' for Active; 'I' for Inactive)
REMARK    1  A    between atoms: C_1  and  N_2
REMARK    2  A    between atoms: N_2  and  C_3
REMARK    3  A    between atoms: N_2  and  C_4
REMARK    4  A    between atoms: C_4  and  C_9
REMARK    5  A    between atoms: C_9  and  N_10
REMARK    6  A    between atoms: N_13  and  C_14
REMARK    7  A    between atoms: C_20  and  C_22
REMARK                            x       y       z     vdW  Elec       q    Type
REMARK                         _______ _______ _______ _____ _____    ______ ____
ROOT
ATOM      1  N   UNL     1      -2.901   1.582  -0.277  0.00  0.00    -0.301 N 
ATOM      2  C   UNL     1      -3.533   2.151   0.769  0.00  0.00    +0.300 C 
ATOM      3  O   UNL     1      -3.893   1.466   1.707  0.00  0.00    -0.253 OA
ATOM      4  N   UNL     1      -3.767   3.478   0.774  0.00  0.00    -0.296 N 
ATOM      5  H   UNL     1      -2.614   2.128  -1.026  0.00  0.00    +0.150 HD
ATOM      6  H   UNL     1      -3.480   4.024   0.025  0.00  0.00    +0.151 HD
ENDROOT
BRANCH   4   7
ATOM      7  C   UNL     1      -4.454   4.096   1.911  0.00  0.00    +0.077 C 
ATOM      8  C   UNL     1      -5.967   3.978   1.717  0.00  0.00    +0.041 C 
ATOM      9  C   UNL     1      -6.682   4.595   2.924  0.00  0.00    +0.109 C 
ATOM     10  N   UNL     1      -6.203   5.972   3.104  0.00  0.00    -0.301 N 
ATOM     11  C   UNL     1      -4.756   6.208   3.210  0.00  0.00    +0.109 C 
ATOM     12  C   UNL     1      -4.063   5.574   2.000  0.00  0.00    +0.041 C 
ATOM     13  C   UNL     1      -7.073   6.998   3.171  0.00  0.00    +0.219 C 
ATOM     14  O   UNL     1      -8.267   6.782   3.178  0.00  0.00    -0.275 OA
BRANCH  13  15
ATOM     15  C   UNL     1      -6.564   8.415   3.238  0.00  0.00    +0.075 C 
ATOM     16  C   UNL     1      -5.838   8.634   4.567  0.00  0.00    +0.013 C 
ATOM     17  C   UNL     1      -5.320  10.072   4.635  0.00  0.00    +0.001 C 
ATOM     18  C   UNL     1      -6.498  11.043   4.531  0.00  0.00    +0.000 C 
ATOM     19  C   UNL     1      -7.224  10.825   3.202  0.00  0.00    +0.001 C 
ATOM     20  C   UNL     1      -7.741   9.386   3.134  0.00  0.00    +0.013 C 
ENDBRANCH  13  15
ENDBRANCH   4   7
BRANCH   1  21
ATOM     21  C   UNL     1      -2.648   0.139  -0.283  0.00  0.00    +0.094 C 
BRANCH  21  22
ATOM     22  C   UNL     1      -2.024  -0.264  -1.621  0.00  0.00    -0.050 C 
ATOM     23  C   UNL     1      -3.017   0.005  -2.770  0.00  0.00    -0.010 C 
ATOM     24  C   UNL     1      -2.796  -1.176  -3.747  0.00  0.00    -0.001 C 
ATOM     25  C   UNL     1      -2.563  -2.372  -2.791  0.00  0.00    -0.001 C 
ATOM     26  C   UNL     1      -1.735  -1.775  -1.634  0.00  0.00    -0.010 C 
BRANCH  22  28
ATOM     27  C   UNL     1       0.184   0.161  -0.785  0.00  0.00    -0.096 C 
ATOM     28  N   UNL     1      -0.781   0.488  -1.843  0.00  0.00    +0.381 N 
ATOM     29  C   UNL     1      -0.217   0.126  -3.150  0.00  0.00    -0.096 C 
ATOM     30  H   UNL     1      -0.979   1.477  -1.824  0.00  0.00    -0.082 HD
ENDBRANCH  22  28
ENDBRANCH  21  22
ENDBRANCH   1  21
TORSDOF 5
