REMARK  Name = ZINC21229484
REMARK  6 active torsions:
REMARK  status: ('A' for Active; 'I' for Inactive)
REMARK    1  A    between atoms: C_1  and  C_2
REMARK    2  A    between atoms: C_2  and  C_3
REMARK    3  A    between atoms: C_2  and  O_4
REMARK    4  A    between atoms: O_4  and  C_5
REMARK    5  A    between atoms: C_8  and  C_11
REMARK    6  A    between atoms: C_16  and  C_26
REMARK                            x       y       z     vdW  Elec       q    Type
REMARK                         _______ _______ _______ _____ _____    ______ ____
ROOT
ATOM      1  C   UNL     1      -6.103   6.026  -1.505  0.00  0.00    +0.032 C 
ATOM      2  C   UNL     1      -4.689   6.604  -1.485  0.00  0.00    +0.059 C 
ATOM      3  C   UNL     1      -4.707   7.998  -0.878  0.00  0.00    +0.017 C 
ATOM      4  C   UNL     1      -5.777   8.795  -1.037  0.00  0.00    +0.037 C 
ATOM      5  C   UNL     1      -5.929  10.194  -0.489  0.00  0.00    +0.139 C 
ATOM      6  N   UNL     1      -4.707  10.767   0.034  0.00  0.00    -0.331 N 
ATOM      7  C   UNL     1      -4.076  10.215   1.145  0.00  0.00    +0.049 A 
ATOM      8  C   UNL     1      -4.006  10.900   2.349  0.00  0.00    +0.025 A 
ATOM      9  C   UNL     1      -3.442  10.284   3.451  0.00  0.00    +0.002 A 
ATOM     10  C   UNL     1      -2.948   8.995   3.358  0.00  0.00    +0.002 A 
ATOM     11  C   UNL     1      -2.994   8.316   2.152  0.00  0.00    +0.025 A 
ATOM     12  C   UNL     1      -3.541   8.939   1.044  0.00  0.00    +0.052 A 
ATOM     13  N   UNL     1      -3.575   8.338  -0.209  0.00  0.00    -0.316 N 
ATOM     14  C   UNL     1      -6.905   8.340  -1.760  0.00  0.00    +0.163 C 
ATOM     15  O   UNL     1      -7.847   9.092  -1.911  0.00  0.00    -0.292 OA
ATOM     16  C   UNL     1      -6.978   6.962  -2.347  0.00  0.00    +0.088 C 
ATOM     17  H   UNL     1      -4.264  11.651  -0.448  0.00  0.00    +0.147 HD
ATOM     18  H   UNL     1      -2.591   8.139  -0.658  0.00  0.00    +0.152 HD
ENDROOT
BRANCH   5  19
ATOM     19  C   UNL     1      -6.955  10.167   0.614  0.00  0.00    +0.014 A 
ATOM     20  C   UNL     1      -6.986   9.109   1.505  0.00  0.00    +0.048 A 
ATOM     21  C   UNL     1      -7.925   9.088   2.521  0.00  0.00    +0.020 A 
ATOM     22  C   UNL     1      -8.839  10.118   2.639  0.00  0.00    +0.003 A 
ATOM     23  C   UNL     1      -8.812  11.172   1.746  0.00  0.00    +0.020 A 
ATOM     24  C   UNL     1      -7.871  11.197   0.733  0.00  0.00    +0.048 A 
ATOM     25 CL   UNL     1      -7.837  12.522  -0.389  0.00  0.00    -0.083 Cl
ATOM     26 CL   UNL     1      -5.843   7.812   1.352  0.00  0.00    -0.083 Cl
ENDBRANCH   5  19
BRANCH   1  30
ATOM     27  C   UNL     1      -6.049   2.128  -3.255  0.00  0.00    +0.121 A 
ATOM     28  C   UNL     1      -5.617   3.224  -3.987  0.00  0.00    +0.046 A 
ATOM     29  C   UNL     1      -5.641   4.484  -3.421  0.00  0.00    +0.007 A 
ATOM     30  C   UNL     1      -6.084   4.652  -2.122  0.00  0.00    -0.043 A 
ATOM     31  C   UNL     1      -6.509   3.560  -1.388  0.00  0.00    +0.007 A 
ATOM     32  C   UNL     1      -6.493   2.298  -1.951  0.00  0.00    +0.046 A 
BRANCH  27  33
ATOM     33  O   UNL     1      -6.032   0.888  -3.811  0.00  0.00    -0.489 OA
BRANCH  33  35
ATOM     34  C   UNL     1      -5.970  -1.508  -3.505  0.00  0.00    +0.051 C 
ATOM     35  C   UNL     1      -6.564  -0.182  -3.028  0.00  0.00    +0.167 C 
ATOM     36  C   UNL     1      -8.086  -0.220  -3.185  0.00  0.00    +0.051 C 
ENDBRANCH  33  35
ENDBRANCH  27  33
ENDBRANCH   1  30
TORSDOF 4
