REMARK  Name = ZINC09215994
REMARK  7 active torsions:
REMARK  status: ('A' for Active; 'I' for Inactive)
REMARK    1  A    between atoms: C_1  and  C_2
REMARK    2  A    between atoms: C_2  and  C_3
REMARK    3  A    between atoms: C_2  and  C_4
REMARK    4  A    between atoms: C_4  and  C_5
REMARK    5  A    between atoms: N_13  and  C_16
REMARK    6  A    between atoms: C_16  and  C_17
REMARK    7  A    between atoms: C_17  and  C_18
REMARK                            x       y       z     vdW  Elec       q    Type
REMARK                         _______ _______ _______ _____ _____    ______ ____
ROOT
ATOM      1  C   UNL     1      -0.042  -0.124   2.497  0.00  0.00    -0.057 C 
ATOM      2  C   UNL     1       0.730  -0.549   3.765  0.00  0.00    +0.073 C 
ATOM      3  C   UNL     1      -0.367  -1.019   4.760  0.00  0.00    +0.088 C 
ATOM      4  C   UNL     1      -0.293   0.005   5.870  0.00  0.00    +0.225 C 
ATOM      5  O   UNL     1      -0.991   0.015   6.861  0.00  0.00    -0.275 OA
ATOM      6  N   UNL     1       0.664   0.897   5.588  0.00  0.00    -0.241 N 
ATOM      7  C   UNL     1       1.317   0.679   4.423  0.00  0.00    +0.224 C 
ATOM      8  O   UNL     1       2.220   1.351   3.973  0.00  0.00    -0.275 OA
ATOM      9  C   UNL     1      -1.682  -0.870   3.985  0.00  0.00    +0.050 C 
ATOM     10  N   UNL     1      -1.324  -0.874   2.559  0.00  0.00    +0.394 N 
ATOM     11  C   UNL     1      -2.650  -1.967   4.328  0.00  0.00    -0.026 A 
ATOM     12  C   UNL     1      -2.598  -3.340   4.236  0.00  0.00    +0.004 A 
ATOM     13  C   UNL     1      -3.679  -4.103   4.642  0.00  0.00    +0.002 A 
ATOM     14  C   UNL     1      -4.811  -3.483   5.140  0.00  0.00    +0.022 A 
ATOM     15  C   UNL     1      -4.867  -2.107   5.234  0.00  0.00    +0.062 A 
ATOM     16  C   UNL     1      -3.783  -1.332   4.827  0.00  0.00    +0.054 A 
ATOM     17  N   UNL     1      -3.601   0.054   4.823  0.00  0.00    -0.285 N 
ATOM     18  C   UNL     1      -2.393   0.406   4.345  0.00  0.00    +0.211 C 
ATOM     19  O   UNL     1      -1.961   1.533   4.227  0.00  0.00    -0.277 OA
ATOM     20 CL   UNL     1      -6.294  -1.341   5.859  0.00  0.00    -0.082 Cl
ATOM     21  H   UNL     1      -2.031  -0.410   2.009  0.00  0.00    -0.083 HD
ATOM     22  H   UNL     1      -4.268   0.688   5.130  0.00  0.00    +0.155 HD
ATOM     23  H   UNL     1      -1.193  -1.823   2.241  0.00  0.00    -0.083 HD
ENDROOT
BRANCH   1  24
ATOM     24  C   UNL     1       0.742  -0.511   1.242  0.00  0.00    -0.012 C 
BRANCH  24  26
ATOM     25  C   UNL     1      -0.019   1.526   0.010  0.00  0.00    +0.007 C 
ATOM     26  C   UNL     1       0.002  -0.004   0.002  0.00  0.00    -0.019 C 
ATOM     27  C   UNL     1       0.718  -0.497  -1.257  0.00  0.00    +0.007 C 
ENDBRANCH  24  26
ENDBRANCH   1  24
BRANCH   6  28
ATOM     28  C   UNL     1       0.986   2.019   6.474  0.00  0.00    +0.121 C 
BRANCH  28  29
ATOM     29  C   UNL     1       2.065   1.589   7.470  0.00  0.00    +0.054 C 
BRANCH  29  30
ATOM     30  C   UNL     1       2.396   2.743   8.381  0.00  0.00    -0.046 A 
ATOM     31  C   UNL     1       3.393   3.635   8.032  0.00  0.00    +0.004 A 
ATOM     32  C   UNL     1       3.696   4.694   8.867  0.00  0.00    +0.000 A 
ATOM     33  C   UNL     1       3.003   4.861  10.051  0.00  0.00    +0.000 A 
ATOM     34  C   UNL     1       2.006   3.970  10.400  0.00  0.00    +0.000 A 
ATOM     35  C   UNL     1       1.699   2.913   9.562  0.00  0.00    +0.004 A 
ENDBRANCH  29  30
ENDBRANCH  28  29
ENDBRANCH   6  28
TORSDOF 5
