REMARK  Name = ZINC39531022
REMARK  10 active torsions:
REMARK  status: ('A' for Active; 'I' for Inactive)
REMARK    1  A    between atoms: C_4  and  C_7
REMARK    2  A    between atoms: C_7  and  C_8
REMARK    3  A    between atoms: C_11  and  C_14
REMARK    4  A    between atoms: C_14  and  C_16
REMARK    5  A    between atoms: C_14  and  N_25
REMARK    6  A    between atoms: C_16  and  N_17
REMARK    7  A    between atoms: N_17  and  C_18
REMARK    8  A    between atoms: C_18  and  C_19
REMARK    9  A    between atoms: C_29  and  C_32
REMARK   10  A    between atoms: C_37  and  O_38
REMARK                            x       y       z     vdW  Elec       q    Type
REMARK                         _______ _______ _______ _____ _____    ______ ____
ROOT
ATOM      1  C   UNL     1       4.194  -1.192   5.704  0.00  0.00    -0.024 C 
ENDROOT
BRANCH   1   2
ATOM      2  N   UNL     1       3.015  -1.924   6.187  0.00  0.00    +0.383 N 
ATOM      3  C   UNL     1       1.802  -1.151   5.886  0.00  0.00    -0.097 C 
ATOM      4  C   UNL     1       0.575  -1.914   6.388  0.00  0.00    -0.101 C 
ATOM      5  N   UNL     1       0.681  -2.111   7.840  0.00  0.00    +0.381 N 
ATOM      6  C   UNL     1       1.894  -2.884   8.141  0.00  0.00    -0.054 C 
ATOM      7  C   UNL     1       3.122  -2.122   7.638  0.00  0.00    -0.089 C 
ATOM      8  H   UNL     1       0.731  -1.214   8.299  0.00  0.00    -0.085 HD
ATOM      9  H   UNL     1      -0.128  -2.614   8.172  0.00  0.00    -0.085 HD
ATOM     10  H   UNL     1       2.965  -2.821   5.728  0.00  0.00    -0.081 HD
BRANCH   6  11
ATOM     11  C   UNL     1       2.004  -3.087   9.630  0.00  0.00    -0.022 A 
ATOM     12  C   UNL     1       1.333  -2.242  10.494  0.00  0.00    +0.005 A 
ATOM     13  C   UNL     1       1.434  -2.427  11.861  0.00  0.00    +0.000 A 
ATOM     14  C   UNL     1       2.205  -3.458  12.366  0.00  0.00    +0.004 A 
ATOM     15  C   UNL     1       2.877  -4.305  11.507  0.00  0.00    +0.045 A 
ATOM     16  C   UNL     1       2.773  -4.125  10.135  0.00  0.00    +0.118 A 
BRANCH  16  17
ATOM     17  O   UNL     1       3.429  -4.960   9.287  0.00  0.00    -0.507 OA
ATOM     18  H   UNL     1       4.347  -4.709   9.118  0.00  0.00    +0.292 HD
ENDBRANCH  16  17
ENDBRANCH   6  11
ENDBRANCH   1   2
BRANCH   1  22
ATOM     19  C   UNL     1       3.698  -0.263   1.564  0.00  0.00    -0.043 A 
ATOM     20  C   UNL     1       4.260   0.667   2.419  0.00  0.00    +0.004 A 
ATOM     21  C   UNL     1       4.421   0.366   3.759  0.00  0.00    +0.002 A 
ATOM     22  C   UNL     1       4.018  -0.864   4.244  0.00  0.00    -0.060 A 
ATOM     23  C   UNL     1       3.455  -1.793   3.389  0.00  0.00    +0.002 A 
ATOM     24  C   UNL     1       3.291  -1.491   2.050  0.00  0.00    +0.004 A 
BRANCH  19  25
ATOM     25  C   UNL     1       3.523   0.065   0.104  0.00  0.00    +0.070 C 
BRANCH  25  29
ATOM     26  C   UNL     1      -0.290   1.892  -0.501  0.00  0.00    +0.000 A 
ATOM     27  C   UNL     1       0.814   2.675  -0.219  0.00  0.00    +0.000 A 
ATOM     28  C   UNL     1       2.048   2.083  -0.023  0.00  0.00    +0.004 A 
ATOM     29  C   UNL     1       2.178   0.710  -0.109  0.00  0.00    -0.043 A 
ATOM     30  C   UNL     1       1.074  -0.073  -0.391  0.00  0.00    +0.004 A 
ATOM     31  C   UNL     1      -0.160   0.519  -0.588  0.00  0.00    +0.000 A 
ENDBRANCH  25  29
ENDBRANCH  19  25
ENDBRANCH   1  22
BRANCH   1  32
ATOM     32  C   UNL     1       5.442  -2.059   5.886  0.00  0.00    +0.070 C 
BRANCH  32  33
ATOM     33  N   UNL     1       5.702  -2.249   7.319  0.00  0.00    -0.313 NA
ATOM     34  H   UNL     1       5.715  -1.364   7.804  0.00  0.00    +0.122 HD
BRANCH  33  35
ATOM     35  C   UNL     1       6.954  -2.986   7.534  0.00  0.00    +0.116 C 
BRANCH  35  36
ATOM     36  C   UNL     1       7.251  -3.053   9.009  0.00  0.00    -0.034 A 
ATOM     37  C   UNL     1       7.917  -2.011   9.628  0.00  0.00    +0.005 A 
ATOM     38  C   UNL     1       8.189  -2.072  10.982  0.00  0.00    +0.000 A 
ATOM     39  C   UNL     1       7.796  -3.174  11.717  0.00  0.00    +0.000 A 
ATOM     40  C   UNL     1       7.130  -4.216  11.099  0.00  0.00    +0.000 A 
ATOM     41  C   UNL     1       6.854  -4.153   9.746  0.00  0.00    +0.005 A 
ENDBRANCH  35  36
ENDBRANCH  33  35
ENDBRANCH  32  33
ENDBRANCH   1  32
TORSDOF 10
