REMARK  Name = ZINC59386298
REMARK  6 active torsions:
REMARK  status: ('A' for Active; 'I' for Inactive)
REMARK    1  A    between atoms: C_4  and  C_7
REMARK    2  A    between atoms: N_9  and  N_10
REMARK    3  A    between atoms: C_11  and  C_12
REMARK    4  A    between atoms: C_15  and  S_17
REMARK    5  A    between atoms: S_17  and  C_18
REMARK    6  A    between atoms: N_28  and  C_29
REMARK                            x       y       z     vdW  Elec       q    Type
REMARK                         _______ _______ _______ _____ _____    ______ ____
ROOT
ATOM      1  S   UNL     1      10.447  -4.483   1.414  0.00  0.00    -0.014 S 
ENDROOT
BRANCH   1   2
ATOM      2  C   UNL     1      10.444  -2.934   0.574  0.00  0.00    +0.184 A 
ATOM      3  N   UNL     1       9.366  -2.192   0.636  0.00  0.00    -0.222 NA
ATOM      4  C   UNL     1       9.295  -0.997   0.017  0.00  0.00    +0.079 A 
ATOM      5  C   UNL     1       8.144  -0.205   0.084  0.00  0.00    +0.028 A 
ATOM      6  C   UNL     1       8.115   1.001  -0.558  0.00  0.00    +0.002 A 
ATOM      7  C   UNL     1       9.213   1.455  -1.278  0.00  0.00    +0.001 A 
ATOM      8  C   UNL     1      10.352   0.703  -1.362  0.00  0.00    +0.015 A 
ATOM      9  C   UNL     1      10.410  -0.531  -0.717  0.00  0.00    +0.065 A 
ATOM     10  C   UNL     1      11.607  -1.381  -0.773  0.00  0.00    +0.267 A 
ATOM     11  O   UNL     1      12.599  -1.035  -1.388  0.00  0.00    -0.267 OA
ATOM     12  N   UNL     1      11.569  -2.559  -0.108  0.00  0.00    -0.255 N 
BRANCH  12  13
ATOM     13  C   UNL     1      12.686  -3.404  -0.125  0.00  0.00    +0.052 A 
ATOM     14  C   UNL     1      12.821  -4.360  -1.123  0.00  0.00    +0.026 A 
ATOM     15  C   UNL     1      13.923  -5.192  -1.136  0.00  0.00    +0.002 A 
ATOM     16  C   UNL     1      14.893  -5.073  -0.157  0.00  0.00    +0.000 A 
ATOM     17  C   UNL     1      14.761  -4.122   0.838  0.00  0.00    +0.002 A 
ATOM     18  C   UNL     1      13.664  -3.283   0.853  0.00  0.00    +0.026 A 
ENDBRANCH  12  13
ENDBRANCH   1   2
BRANCH   1  22
ATOM     19  C   UNL     1       6.795  -4.048   2.733  0.00  0.00    +0.149 A 
ATOM     20  C   UNL     1       7.068  -5.270   3.280  0.00  0.00    +0.052 A 
ATOM     21  C   UNL     1       8.378  -5.602   2.902  0.00  0.00    +0.057 A 
ATOM     22  C   UNL     1       8.847  -4.575   2.144  0.00  0.00    +0.169 A 
ATOM     23  O   UNL     1       7.883  -3.643   2.043  0.00  0.00    -0.447 OA
BRANCH  19  25
ATOM     24  N   UNL     1       5.402  -2.150   2.289  0.00  0.00    -0.184 NA
ATOM     25  C   UNL     1       5.539  -3.309   2.866  0.00  0.00    +0.176 C 
BRANCH  24  28
ATOM     26  C   UNL     1       4.057  -0.242   1.819  0.00  0.00    +0.263 C 
ATOM     27  O   UNL     1       4.972   0.226   1.169  0.00  0.00    -0.268 OA
ATOM     28  N   UNL     1       4.199  -1.442   2.417  0.00  0.00    -0.203 N 
ATOM     29  H   UNL     1       3.469  -1.815   2.935  0.00  0.00    +0.178 HD
BRANCH  26  33
ATOM     30  C   UNL     1       0.411   1.903   2.205  0.00  0.00    +0.000 A 
ATOM     31  C   UNL     1       1.451   2.439   1.466  0.00  0.00    +0.001 A 
ATOM     32  C   UNL     1       2.637   1.747   1.336  0.00  0.00    +0.013 A 
ATOM     33  C   UNL     1       2.788   0.504   1.954  0.00  0.00    +0.038 A 
ATOM     34  C   UNL     1       1.736  -0.030   2.699  0.00  0.00    +0.013 A 
ATOM     35  C   UNL     1       0.554   0.671   2.820  0.00  0.00    +0.001 A 
ENDBRANCH  26  33
ENDBRANCH  24  28
ENDBRANCH  19  25
ENDBRANCH   1  22
TORSDOF 6
