REMARK  Name = ZINC62220506
REMARK  6 active torsions:
REMARK  status: ('A' for Active; 'I' for Inactive)
REMARK    1  A    between atoms: C_1  and  C_2
REMARK    2  A    between atoms: C_3  and  C_8
REMARK    3  A    between atoms: C_5  and  C_7
REMARK    4  A    between atoms: C_11  and  S_14
REMARK    5  A    between atoms: S_14  and  N_17
REMARK    6  A    between atoms: N_17  and  C_18
REMARK                            x       y       z     vdW  Elec       q    Type
REMARK                         _______ _______ _______ _____ _____    ______ ____
ROOT
ATOM      1  S   UNL     1      -6.359   0.580  -0.614  0.00  0.00    +0.072 S 
ATOM      2  O   UNL     1      -7.321  -0.445  -0.821  0.00  0.00    -0.150 OA
ATOM      3  O   UNL     1      -5.817   0.868   0.668  0.00  0.00    -0.150 OA
ENDROOT
BRANCH   1   7
ATOM      4  C   UNL     1      -2.850  -0.371  -3.317  0.00  0.00    +0.004 A 
ATOM      5  C   UNL     1      -2.646   0.316  -2.122  0.00  0.00    +0.012 A 
ATOM      6  C   UNL     1      -3.719   0.604  -1.302  0.00  0.00    +0.029 A 
ATOM      7  C   UNL     1      -4.994   0.211  -1.665  0.00  0.00    +0.109 A 
ATOM      8  C   UNL     1      -5.203  -0.471  -2.850  0.00  0.00    +0.029 A 
ATOM      9  C   UNL     1      -4.138  -0.759  -3.680  0.00  0.00    +0.012 A 
BRANCH   4  12
ATOM     10  C   UNL     1      -0.327   1.429  -3.762  0.00  0.00    +0.088 C 
ATOM     11  C   UNL     1      -0.606   0.092  -4.399  0.00  0.00    +0.130 A 
ATOM     12  C   UNL     1      -1.701  -0.682  -4.202  0.00  0.00    +0.112 A 
ATOM     13  N   UNL     1      -1.552  -1.791  -4.962  0.00  0.00    -0.213 NA
ATOM     14  C   UNL     1      -0.421  -1.710  -5.599  0.00  0.00    +0.193 A 
ATOM     15  O   UNL     1       0.182  -0.558  -5.277  0.00  0.00    -0.445 OA
ATOM     16  C   UNL     1       0.122  -2.744  -6.551  0.00  0.00    +0.109 C 
ENDBRANCH   4  12
ENDBRANCH   1   7
BRANCH   1  17
ATOM     17  N   UNL     1      -7.038   1.985  -1.167  0.00  0.00    -0.216 N 
ATOM     18  H   UNL     1      -7.946   1.984  -1.508  0.00  0.00    +0.174 HD
BRANCH  17  19
ATOM     19  C   UNL     1      -6.301   3.174  -1.145  0.00  0.00    +0.052 A 
ATOM     20  C   UNL     1      -6.091   3.838   0.059  0.00  0.00    +0.027 A 
ATOM     21  C   UNL     1      -5.365   5.012   0.085  0.00  0.00    +0.031 A 
ATOM     22  C   UNL     1      -4.843   5.529  -1.090  0.00  0.00    +0.087 A 
ATOM     23  C   UNL     1      -5.051   4.866  -2.300  0.00  0.00    +0.159 A 
ATOM     24  C   UNL     1      -5.776   3.686  -2.323  0.00  0.00    +0.073 A 
ATOM     25  O   UNL     1      -4.435   5.590  -3.266  0.00  0.00    -0.408 OA
ATOM     26  C   UNL     1      -3.858   6.668  -2.712  0.00  0.00    +0.419 A 
ATOM     27  O   UNL     1      -3.228   7.515  -3.314  0.00  0.00    -0.223 OA
ATOM     28  N   UNL     1      -4.085   6.665  -1.383  0.00  0.00    -0.288 N 
ATOM     29  H   UNL     1      -3.779   7.330  -0.747  0.00  0.00    +0.172 HD
ENDBRANCH  17  19
ENDBRANCH   1  17
TORSDOF 4
