REMARK  Name = ZINC20569608
REMARK  11 active torsions:
REMARK  status: ('A' for Active; 'I' for Inactive)
REMARK    1  A    between atoms: C_1  and  C_2
REMARK    2  A    between atoms: C_7  and  C_22
REMARK    3  A    between atoms: C_9  and  C_13
REMARK    4  A    between atoms: C_10  and  C_12
REMARK    5  A    between atoms: C_13  and  O_15
REMARK    6  A    between atoms: O_15  and  C_16
REMARK    7  A    between atoms: C_26  and  O_28
REMARK    8  A    between atoms: O_28  and  C_29
REMARK    9  A    between atoms: C_32  and  C_34
REMARK   10  A    between atoms: C_34  and  O_36
REMARK   11  A    between atoms: O_36  and  C_37
REMARK                            x       y       z     vdW  Elec       q    Type
REMARK                         _______ _______ _______ _____ _____    ______ ____
ROOT
ATOM      1  C   UNL     1       1.948   0.325  -2.188  0.00  0.00    +0.009 C 
ATOM      2  C   UNL     1       2.361   0.087  -0.734  0.00  0.00    +0.013 C 
ATOM      3  C   UNL     1       2.472   1.425  -0.001  0.00  0.00    +0.055 C 
ATOM      4  C   UNL     1       1.130   2.114   0.003  0.00  0.00    +0.016 C 
ATOM      5  C   UNL     1      -0.017   1.402   0.010  0.00  0.00    +0.025 C 
ATOM      6  C   UNL     1      -1.355   2.097   0.033  0.00  0.00    +0.092 C 
ATOM      7  C   UNL     1      -1.223   3.530  -0.394  0.00  0.00    +0.065 C 
ATOM      8  C   UNL     1      -0.031   4.151  -0.391  0.00  0.00    +0.016 C 
ATOM      9  N   UNL     1       1.097   3.483  -0.005  0.00  0.00    -0.321 N 
ATOM     10  C   UNL     1       0.063   5.594  -0.816  0.00  0.00    +0.061 C 
ATOM     11  C   UNL     1       0.002  -0.004   0.002  0.00  0.00    +0.176 C 
ATOM     12  O   UNL     1      -1.048  -0.615   0.021  0.00  0.00    -0.291 OA
ATOM     13  C   UNL     1       1.299  -0.766  -0.030  0.00  0.00    +0.171 C 
ATOM     14  H   UNL     1       1.985   4.055   0.302  0.00  0.00    +0.152 HD
ENDROOT
BRANCH   6  15
ATOM     15  C   UNL     1      -1.917   2.043   1.430  0.00  0.00    -0.032 A 
ATOM     16  C   UNL     1      -1.219   2.616   2.477  0.00  0.00    +0.005 A 
ATOM     17  C   UNL     1      -1.732   2.570   3.760  0.00  0.00    +0.004 A 
ATOM     18  C   UNL     1      -2.943   1.949   3.999  0.00  0.00    +0.045 A 
ATOM     19  C   UNL     1      -3.645   1.373   2.950  0.00  0.00    +0.120 A 
ATOM     20  C   UNL     1      -3.131   1.426   1.663  0.00  0.00    +0.050 A 
BRANCH  19  21
ATOM     21  O   UNL     1      -4.836   0.761   3.183  0.00  0.00    -0.495 OA
ATOM     22  C   UNL     1      -5.307   0.749   4.532  0.00  0.00    +0.277 C 
ENDBRANCH  19  21
ENDBRANCH   6  15
BRANCH   7  23
ATOM     23  C   UNL     1      -2.375   4.242  -0.805  0.00  0.00    +0.338 C 
ATOM     24  O   UNL     1      -2.280   5.404  -1.150  0.00  0.00    -0.245 OA
BRANCH  23  25
ATOM     25  O   UNL     1      -3.578   3.631  -0.813  0.00  0.00    -0.458 OA
BRANCH  25  26
ATOM     26  C   UNL     1      -4.698   4.409  -1.239  0.00  0.00    +0.177 C 
ATOM     27  C   UNL     1      -5.322   5.109  -0.030  0.00  0.00    +0.044 C 
ATOM     28  C   UNL     1      -6.521   5.943  -0.486  0.00  0.00    +0.004 C 
ATOM     29  C   UNL     1      -7.560   5.028  -1.138  0.00  0.00    +0.000 C 
ATOM     30  C   UNL     1      -6.936   4.327  -2.346  0.00  0.00    +0.004 C 
ATOM     31  C   UNL     1      -5.737   3.494  -1.890  0.00  0.00    +0.044 C 
ENDBRANCH  25  26
ENDBRANCH  23  25
ENDBRANCH   7  23
BRANCH  13  32
ATOM     32  C   UNL     1       1.107  -2.057  -0.782  0.00  0.00    +0.318 C 
ATOM     33  O   UNL     1       1.758  -2.280  -1.776  0.00  0.00    -0.250 OA
BRANCH  32  34
ATOM     34  O   UNL     1       0.213  -2.960  -0.349  0.00  0.00    -0.467 OA
ATOM     35  C   UNL     1       0.081  -4.181  -1.123  0.00  0.00    +0.280 C 
ENDBRANCH  32  34
ENDBRANCH  13  32
TORSDOF 7
