REMARK  Name = ZINC39711124
REMARK  10 active torsions:
REMARK  status: ('A' for Active; 'I' for Inactive)
REMARK    1  A    between atoms: C_1  and  C_2
REMARK    2  A    between atoms: C_5  and  C_43
REMARK    3  A    between atoms: C_10  and  C_14
REMARK    4  A    between atoms: C_14  and  C_16
REMARK    5  A    between atoms: C_14  and  N_28
REMARK    6  A    between atoms: N_21  and  C_22
REMARK    7  A    between atoms: N_28  and  C_29
REMARK    8  A    between atoms: N_28  and  C_36
REMARK    9  A    between atoms: C_29  and  C_30
REMARK   10  A    between atoms: C_36  and  C_37
REMARK                            x       y       z     vdW  Elec       q    Type
REMARK                         _______ _______ _______ _____ _____    ______ ____
ROOT
ATOM      1  C   UNL     1       2.092  -0.400   4.134  0.00  0.00    -0.010 C 
ENDROOT
BRANCH   1  11
ATOM      2  C   UNL     1      -1.573   2.488   1.987  0.00  0.00    +0.044 C 
ATOM      3  C   UNL     1      -1.681   1.022   1.656  0.00  0.00    -0.042 A 
ATOM      4  C   UNL     1      -2.468   0.600   0.632  0.00  0.00    +0.004 A 
ATOM      5  C   UNL     1      -2.579  -0.753   0.311  0.00  0.00    +0.005 A 
ATOM      6  C   UNL     1      -1.918  -1.725   0.993  0.00  0.00    -0.029 A 
ATOM      7  C   UNL     1      -1.077  -1.395   2.071  0.00  0.00    +0.043 A 
ATOM      8  N   UNL     1      -0.432  -2.357   2.732  0.00  0.00    -0.284 N 
ATOM      9  C   UNL     1       0.373  -2.117   3.753  0.00  0.00    +0.223 C 
ATOM     10  O   UNL     1       0.934  -3.037   4.317  0.00  0.00    -0.275 OA
ATOM     11  C   UNL     1       0.593  -0.695   4.217  0.00  0.00    +0.088 C 
ATOM     12  C   UNL     1      -0.138   0.403   3.469  0.00  0.00    -0.006 C 
ATOM     13  C   UNL     1      -0.935   0.027   2.428  0.00  0.00    -0.004 A 
ATOM     14  C   UNL     1      -2.087  -3.167   0.590  0.00  0.00    +0.045 C 
ATOM     15  H   UNL     1      -0.560  -3.276   2.450  0.00  0.00    +0.155 HD
ENDBRANCH   1  11
BRANCH   1  16
ATOM     16  C   UNL     1       2.368   0.999   4.687  0.00  0.00    +0.183 C 
ATOM     17  N   UNL     1       1.363   1.367   5.703  0.00  0.00    -0.229 N 
ATOM     18  N   UNL     1       0.707   2.497   5.200  0.00  0.00    -0.064 NA
ATOM     19  N   UNL     1       1.136   2.845   4.104  0.00  0.00    -0.061 NA
ATOM     20  N   UNL     1       2.174   2.022   3.641  0.00  0.00    -0.213 N 
ATOM     21  H   UNL     1       1.192   0.918   6.545  0.00  0.00    +0.172 HD
BRANCH  20  22
ATOM     22  C   UNL     1       2.912   2.148   2.382  0.00  0.00    +0.096 C 
ATOM     23  C   UNL     1       3.724   3.444   2.394  0.00  0.00    +0.024 C 
ATOM     24  C   UNL     1       4.495   3.576   1.080  0.00  0.00    +0.002 C 
ATOM     25  C   UNL     1       3.509   3.603  -0.090  0.00  0.00    +0.000 C 
ATOM     26  C   UNL     1       2.697   2.306  -0.102  0.00  0.00    +0.002 C 
ATOM     27  C   UNL     1       1.926   2.175   1.213  0.00  0.00    +0.024 C 
ENDBRANCH  20  22
ENDBRANCH   1  16
BRANCH   1  28
ATOM     28  N   UNL     1       2.830  -1.394   4.925  0.00  0.00    +0.389 N 
ATOM     29  H   UNL     1       2.549  -2.322   4.646  0.00  0.00    -0.081 HD
BRANCH  28  30
ATOM     30  C   UNL     1       4.272  -1.228   4.697  0.00  0.00    -0.041 C 
BRANCH  30  31
ATOM     31  C   UNL     1       4.600  -1.599   3.273  0.00  0.00    -0.046 A 
ATOM     32  C   UNL     1       4.609  -2.928   2.878  0.00  0.00    +0.005 A 
ATOM     33  C   UNL     1       4.917  -3.222   1.559  0.00  0.00    +0.020 A 
ATOM     34  C   UNL     1       5.203  -2.188   0.687  0.00  0.00    +0.111 A 
ATOM     35  N   UNL     1       5.185  -0.935   1.099  0.00  0.00    -0.263 NA
ATOM     36  C   UNL     1       4.891  -0.618   2.344  0.00  0.00    +0.112 A 
ENDBRANCH  30  31
ENDBRANCH  28  30
BRANCH  28  37
ATOM     37  C   UNL     1       2.535  -1.201   6.352  0.00  0.00    -0.046 C 
BRANCH  37  38
ATOM     38  C   UNL     1       1.337  -2.067   6.746  0.00  0.00    +0.102 C 
ATOM     39  C   UNL     1       0.947  -1.784   8.213  0.00  0.00    +0.032 C 
ATOM     40  C   UNL     1       0.587  -3.201   8.737  0.00  0.00    +0.030 C 
ATOM     41  C   UNL     1       1.592  -4.073   7.943  0.00  0.00    +0.160 C 
ATOM     42  O   UNL     1       1.686  -3.453   6.649  0.00  0.00    -0.378 OA
ENDBRANCH  37  38
ENDBRANCH  28  37
ENDBRANCH   1  28
TORSDOF 8
