REMARK  Name = ZINC20528216
REMARK  6 active torsions:
REMARK  status: ('A' for Active; 'I' for Inactive)
REMARK    1  A    between atoms: C_5  and  C_7
REMARK    2  A    between atoms: N_8  and  N_9
REMARK    3  A    between atoms: C_13  and  S_16
REMARK    4  A    between atoms: N_14  and  N_15
REMARK    5  A    between atoms: S_16  and  C_17
REMARK    6  A    between atoms: C_17  and  C_18
REMARK                            x       y       z     vdW  Elec       q    Type
REMARK                         _______ _______ _______ _____ _____    ______ ____
ROOT
ATOM      1  N   UNL     1      -1.437   7.183   2.415  0.00  0.00    -0.204 N 
ATOM      2  C   UNL     1      -1.074   5.997   1.795  0.00  0.00    +0.254 A 
ATOM      3  N   UNL     1      -0.431   5.887   0.658  0.00  0.00    -0.109 NA
ATOM      4  N   UNL     1      -0.263   4.523   0.386  0.00  0.00    -0.119 NA
ATOM      5  C   UNL     1      -0.809   3.844   1.366  0.00  0.00    +0.210 A 
ATOM      6  N   UNL     1      -1.329   4.736   2.260  0.00  0.00    -0.211 N 
ATOM      7  H   UNL     1      -1.977   7.160   3.373  0.00  0.00    +0.177 HD
ENDROOT
BRANCH   6   8
ATOM      8  N   UNL     1      -1.986   4.424   3.416  0.00  0.00    -0.294 N 
ATOM      9  H   UNL     1      -2.138   3.371   3.696  0.00  0.00    +0.163 HD
ATOM     10  H   UNL     1      -2.365   5.226   4.067  0.00  0.00    +0.163 HD
ENDBRANCH   6   8
BRANCH   1  12
ATOM     11  C   UNL     1      -1.455   9.522   2.402  0.00  0.00    +0.139 C 
ATOM     12  N   UNL     1      -1.115   8.411   1.821  0.00  0.00    -0.187 NA
BRANCH  11  17
ATOM     13  C   UNL     1      -1.161  13.215   1.808  0.00  0.00    +0.001 A 
ATOM     14  C   UNL     1      -0.482  13.241   0.603  0.00  0.00    +0.001 A 
ATOM     15  C   UNL     1      -0.118  12.060  -0.019  0.00  0.00    +0.020 A 
ATOM     16  C   UNL     1      -0.431  10.847   0.560  0.00  0.00    +0.050 A 
ATOM     17  C   UNL     1      -1.117  10.813   1.777  0.00  0.00    +0.013 A 
ATOM     18  C   UNL     1      -1.486  12.011   2.396  0.00  0.00    +0.011 A 
ATOM     19 CL   UNL     1       0.026   9.366  -0.223  0.00  0.00    -0.083 Cl
ENDBRANCH  11  17
ENDBRANCH   1  12
BRANCH   5  20
ATOM     20  S   UNL     1      -0.867   2.088   1.503  0.00  0.00    -0.080 S 
BRANCH  20  21
ATOM     21  C   UNL     1      -0.018   1.503   0.010  0.00  0.00    +0.112 C 
BRANCH  21  22
ATOM     22  C   UNL     1       0.002  -0.004   0.002  0.00  0.00    -0.037 A 
ATOM     23  C   UNL     1       1.057  -0.684   0.582  0.00  0.00    +0.007 A 
ATOM     24  C   UNL     1       1.074  -2.066   0.579  0.00  0.00    +0.038 A 
ATOM     25  C   UNL     1       0.040  -2.769  -0.014  0.00  0.00    +0.123 A 
ATOM     26  C   UNL     1      -1.013  -2.087  -0.599  0.00  0.00    +0.038 A 
ATOM     27  C   UNL     1      -1.031  -0.706  -0.591  0.00  0.00    +0.007 A 
ATOM     28  F   UNL     1       0.058  -4.120  -0.021  0.00  0.00    -0.205 F 
ENDBRANCH  21  22
ENDBRANCH  20  21
ENDBRANCH   5  20
TORSDOF 6
