REMARK  Name = ZINC09666442
REMARK  19 active torsions:
REMARK  status: ('A' for Active; 'I' for Inactive)
REMARK    1  A    between atoms: C_1  and  C_2
REMARK    2  A    between atoms: C_2  and  C_3
REMARK    3  A    between atoms: C_3  and  C_4
REMARK    4  A    between atoms: C_4  and  N_5
REMARK    5  A    between atoms: C_6  and  N_34
REMARK    6  A    between atoms: C_7  and  N_14
REMARK    7  A    between atoms: N_14  and  C_15
REMARK    8  A    between atoms: C_15  and  C_16
REMARK    9  A    between atoms: C_16  and  O_17
REMARK   10  A    between atoms: O_17  and  C_18
REMARK   11  A    between atoms: C_19  and  C_21
REMARK   12  A    between atoms: C_21  and  N_73
REMARK   13  A    between atoms: C_22  and  N_73
REMARK   14  A    between atoms: C_23  and  C_24
REMARK   15  A    between atoms: C_23  and  N_73
REMARK   16  A    between atoms: C_27  and  C_30
REMARK   17  A    between atoms: C_30  and  C_31
REMARK   18  A    between atoms: C_30  and  C_32
REMARK   19  A    between atoms: C_30  and  C_33
REMARK                            x       y       z     vdW  Elec       q    Type
REMARK                         _______ _______ _______ _____ _____    ______ ____
ROOT
ATOM      1  N   UNL     1      -0.872   0.860  -4.723  0.00  0.00    -0.264 N 
ATOM      2  C   UNL     1      -1.134   1.503  -3.566  0.00  0.00    +0.203 C 
ATOM      3  O   UNL     1      -1.998   2.354  -3.528  0.00  0.00    -0.277 OA
ENDROOT
BRANCH   1   6
ATOM      4  N   UNL     1      -3.761   1.052  -6.985  0.00  0.00    -0.280 N 
ATOM      5  C   UNL     1      -3.013   0.801  -5.859  0.00  0.00    +0.127 A 
ATOM      6  C   UNL     1      -1.667   1.105  -5.862  0.00  0.00    +0.140 A 
ATOM      7  C   UNL     1      -1.102   1.671  -7.021  0.00  0.00    +0.277 A 
ATOM      8  O   UNL     1       0.084   1.954  -7.050  0.00  0.00    -0.266 OA
ATOM      9  N   UNL     1      -1.878   1.891  -8.100  0.00  0.00    -0.273 N 
ATOM     10  H   UNL     1      -1.476   2.285  -8.926  0.00  0.00    +0.173 HD
ATOM     11  C   UNL     1      -3.188   1.589  -8.078  0.00  0.00    +0.331 A 
ATOM     12  O   UNL     1      -3.867   1.803  -9.063  0.00  0.00    -0.246 OA
BRANCH   5  13
ATOM     13  N   UNL     1      -3.598   0.253  -4.742  0.00  0.00    -0.343 N 
ATOM     14  H   UNL     1      -3.049  -0.023  -3.993  0.00  0.00    +0.144 HD
ATOM     15  H   UNL     1      -4.561   0.143  -4.704  0.00  0.00    +0.144 HD
ENDBRANCH   5  13
BRANCH   4  16
ATOM     16  C   UNL     1      -5.192   0.735  -6.994  0.00  0.00    +0.128 C 
BRANCH  16  17
ATOM     17  C   UNL     1      -5.987   1.947  -6.505  0.00  0.00    +0.021 C 
BRANCH  17  19
ATOM     18  C   UNL     1      -8.275   2.828  -6.026  0.00  0.00    +0.004 C 
ATOM     19  C   UNL     1      -7.480   1.615  -6.515  0.00  0.00    -0.002 C 
ENDBRANCH  17  19
ENDBRANCH  16  17
ENDBRANCH   4  16
ENDBRANCH   1   6
BRANCH   1  20
ATOM     20  C   UNL     1       0.237  -0.094  -4.795  0.00  0.00    +0.142 C 
BRANCH  20  21
ATOM     21  C   UNL     1      -0.265  -1.490  -4.420  0.00  0.00    +0.178 C 
BRANCH  21  22
ATOM     22  O   UNL     1      -1.210  -1.934  -5.396  0.00  0.00    -0.381 OA
ATOM     23  C   UNL     1      -1.744  -3.235  -5.138  0.00  0.00    +0.194 C 
ENDBRANCH  21  22
ENDBRANCH  20  21
ENDBRANCH   1  20
BRANCH   2  24
ATOM     24  C   UNL     1      -0.353   1.165  -2.322  0.00  0.00    +0.019 C 
BRANCH  24  26
ATOM     25  C   UNL     1      -0.514   3.415  -1.440  0.00  0.00    -0.095 C 
ATOM     26  N   UNL     1      -0.853   1.995  -1.206  0.00  0.00    +0.386 N 
ATOM     27  H   UNL     1      -1.873   1.901  -1.151  0.00  0.00    -0.081 HD
BRANCH  26  28
ATOM     28  C   UNL     1      -0.259   1.538   0.068  0.00  0.00    -0.043 C 
BRANCH  28  29
ATOM     29  C   UNL     1      -0.945   2.247   1.207  0.00  0.00    -0.064 A 
ATOM     30  C   UNL     1      -0.438   3.442   1.684  0.00  0.00    +0.002 A 
ATOM     31  C   UNL     1      -1.070   4.095   2.725  0.00  0.00    +0.004 A 
ATOM     32  C   UNL     1      -2.204   3.549   3.296  0.00  0.00    -0.042 A 
ATOM     33  C   UNL     1      -2.709   2.352   2.822  0.00  0.00    +0.004 A 
ATOM     34  C   UNL     1      -2.079   1.701   1.778  0.00  0.00    +0.002 A 
BRANCH  32  35
ATOM     35  C   UNL     1      -2.891   4.258   4.435  0.00  0.00    -0.013 C 
ATOM     36  C   UNL     1      -2.907   3.350   5.666  0.00  0.00    +0.015 C 
ATOM     37  C   UNL     1      -2.135   5.548   4.762  0.00  0.00    +0.015 C 
ATOM     38  C   UNL     1      -4.328   4.597   4.032  0.00  0.00    +0.015 C 
ENDBRANCH  32  35
ENDBRANCH  28  29
ENDBRANCH  26  28
ENDBRANCH  24  26
ENDBRANCH   2  24
TORSDOF 13
