REMARK  Name = ZINC39443861
REMARK  6 active torsions:
REMARK  status: ('A' for Active; 'I' for Inactive)
REMARK    1  A    between atoms: C_1  and  N_2
REMARK    2  A    between atoms: N_2  and  C_3
REMARK    3  A    between atoms: C_3  and  C_4
REMARK    4  A    between atoms: C_16  and  C_18
REMARK    5  A    between atoms: C_21  and  C_31
REMARK    6  A    between atoms: N_24  and  C_25
REMARK                            x       y       z     vdW  Elec       q    Type
REMARK                         _______ _______ _______ _____ _____    ______ ____
ROOT
ATOM      1  C   UNL     1      -0.018   1.461   0.010  0.00  0.00    +0.132 C 
ATOM      2  N   UNL     1       0.002  -0.004   0.002  0.00  0.00    -0.296 N 
ATOM      3  C   UNL     1       0.000  -0.672  -1.169  0.00  0.00    +0.238 C 
ATOM      4  O   UNL     1       0.017  -1.884  -1.175  0.00  0.00    -0.273 OA
ENDROOT
BRANCH   3   5
ATOM      5  C   UNL     1      -0.023   0.089  -2.470  0.00  0.00    +0.178 C 
ATOM      6  C   UNL     1      -1.467   0.530  -2.807  0.00  0.00    +0.059 C 
ATOM      7  C   UNL     1      -1.516   0.255  -4.335  0.00  0.00    +0.112 C 
ATOM      8  N   UNL     1      -0.654  -0.949  -4.454  0.00  0.00    -0.231 NA
ATOM      9  N   UNL     1       0.391  -0.786  -3.579  0.00  0.00    -0.254 N 
ATOM     10  H   UNL     1      -1.175  -1.788  -4.245  0.00  0.00    +0.145 HD
BRANCH   9  11
ATOM     11  C   UNL     1       1.655  -1.363  -3.718  0.00  0.00    +0.045 A 
ATOM     12  C   UNL     1       2.635  -1.130  -2.762  0.00  0.00    +0.024 A 
ATOM     13  C   UNL     1       3.884  -1.703  -2.902  0.00  0.00    +0.002 A 
ATOM     14  C   UNL     1       4.160  -2.506  -3.994  0.00  0.00    +0.000 A 
ATOM     15  C   UNL     1       3.186  -2.740  -4.947  0.00  0.00    +0.002 A 
ATOM     16  C   UNL     1       1.933  -2.175  -4.810  0.00  0.00    +0.024 A 
ENDBRANCH   9  11
BRANCH   7  17
ATOM     17  C   UNL     1      -2.924  -0.041  -4.784  0.00  0.00    +0.008 A 
ATOM     18  C   UNL     1      -3.816   0.778  -5.393  0.00  0.00    +0.013 A 
ATOM     19  C   UNL     1      -5.065   0.285  -5.719  0.00  0.00    +0.008 A 
ATOM     20  C   UNL     1      -5.361  -1.004  -5.421  0.00  0.00    +0.045 A 
ATOM     21  S   UNL     1      -3.846  -1.565  -4.661  0.00  0.00    -0.100 S 
ENDBRANCH   7  17
ENDBRANCH   3   5
BRANCH   2  22
ATOM     22  C   UNL     1       0.024  -0.743   1.267  0.00  0.00    +0.181 C 
BRANCH  22  23
ATOM     23  C   UNL     1      -1.389  -1.016   1.714  0.00  0.00    +0.128 A 
ATOM     24  N   UNL     1      -1.578  -1.692   2.877  0.00  0.00    -0.309 N 
ATOM     25  H   UNL     1      -0.810  -1.983   3.394  0.00  0.00    +0.170 HD
ATOM     26  C   UNL     1      -2.827  -1.961   3.323  0.00  0.00    +0.259 A 
ATOM     27  O   UNL     1      -3.011  -2.565   4.364  0.00  0.00    -0.267 OA
ATOM     28  C   UNL     1      -3.954  -1.496   2.500  0.00  0.00    +0.065 A 
ATOM     29  C   UNL     1      -5.278  -1.723   2.869  0.00  0.00    +0.015 A 
ATOM     30  C   UNL     1      -6.296  -1.266   2.060  0.00  0.00    +0.001 A 
ATOM     31  C   UNL     1      -6.011  -0.583   0.885  0.00  0.00    +0.002 A 
ATOM     32  C   UNL     1      -4.709  -0.349   0.502  0.00  0.00    +0.028 A 
ATOM     33  C   UNL     1      -3.661  -0.802   1.305  0.00  0.00    +0.078 A 
ATOM     34  N   UNL     1      -2.364  -0.589   0.970  0.00  0.00    -0.232 NA
ENDBRANCH  22  23
ENDBRANCH   2  22
TORSDOF 5
