REMARK  Name = ZINC39323807
REMARK  5 active torsions:
REMARK  status: ('A' for Active; 'I' for Inactive)
REMARK    1  A    between atoms: C_1  and  C_2
REMARK    2  A    between atoms: C_10  and  N_29
REMARK    3  A    between atoms: C_11  and  C_15
REMARK    4  A    between atoms: N_17  and  C_18
REMARK    5  A    between atoms: C_19  and  C_27
REMARK                            x       y       z     vdW  Elec       q    Type
REMARK                         _______ _______ _______ _____ _____    ______ ____
ROOT
ATOM      1  C   UNL     1      -0.019   1.526   0.010  0.00  0.00    +0.008 C 
ATOM      2  C   UNL     1       0.002  -0.004   0.002  0.00  0.00    -0.009 C 
ATOM      3  C   UNL     1       0.730  -0.503  -1.252  0.00  0.00    +0.010 C 
ATOM      4  C   UNL     1       0.523  -2.013  -1.359  0.00  0.00    +0.056 C 
ATOM      5  C   UNL     1       0.880  -2.690  -0.061  0.00  0.00    +0.046 A 
ATOM      6  C   UNL     1       0.978  -2.002   1.134  0.00  0.00    -0.025 A 
ATOM      7  C   UNL     1       1.300  -2.677   2.296  0.00  0.00    +0.017 A 
ATOM      8  C   UNL     1       1.536  -4.071   2.252  0.00  0.00    +0.029 A 
ATOM      9  C   UNL     1       1.886  -4.972   3.339  0.00  0.00    +0.053 A 
ATOM     10  C   UNL     1       2.069  -6.306   3.048  0.00  0.00    +0.097 A 
ATOM     11  S   UNL     1       1.774  -6.391   1.293  0.00  0.00    -0.062 S 
ATOM     12  C   UNL     1       1.417  -4.679   0.982  0.00  0.00    +0.111 A 
ATOM     13  N   UNL     1       1.104  -3.996  -0.094  0.00  0.00    -0.244 NA
ATOM     14  C   UNL     1       0.751  -0.515   1.231  0.00  0.00    +0.040 C 
ENDROOT
BRANCH  10  15
ATOM     15  C   UNL     1       2.411  -7.359   3.933  0.00  0.00    +0.257 C 
ATOM     16  O   UNL     1       2.580  -7.128   5.117  0.00  0.00    -0.269 OA
ATOM     17  N   UNL     1       2.549  -8.615   3.464  0.00  0.00    -0.274 N 
ATOM     18  H   UNL     1       2.414  -8.798   2.521  0.00  0.00    +0.156 HD
BRANCH  17  19
ATOM     19  C   UNL     1       2.884  -9.645   4.330  0.00  0.00    +0.090 A 
ATOM     20  C   UNL     1       3.072 -10.984   4.028  0.00  0.00    +0.084 A 
ATOM     21  C   UNL     1       3.420 -11.870   5.125  0.00  0.00    -0.018 A 
ATOM     22  C   UNL     1       3.517 -11.254   6.323  0.00  0.00    -0.004 A 
ATOM     23  S   UNL     1       3.162  -9.555   5.983  0.00  0.00    -0.077 S 
ATOM     24  C   UNL     1       3.856 -11.889   7.636  0.00  0.00    +0.043 C 
ATOM     25  C   UNL     1       3.709 -13.410   7.488  0.00  0.00    +0.005 C 
ATOM     26  C   UNL     1       4.431 -13.856   6.213  0.00  0.00    +0.005 C 
ATOM     27  C   UNL     1       3.665 -13.365   4.982  0.00  0.00    +0.037 C 
BRANCH  20  28
ATOM     28  C   UNL     1       2.928 -11.475   2.690  0.00  0.00    +0.102 C 
ATOM     29  N   UNL     1       2.813 -11.863   1.629  0.00  0.00    -0.191 NA
ENDBRANCH  20  28
ENDBRANCH  17  19
ENDBRANCH  10  15
BRANCH   9  30
ATOM     30  N   UNL     1       2.032  -4.500   4.636  0.00  0.00    -0.356 N 
ATOM     31  H   UNL     1       1.901  -3.558   4.827  0.00  0.00    +0.142 HD
ATOM     32  H   UNL     1       2.266  -5.112   5.351  0.00  0.00    +0.142 HD
ENDBRANCH   9  30
TORSDOF 4
