REMARK  Name = ZINC17364043
REMARK  9 active torsions:
REMARK  status: ('A' for Active; 'I' for Inactive)
REMARK    1  A    between atoms: C_1  and  C_2
REMARK    2  A    between atoms: C_2  and  O_3
REMARK    3  A    between atoms: O_3  and  C_4
REMARK    4  A    between atoms: N_6  and  C_7
REMARK    5  A    between atoms: C_7  and  C_27
REMARK    6  A    between atoms: C_11  and  C_15
REMARK    7  A    between atoms: C_11  and  C_16
REMARK    8  A    between atoms: N_17  and  C_20
REMARK    9  A    between atoms: C_20  and  C_21
REMARK                            x       y       z     vdW  Elec       q    Type
REMARK                         _______ _______ _______ _____ _____    ______ ____
ROOT
ATOM      1  C   UNL     1       1.558  -3.776   2.531  0.00  0.00    +0.239 C 
ATOM      2  C   UNL     1       2.204  -4.117   3.845  0.00  0.00    +0.053 C 
ATOM      3  C   UNL     1       1.297  -4.843   4.553  0.00  0.00    +0.024 C 
ATOM      4  C   UNL     1       1.611  -5.369   5.938  0.00  0.00    +0.058 C 
ATOM      5  C   UNL     1       3.128  -5.556   6.044  0.00  0.00    -0.023 C 
ATOM      6  C   UNL     1       3.849  -4.246   5.722  0.00  0.00    +0.086 C 
ATOM      7  C   UNL     1       3.482  -3.792   4.326  0.00  0.00    +0.164 C 
ATOM      8  O   UNL     1       4.268  -3.166   3.643  0.00  0.00    -0.292 OA
ATOM      9  C   UNL     1       3.487  -5.995   7.465  0.00  0.00    +0.011 C 
ATOM     10  C   UNL     1       3.576  -6.636   5.057  0.00  0.00    +0.011 C 
ATOM     11  N   UNL     1       0.143  -5.005   3.854  0.00  0.00    -0.267 N 
ATOM     12  C   UNL     1       0.186  -4.415   2.643  0.00  0.00    +0.257 C 
ATOM     13  O   UNL     1      -0.695  -4.399   1.810  0.00  0.00    -0.272 OA
ENDROOT
BRANCH   1  16
ATOM     14  C   UNL     1       0.801  -1.812   1.304  0.00  0.00    +0.402 C 
ATOM     15  O   UNL     1       0.321  -2.554   0.470  0.00  0.00    -0.226 OA
ATOM     16  N   UNL     1       1.441  -2.324   2.374  0.00  0.00    -0.256 N 
ATOM     17  H   UNL     1       1.824  -1.732   3.040  0.00  0.00    +0.154 HD
BRANCH  14  18
ATOM     18  O   UNL     1       0.693  -0.477   1.160  0.00  0.00    -0.451 OA
BRANCH  18  20
ATOM     19  C   UNL     1      -0.019   1.526   0.010  0.00  0.00    +0.048 C 
ATOM     20  C   UNL     1       0.002  -0.004   0.002  0.00  0.00    +0.230 C 
ENDBRANCH  18  20
ENDBRANCH  14  18
ENDBRANCH   1  16
BRANCH   1  21
ATOM     21  C   UNL     1       2.343  -4.382   1.366  0.00  0.00    +0.424 C 
ATOM     22  F   UNL     1       3.631  -3.837   1.338  0.00  0.00    -0.167 F 
ATOM     23  F   UNL     1       2.427  -5.769   1.532  0.00  0.00    -0.167 F 
ATOM     24  F   UNL     1       1.689  -4.094   0.164  0.00  0.00    -0.167 F 
ENDBRANCH   1  21
BRANCH  11  25
ATOM     25  C   UNL     1      -1.019  -5.739   4.362  0.00  0.00    +0.168 C 
BRANCH  25  26
ATOM     26  C   UNL     1      -1.928  -4.792   5.102  0.00  0.00    +0.059 A 
ATOM     27  C   UNL     1      -2.998  -4.217   4.442  0.00  0.00    +0.025 A 
ATOM     28  C   UNL     1      -3.828  -3.347   5.132  0.00  0.00    +0.003 A 
ATOM     29  C   UNL     1      -3.550  -3.087   6.465  0.00  0.00    +0.020 A 
ATOM     30  C   UNL     1      -2.462  -3.699   7.058  0.00  0.00    +0.111 A 
ATOM     31  N   UNL     1      -1.697  -4.526   6.372  0.00  0.00    -0.258 NA
ENDBRANCH  25  26
ENDBRANCH  11  25
TORSDOF 6
