REMARK  Name = ZINC38704903
REMARK  15 active torsions:
REMARK  status: ('A' for Active; 'I' for Inactive)
REMARK    1  A    between atoms: C_1  and  C_2
REMARK    2  A    between atoms: C_2  and  O_3
REMARK    3  A    between atoms: O_3  and  C_4
REMARK    4  A    between atoms: C_7  and  C_12
REMARK    5  A    between atoms: C_9  and  O_10
REMARK    6  A    between atoms: O_10  and  C_11
REMARK    7  A    between atoms: C_15  and  C_33
REMARK    8  A    between atoms: N_22  and  C_23
REMARK    9  A    between atoms: C_23  and  C_24
REMARK   10  A    between atoms: C_24  and  C_25
REMARK   11  A    between atoms: C_28  and  O_31
REMARK   12  A    between atoms: O_31  and  C_32
REMARK   13  A    between atoms: C_34  and  C_41
REMARK   14  A    between atoms: C_36  and  C_40
REMARK   15  A    between atoms: C_38  and  O_39
REMARK                            x       y       z     vdW  Elec       q    Type
REMARK                         _______ _______ _______ _____ _____    ______ ____
ROOT
ATOM      1  C   UNL     1      -1.780  -5.783  -0.109  0.00  0.00    +0.141 C 
ATOM      2  C   UNL     1      -1.814  -6.464  -1.450  0.00  0.00    +0.035 A 
ATOM      3  C   UNL     1      -2.439  -6.585  -2.696  0.00  0.00    +0.102 A 
ATOM      4  N   UNL     1      -1.788  -7.508  -3.376  0.00  0.00    -0.173 NA
ATOM      5  N   UNL     1      -0.814  -7.982  -2.683  0.00  0.00    -0.272 N 
ATOM      6  H   UNL     1      -0.201  -8.671  -2.983  0.00  0.00    +0.189 HD
ATOM      7  C   UNL     1      -0.772  -7.371  -1.462  0.00  0.00    +0.126 A 
ATOM      8  C   UNL     1      -0.072  -7.295  -0.175  0.00  0.00    +0.265 C 
ATOM      9  O   UNL     1       0.894  -7.967   0.132  0.00  0.00    -0.268 OA
ATOM     10  N   UNL     1      -0.651  -6.374   0.620  0.00  0.00    -0.285 N 
ENDROOT
BRANCH   3  11
ATOM     11  C   UNL     1      -3.618  -5.815  -3.166  0.00  0.00    +0.047 A 
ATOM     12  C   UNL     1      -3.607  -5.219  -4.424  0.00  0.00    -0.037 A 
ATOM     13  C   UNL     1      -4.706  -4.504  -4.857  0.00  0.00    +0.007 A 
ATOM     14  C   UNL     1      -5.819  -4.378  -4.045  0.00  0.00    -0.047 A 
ATOM     15  C   UNL     1      -5.839  -4.966  -2.794  0.00  0.00    +0.049 A 
ATOM     16  C   UNL     1      -4.745  -5.691  -2.350  0.00  0.00    +0.127 A 
ATOM     17  C   UNL     1      -7.014  -3.596  -4.526  0.00  0.00    +0.044 C 
ATOM     18  C   UNL     1      -2.397  -5.353  -5.312  0.00  0.00    +0.044 C 
BRANCH  16  19
ATOM     19  O   UNL     1      -4.767  -6.275  -1.123  0.00  0.00    -0.506 OA
ATOM     20  H   UNL     1      -4.495  -5.689  -0.404  0.00  0.00    +0.292 HD
ENDBRANCH  16  19
ENDBRANCH   3  11
BRANCH   1  24
ATOM     21  C   UNL     1      -1.166  -1.581  -0.611  0.00  0.00    +0.162 A 
ATOM     22  C   UNL     1      -0.134  -2.470  -0.865  0.00  0.00    +0.050 A 
ATOM     23  C   UNL     1      -0.336  -3.828  -0.702  0.00  0.00    +0.009 A 
ATOM     24  C   UNL     1      -1.566  -4.302  -0.285  0.00  0.00    -0.019 A 
ATOM     25  C   UNL     1      -2.599  -3.420  -0.030  0.00  0.00    +0.055 A 
ATOM     26  C   UNL     1      -2.402  -2.058  -0.186  0.00  0.00    +0.162 A 
BRANCH  26  27
ATOM     27  O   UNL     1      -3.417  -1.189   0.071  0.00  0.00    -0.491 OA
ATOM     28  C   UNL     1      -4.658  -1.750   0.503  0.00  0.00    +0.277 C 
ENDBRANCH  26  27
BRANCH  21  29
ATOM     29  O   UNL     1      -0.969  -0.245  -0.770  0.00  0.00    -0.489 OA
BRANCH  29  31
ATOM     30  C   UNL     1       0.355   1.698  -1.330  0.00  0.00    +0.048 C 
ATOM     31  C   UNL     1       0.325   0.173  -1.209  0.00  0.00    +0.226 C 
ENDBRANCH  29  31
ENDBRANCH  21  29
ENDBRANCH   1  24
BRANCH  10  32
ATOM     32  C   UNL     1      -0.227  -6.022   1.978  0.00  0.00    +0.114 C 
BRANCH  32  33
ATOM     33  C   UNL     1      -0.956  -6.912   2.986  0.00  0.00    +0.054 C 
BRANCH  33  34
ATOM     34  C   UNL     1      -0.520  -6.550   4.383  0.00  0.00    -0.046 A 
ATOM     35  C   UNL     1       0.570  -7.183   4.952  0.00  0.00    +0.007 A 
ATOM     36  C   UNL     1       0.971  -6.853   6.232  0.00  0.00    +0.046 A 
ATOM     37  C   UNL     1       0.280  -5.885   6.946  0.00  0.00    +0.120 A 
ATOM     38  C   UNL     1      -0.812  -5.251   6.373  0.00  0.00    +0.046 A 
ATOM     39  C   UNL     1      -1.206  -5.581   5.090  0.00  0.00    +0.007 A 
BRANCH  37  40
ATOM     40  O   UNL     1       0.673  -5.559   8.206  0.00  0.00    -0.495 OA
ATOM     41  C   UNL     1      -0.085  -4.554   8.882  0.00  0.00    +0.277 C 
ENDBRANCH  37  40
ENDBRANCH  33  34
ENDBRANCH  32  33
ENDBRANCH  10  32
TORSDOF 10
