REMARK  Name = ZINC39946195
REMARK  12 active torsions:
REMARK  status: ('A' for Active; 'I' for Inactive)
REMARK    1  A    between atoms: C_1  and  C_2
REMARK    2  A    between atoms: C_4  and  C_12
REMARK    3  A    between atoms: C_12  and  C_14
REMARK    4  A    between atoms: C_14  and  O_15
REMARK    5  A    between atoms: O_15  and  C_16
REMARK    6  A    between atoms: C_16  and  C_18
REMARK    7  A    between atoms: C_18  and  C_20
REMARK    8  A    between atoms: C_18  and  N_24
REMARK    9  A    between atoms: C_20  and  C_21
REMARK   10  A    between atoms: C_21  and  C_22
REMARK   11  A    between atoms: C_21  and  C_23
REMARK   12  A    between atoms: C_25  and  C_27
REMARK                            x       y       z     vdW  Elec       q    Type
REMARK                         _______ _______ _______ _____ _____    ______ ____
ROOT
ATOM      1  C   UNL     1      -6.089  -1.256  -2.053  0.00  0.00    +0.328 C 
ATOM      2  O   UNL     1      -6.620  -2.047  -1.310  0.00  0.00    -0.249 OA
ENDROOT
BRANCH   1   3
ATOM      3  O   UNL     1      -4.836  -0.842  -1.807  0.00  0.00    -0.455 OA
BRANCH   3   4
ATOM      4  C   UNL     1      -4.191  -1.376  -0.649  0.00  0.00    +0.311 C 
BRANCH   4   5
ATOM      5  C   UNL     1      -2.803  -0.801  -0.537  0.00  0.00    +0.199 C 
ATOM      6  O   UNL     1      -2.405  -0.009  -1.367  0.00  0.00    -0.289 OA
BRANCH   5   9
ATOM      7  C   UNL     1      -0.537   0.806   1.015  0.00  0.00    +0.035 C 
ATOM      8  C   UNL     1      -0.554  -0.709   0.804  0.00  0.00    +0.111 C 
ATOM      9  C   UNL     1      -1.966  -1.181   0.534  0.00  0.00    +0.029 C 
ATOM     10  C   UNL     1      -2.265  -2.065   1.556  0.00  0.00    +0.007 A 
ATOM     11  C   UNL     1      -3.415  -2.830   1.861  0.00  0.00    +0.010 A 
ATOM     12  C   UNL     1      -3.432  -3.629   2.951  0.00  0.00    +0.001 A 
ATOM     13  C   UNL     1      -2.336  -3.741   3.821  0.00  0.00    +0.002 A 
ATOM     14  C   UNL     1      -1.190  -3.054   3.620  0.00  0.00    +0.026 A 
ATOM     15  C   UNL     1      -1.088  -2.160   2.454  0.00  0.00    +0.043 A 
ATOM     16  N   UNL     1      -0.123  -1.394   2.027  0.00  0.00    -0.377 N 
ATOM     17  H   UNL     1       0.743  -1.292   2.451  0.00  0.00    +0.160 HD
ENDBRANCH   5   9
ENDBRANCH   4   5
ENDBRANCH   3   4
ENDBRANCH   1   3
BRANCH   1  18
ATOM     18  C   UNL     1      -6.832  -0.735  -3.256  0.00  0.00    +0.182 C 
BRANCH  18  19
ATOM     19  N   UNL     1      -8.168  -1.335  -3.302  0.00  0.00    -0.298 N 
ATOM     20  C   UNL     1      -8.792  -1.502  -4.485  0.00  0.00    +0.245 C 
ATOM     21  O   UNL     1      -8.209  -1.246  -5.521  0.00  0.00    -0.270 OA
ATOM     22  H   UNL     1      -8.604  -1.611  -2.480  0.00  0.00    +0.150 HD
BRANCH  20  23
ATOM     23  C   UNL     1     -10.184  -1.997  -4.523  0.00  0.00    +0.037 A 
ATOM     24  C   UNL     1     -10.857  -2.287  -3.335  0.00  0.00    +0.014 A 
ATOM     25  C   UNL     1     -12.156  -2.748  -3.377  0.00  0.00    +0.021 A 
ATOM     26  C   UNL     1     -12.792  -2.925  -4.594  0.00  0.00    +0.041 A 
ATOM     27  C   UNL     1     -12.129  -2.639  -5.776  0.00  0.00    +0.021 A 
ATOM     28  C   UNL     1     -10.832  -2.171  -5.747  0.00  0.00    +0.014 A 
ATOM     29 CL   UNL     1     -14.427  -3.506  -4.639  0.00  0.00    -0.084 Cl
ENDBRANCH  20  23
ENDBRANCH  18  19
BRANCH  18  30
ATOM     30  C   UNL     1      -6.959   0.786  -3.158  0.00  0.00    +0.036 C 
BRANCH  30  31
ATOM     31  C   UNL     1      -5.573   1.423  -3.283  0.00  0.00    -0.015 C 
ATOM     32  C   UNL     1      -4.992   1.111  -4.663  0.00  0.00    +0.007 C 
ATOM     33  C   UNL     1      -5.691   2.938  -3.109  0.00  0.00    +0.007 C 
ENDBRANCH  30  31
ENDBRANCH  18  30
ENDBRANCH   1  18
TORSDOF 9
