REMARK  Name = ZINC58882379
REMARK  13 active torsions:
REMARK  status: ('A' for Active; 'I' for Inactive)
REMARK    1  A    between atoms: C_1  and  C_2
REMARK    2  A    between atoms: C_5  and  N_8
REMARK    3  A    between atoms: C_9  and  C_39
REMARK    4  A    between atoms: C_10  and  C_35
REMARK    5  A    between atoms: C_14  and  C_15
REMARK    6  A    between atoms: C_18  and  O_21
REMARK    7  A    between atoms: O_21  and  C_22
REMARK    8  A    between atoms: C_22  and  C_23
REMARK    9  A    between atoms: N_25  and  C_26
REMARK   10  A    between atoms: C_26  and  C_28
REMARK   11  A    between atoms: C_26  and  C_29
REMARK   12  A    between atoms: C_35  and  O_37
REMARK   13  A    between atoms: O_37  and  C_38
REMARK                            x       y       z     vdW  Elec       q    Type
REMARK                         _______ _______ _______ _____ _____    ______ ____
ROOT
ATOM      1  C   UNL     1      -0.299  -5.647  -3.400  0.00  0.00    -0.023 A 
ATOM      2  C   UNL     1      -0.228  -7.000  -3.041  0.00  0.00    +0.011 A 
ATOM      3  C   UNL     1      -0.377  -7.973  -4.002  0.00  0.00    +0.046 A 
ATOM      4  C   UNL     1      -0.599  -7.617  -5.328  0.00  0.00    +0.121 A 
ATOM      5  C   UNL     1      -0.670  -6.276  -5.690  0.00  0.00    +0.046 A 
ATOM      6  C   UNL     1      -0.527  -5.294  -4.737  0.00  0.00    +0.011 A 
ENDROOT
BRANCH   1  13
ATOM      7  N   UNL     1       0.898  -3.963  -0.244  0.00  0.00    -0.269 N 
ATOM      8  C   UNL     1       1.863  -4.436   0.561  0.00  0.00    +0.031 C 
ATOM      9  C   UNL     1       2.421  -5.586   0.042  0.00  0.00    +0.125 C 
ATOM     10  C   UNL     1       1.730  -5.863  -1.228  0.00  0.00    +0.216 C 
ATOM     11  O   UNL     1       1.927  -6.790  -1.997  0.00  0.00    -0.285 OA
ATOM     12  C   UNL     1       0.745  -4.779  -1.362  0.00  0.00    +0.087 C 
ATOM     13  C   UNL     1      -0.141  -4.605  -2.380  0.00  0.00    +0.035 C 
ATOM     14  C   UNL     1       2.281  -3.796   1.860  0.00  0.00    +0.062 C 
BRANCH   7  19
ATOM     15  C   UNL     1      -2.151   0.711   0.782  0.00  0.00    +0.044 C 
ATOM     16  C   UNL     1      -1.341  -0.530   0.510  0.00  0.00    -0.050 A 
ATOM     17  C   UNL     1      -1.472  -1.634   1.333  0.00  0.00    +0.005 A 
ATOM     18  C   UNL     1      -0.731  -2.773   1.086  0.00  0.00    +0.024 A 
ATOM     19  C   UNL     1       0.145  -2.809   0.009  0.00  0.00    +0.039 A 
ATOM     20  C   UNL     1       0.274  -1.700  -0.816  0.00  0.00    +0.024 A 
ATOM     21  C   UNL     1      -0.473  -0.565  -0.566  0.00  0.00    +0.005 A 
ENDBRANCH   7  19
BRANCH   9  22
ATOM     22  C   UNL     1       3.499  -6.382   0.641  0.00  0.00    +0.344 C 
ATOM     23  O   UNL     1       3.988  -6.042   1.701  0.00  0.00    -0.245 OA
BRANCH  22  24
ATOM     24  O   UNL     1       3.947  -7.489   0.017  0.00  0.00    -0.464 OA
ATOM     25  C   UNL     1       4.998  -8.215   0.657  0.00  0.00    +0.280 C 
ENDBRANCH  22  24
ENDBRANCH   9  22
ENDBRANCH   1  13
BRANCH   4  26
ATOM     26  O   UNL     1      -0.745  -8.581  -6.271  0.00  0.00    -0.483 OA
BRANCH  26  27
ATOM     27  C   UNL     1      -0.969  -8.146  -7.614  0.00  0.00    +0.324 C 
BRANCH  27  28
ATOM     28  C   UNL     1      -1.107  -9.347  -8.515  0.00  0.00    +0.251 C 
ATOM     29  O   UNL     1      -1.020 -10.464  -8.052  0.00  0.00    -0.272 OA
ATOM     30  N   UNL     1      -1.325  -9.178  -9.834  0.00  0.00    -0.306 N 
ATOM     31  H   UNL     1      -1.394  -8.284 -10.204  0.00  0.00    +0.149 HD
BRANCH  30  32
ATOM     32  C   UNL     1      -1.458 -10.345 -10.709  0.00  0.00    +0.100 C 
ATOM     33  C   UNL     1      -0.070 -10.814 -11.149  0.00  0.00    +0.033 C 
BRANCH  32  34
ATOM     34  C   UNL     1      -2.269  -9.972 -11.923  0.00  0.00    -0.027 A 
ATOM     35  C   UNL     1      -2.079  -8.745 -12.532  0.00  0.00    +0.005 A 
ATOM     36  C   UNL     1      -2.824  -8.403 -13.645  0.00  0.00    +0.000 A 
ATOM     37  C   UNL     1      -3.758  -9.288 -14.151  0.00  0.00    +0.000 A 
ATOM     38  C   UNL     1      -3.947 -10.515 -13.543  0.00  0.00    +0.000 A 
ATOM     39  C   UNL     1      -3.200 -10.859 -12.432  0.00  0.00    +0.005 A 
ENDBRANCH  32  34
ENDBRANCH  30  32
ENDBRANCH  27  28
ENDBRANCH  26  27
ENDBRANCH   4  26
TORSDOF 9
