REMARK  Name = ZINC39892957
REMARK  5 active torsions:
REMARK  status: ('A' for Active; 'I' for Inactive)
REMARK    1  A    between atoms: C_1  and  C_2
REMARK    2  A    between atoms: C_6  and  C_9
REMARK    3  A    between atoms: C_10  and  C_13
REMARK    4  A    between atoms: C_13  and  C_14
REMARK    5  A    between atoms: N_16  and  C_17
REMARK                            x       y       z     vdW  Elec       q    Type
REMARK                         _______ _______ _______ _____ _____    ______ ____
ROOT
ATOM      1  C   UNL     1       0.077  -5.379   0.562  0.00  0.00    +0.135 C 
ENDROOT
BRANCH   1  11
ATOM      2  C   UNL     1       0.002   1.490  -0.028  0.00  0.00    +0.045 C 
ATOM      3  C   UNL     1       0.017  -0.017  -0.031  0.00  0.00    -0.028 A 
ATOM      4  C   UNL     1       0.011  -0.697  -1.230  0.00  0.00    +0.051 A 
ATOM      5  C   UNL     1       0.025  -2.085  -1.241  0.00  0.00    +0.136 A 
ATOM      6  C   UNL     1       0.045  -2.783  -0.021  0.00  0.00    +0.028 A 
ATOM      7  C   UNL     1       0.051  -2.084   1.185  0.00  0.00    -0.021 A 
ATOM      8  C   UNL     1       0.042  -0.706   1.174  0.00  0.00    +0.048 A 
ATOM      9 CL   UNL     1       0.057   0.171   2.672  0.00  0.00    -0.083 Cl
ATOM     10  C   UNL     1       0.072  -2.832   2.494  0.00  0.00    +0.046 C 
ATOM     11  C   UNL     1       0.055  -4.205  -0.383  0.00  0.00    +0.007 A 
ATOM     12  C   UNL     1       0.041  -4.250  -1.722  0.00  0.00    +0.200 A 
ATOM     13  O   UNL     1       0.023  -3.005  -2.227  0.00  0.00    -0.463 OA
ENDBRANCH   1  11
BRANCH   1  14
ATOM     14  C   UNL     1      -1.330  -5.707   0.988  0.00  0.00    +0.222 C 
ATOM     15  O   UNL     1      -2.260  -5.052   0.567  0.00  0.00    -0.275 OA
ATOM     16  N   UNL     1      -1.556  -6.728   1.838  0.00  0.00    -0.284 N 
ATOM     17  H   UNL     1      -0.821  -7.293   2.125  0.00  0.00    +0.155 HD
BRANCH  16  18
ATOM     18  C   UNL     1      -2.852  -6.974   2.308  0.00  0.00    +0.053 A 
ATOM     19  C   UNL     1      -3.946  -6.749   1.483  0.00  0.00    +0.046 A 
ATOM     20  C   UNL     1      -5.224  -6.992   1.950  0.00  0.00    +0.061 A 
ATOM     21  C   UNL     1      -5.414  -7.461   3.239  0.00  0.00    +0.061 A 
ATOM     22  C   UNL     1      -4.326  -7.687   4.063  0.00  0.00    +0.043 A 
ATOM     23  C   UNL     1      -3.046  -7.450   3.599  0.00  0.00    +0.064 A 
ATOM     24 CL   UNL     1      -1.680  -7.741   4.632  0.00  0.00    -0.082 Cl
ATOM     25 CL   UNL     1      -7.021  -7.766   3.822  0.00  0.00    -0.082 Cl
ATOM     26 CL   UNL     1      -6.592  -6.710   0.919  0.00  0.00    -0.082 Cl
ENDBRANCH  16  18
ENDBRANCH   1  14
TORSDOF 3
