REMARK  Name = ZINC57019484
REMARK  5 active torsions:
REMARK  status: ('A' for Active; 'I' for Inactive)
REMARK    1  A    between atoms: C_1  and  N_2
REMARK    2  A    between atoms: C_3  and  C_5
REMARK    3  A    between atoms: C_8  and  S_11
REMARK    4  A    between atoms: S_11  and  N_14
REMARK    5  A    between atoms: N_14  and  C_15
REMARK                            x       y       z     vdW  Elec       q    Type
REMARK                         _______ _______ _______ _____ _____    ______ ____
ROOT
ATOM      1  S   UNL     1      -1.074  -6.703  -0.023  0.00  0.00    +0.059 S 
ATOM      2  O   UNL     1      -2.317  -7.123  -0.570  0.00  0.00    -0.153 OA
ATOM      3  O   UNL     1       0.174  -7.089  -0.582  0.00  0.00    -0.153 OA
ENDROOT
BRANCH   1   7
ATOM      4  C   UNL     1      -1.136  -2.172   0.001  0.00  0.00    +0.037 A 
ATOM      5  C   UNL     1       0.081  -2.857  -0.008  0.00  0.00    +0.015 A 
ATOM      6  C   UNL     1       0.092  -4.236  -0.015  0.00  0.00    +0.029 A 
ATOM      7  C   UNL     1      -1.098  -4.941  -0.013  0.00  0.00    +0.105 A 
ATOM      8  C   UNL     1      -2.307  -4.269  -0.005  0.00  0.00    +0.029 A 
ATOM      9  C   UNL     1      -2.333  -2.889   0.009  0.00  0.00    +0.015 A 
BRANCH   4  12
ATOM     10  C   UNL     1      -0.018   1.461   0.010  0.00  0.00    +0.128 C 
ATOM     11  N   UNL     1       0.002  -0.004   0.002  0.00  0.00    -0.314 N 
ATOM     12  C   UNL     1      -1.156  -0.694   0.009  0.00  0.00    +0.244 C 
ATOM     13  O   UNL     1      -2.217  -0.100   0.023  0.00  0.00    -0.270 OA
ATOM     14  H   UNL     1       0.849  -0.478  -0.009  0.00  0.00    +0.149 HD
ENDBRANCH   4  12
ENDBRANCH   1   7
BRANCH   1  15
ATOM     15  N   UNL     1      -1.060  -7.201   1.556  0.00  0.00    -0.183 NA
ATOM     16  H   UNL     1      -0.291  -7.675   1.908  0.00  0.00    +0.149 HD
BRANCH  15  17
ATOM     17  C   UNL     1      -2.210  -6.926   2.421  0.00  0.00    +0.107 C 
ATOM     18  C   UNL     1      -1.742  -6.677   3.871  0.00  0.00    +0.030 C 
ATOM     19  C   UNL     1      -1.836  -8.085   4.496  0.00  0.00    +0.037 C 
ATOM     20  C   UNL     1      -2.897  -8.806   3.691  0.00  0.00    -0.040 A 
ATOM     21  C   UNL     1      -3.113  -8.138   2.497  0.00  0.00    -0.026 A 
ATOM     22  C   UNL     1      -4.047  -8.618   1.594  0.00  0.00    +0.008 A 
ATOM     23  C   UNL     1      -4.767  -9.762   1.880  0.00  0.00    +0.038 A 
ATOM     24  C   UNL     1      -4.554 -10.432   3.073  0.00  0.00    +0.124 A 
ATOM     25  C   UNL     1      -3.616  -9.952   3.979  0.00  0.00    +0.042 A 
ATOM     26  F   UNL     1      -5.256 -11.550   3.355  0.00  0.00    -0.205 F 
ENDBRANCH  15  17
ENDBRANCH   1  15
TORSDOF 4
