REMARK  Name = ZINC36197214
REMARK  7 active torsions:
REMARK  status: ('A' for Active; 'I' for Inactive)
REMARK    1  A    between atoms: C_1  and  C_2
REMARK    2  A    between atoms: C_4  and  C_7
REMARK    3  A    between atoms: C_7  and  N_8
REMARK    4  A    between atoms: N_8  and  C_9
REMARK    5  A    between atoms: N_8  and  S_10
REMARK    6  A    between atoms: S_10  and  C_13
REMARK    7  A    between atoms: C_14  and  N_21
REMARK                            x       y       z     vdW  Elec       q    Type
REMARK                         _______ _______ _______ _____ _____    ______ ____
ROOT
ATOM      1  S   UNL     1      -3.958  -2.906  -2.538  0.00  0.00    +0.064 S 
ATOM      2  O   UNL     1      -4.557  -3.604  -3.622  0.00  0.00    -0.153 OA
ATOM      3  O   UNL     1      -4.723  -2.295  -1.509  0.00  0.00    -0.153 OA
ENDROOT
BRANCH   1   4
ATOM      4  C   UNL     1      -2.962  -1.636  -3.247  0.00  0.00    +0.140 A 
ATOM      5  C   UNL     1      -2.704  -0.474  -2.531  0.00  0.00    +0.053 A 
ATOM      6  C   UNL     1      -1.919   0.525  -3.092  0.00  0.00    +0.040 A 
ATOM      7  C   UNL     1      -1.397   0.360  -4.361  0.00  0.00    +0.021 A 
ATOM      8  C   UNL     1      -1.656  -0.798  -5.072  0.00  0.00    +0.032 A 
ATOM      9  C   UNL     1      -2.433  -1.797  -4.513  0.00  0.00    +0.047 A 
ATOM     10 BR   UNL     1      -2.777  -3.382  -5.486  0.00  0.00    -0.048 Br
ATOM     11 BR   UNL     1      -0.328   1.719  -5.127  0.00  0.00    -0.050 Br
BRANCH   5  12
ATOM     12  N   UNL     1      -3.234  -0.310  -1.249  0.00  0.00    -0.356 N 
ATOM     13  H   UNL     1      -3.458  -1.087  -0.714  0.00  0.00    +0.142 HD
ATOM     14  H   UNL     1      -3.377   0.581  -0.894  0.00  0.00    +0.142 HD
ENDBRANCH   5  12
ENDBRANCH   1   4
BRANCH   1  15
ATOM     15  N   UNL     1      -2.933  -3.974  -1.796  0.00  0.00    -0.174 NA
ATOM     16  C   UNL     1      -2.508  -5.189  -2.496  0.00  0.00    +0.132 C 
BRANCH  15  17
ATOM     17  C   UNL     1      -2.451  -3.704  -0.439  0.00  0.00    +0.168 C 
BRANCH  17  21
ATOM     18  C   UNL     1       1.761  -0.848  -0.666  0.00  0.00    +0.089 C 
ATOM     19  C   UNL     1       0.831  -2.031  -0.592  0.00  0.00    +0.135 A 
ATOM     20  C   UNL     1      -0.514  -1.980  -0.561  0.00  0.00    +0.072 A 
ATOM     21  C   UNL     1      -1.001  -3.297  -0.492  0.00  0.00    +0.099 A 
ATOM     22  N   UNL     1       0.021  -4.106  -0.481  0.00  0.00    -0.082 NA
ATOM     23  O   UNL     1       1.198  -3.321  -0.549  0.00  0.00    -0.360 OA
ENDBRANCH  17  21
ENDBRANCH  15  17
ENDBRANCH   1  15
TORSDOF 5
