REMARK  Name = ZINC04151712
REMARK  16 active torsions:
REMARK  status: ('A' for Active; 'I' for Inactive)
REMARK    1  A    between atoms: C_1  and  C_2
REMARK    2  A    between atoms: C_2  and  C_3
REMARK    3  A    between atoms: C_2  and  C_4
REMARK    4  A    between atoms: C_4  and  C_6
REMARK    5  A    between atoms: C_4  and  N_10
REMARK    6  A    between atoms: C_6  and  O_8
REMARK    7  A    between atoms: O_8  and  C_9
REMARK    8  A    between atoms: C_11  and  C_13
REMARK    9  A    between atoms: C_16  and  N_32
REMARK   10  A    between atoms: N_20  and  S_21
REMARK   11  A    between atoms: S_21  and  C_24
REMARK   12  A    between atoms: C_27  and  O_30
REMARK   13  A    between atoms: O_30  and  C_31
REMARK   14  A    between atoms: C_33  and  C_35
REMARK   15  A    between atoms: C_35  and  S_36
REMARK   16  A    between atoms: S_36  and  C_37
REMARK                            x       y       z     vdW  Elec       q    Type
REMARK                         _______ _______ _______ _____ _____    ______ ____
ROOT
ATOM      1  C   UNL     1      -1.059   2.724   7.007  0.00  0.00    +0.167 C 
ATOM      2  C   UNL     1      -0.996   1.765   5.813  0.00  0.00    +0.052 C 
ATOM      3  C   UNL     1      -2.388   1.638   5.192  0.00  0.00    +0.076 C 
ATOM      4  C   UNL     1      -3.359   1.060   6.224  0.00  0.00    +0.039 C 
ATOM      5  C   UNL     1      -3.449   2.010   7.422  0.00  0.00    +0.112 C 
ATOM      6  N   UNL     1      -2.094   2.253   7.937  0.00  0.00    -0.165 NA
ENDROOT
BRANCH   1   8
ATOM      7  N   UNL     1      -0.445   4.903   6.011  0.00  0.00    -0.301 N 
ATOM      8  C   UNL     1      -1.405   4.109   6.525  0.00  0.00    +0.233 C 
ATOM      9  O   UNL     1      -2.548   4.509   6.599  0.00  0.00    -0.274 OA
ATOM     10  H   UNL     1       0.451   4.557   5.879  0.00  0.00    +0.150 HD
BRANCH   7  11
ATOM     11  C   UNL     1      -0.756   6.288   5.651  0.00  0.00    +0.184 C 
BRANCH  11  13
ATOM     12  C   UNL     1      -2.162   5.380   3.796  0.00  0.00    +0.009 C 
ATOM     13  C   UNL     1      -1.052   6.372   4.152  0.00  0.00    +0.014 C 
ATOM     14  C   UNL     1      -1.504   7.790   3.799  0.00  0.00    +0.009 C 
ENDBRANCH  11  13
BRANCH  11  15
ATOM     15  C   UNL     1       0.422   7.169   5.979  0.00  0.00    +0.328 C 
ATOM     16  O   UNL     1       1.419   6.689   6.465  0.00  0.00    -0.249 OA
BRANCH  15  17
ATOM     17  O   UNL     1       0.363   8.488   5.733  0.00  0.00    -0.467 OA
ATOM     18  C   UNL     1       1.535   9.274   6.075  0.00  0.00    +0.280 C 
ENDBRANCH  15  17
ENDBRANCH  11  15
ENDBRANCH   7  11
ENDBRANCH   1   8
BRANCH   3  19
ATOM     19  N   UNL     1      -2.325   0.748   4.030  0.00  0.00    -0.312 N 
ATOM     20  C   UNL     1      -3.238   0.860   3.045  0.00  0.00    +0.223 C 
ATOM     21  O   UNL     1      -4.112   1.697   3.120  0.00  0.00    -0.275 OA
ATOM     22  H   UNL     1      -1.626   0.079   3.969  0.00  0.00    +0.149 HD
BRANCH  20  23
ATOM     23  C   UNL     1      -3.173  -0.056   1.849  0.00  0.00    +0.164 C 
BRANCH  23  24
ATOM     24  S   UNL     1      -4.527   0.341   0.710  0.00  0.00    -0.155 S 
ATOM     25  C   UNL     1      -4.309  -0.834  -0.656  0.00  0.00    +0.085 C 
ENDBRANCH  23  24
ENDBRANCH  20  23
ENDBRANCH   3  19
BRANCH   6  26
ATOM     26  S   UNL     1      -1.741   2.000   9.535  0.00  0.00    +0.062 S 
ATOM     27  O   UNL     1      -2.695   1.065  10.019  0.00  0.00    -0.153 OA
ATOM     28  O   UNL     1      -0.341   1.768   9.610  0.00  0.00    -0.153 OA
BRANCH  26  29
ATOM     29  C   UNL     1      -2.046   3.515  10.382  0.00  0.00    +0.106 A 
ATOM     30  C   UNL     1      -1.032   4.444  10.521  0.00  0.00    +0.032 A 
ATOM     31  C   UNL     1      -1.270   5.635  11.180  0.00  0.00    +0.047 A 
ATOM     32  C   UNL     1      -2.525   5.893  11.711  0.00  0.00    +0.120 A 
ATOM     33  C   UNL     1      -3.539   4.957  11.575  0.00  0.00    +0.047 A 
ATOM     34  C   UNL     1      -3.298   3.770  10.910  0.00  0.00    +0.032 A 
BRANCH  32  35
ATOM     35  O   UNL     1      -2.760   7.061  12.365  0.00  0.00    -0.495 OA
ATOM     36  C   UNL     1      -1.669   7.978  12.468  0.00  0.00    +0.277 C 
ENDBRANCH  32  35
ENDBRANCH  26  29
ENDBRANCH   6  26
TORSDOF 11
