REMARK  Name = ZINC39880215
REMARK  7 active torsions:
REMARK  status: ('A' for Active; 'I' for Inactive)
REMARK    1  A    between atoms: C_1  and  C_2
REMARK    2  A    between atoms: N_15  and  C_29
REMARK    3  A    between atoms: C_16  and  C_18
REMARK    4  A    between atoms: C_21  and  O_24
REMARK    5  A    between atoms: O_24  and  C_25
REMARK    6  A    between atoms: C_25  and  C_26
REMARK    7  A    between atoms: C_32  and  C_36
REMARK                            x       y       z     vdW  Elec       q    Type
REMARK                         _______ _______ _______ _____ _____    ______ ____
ROOT
ATOM      1  C   UNL     1      -0.018   1.503   0.010  0.00  0.00    +0.044 C 
ATOM      2  C   UNL     1       0.002  -0.004   0.002  0.00  0.00    -0.050 A 
ATOM      3  C   UNL     1       0.006  -0.689  -1.205  0.00  0.00    +0.007 A 
ATOM      4  C   UNL     1       0.022  -2.065  -1.235  0.00  0.00    +0.047 A 
ATOM      5  C   UNL     1       0.035  -2.790  -0.043  0.00  0.00    +0.139 A 
ATOM      6  C   UNL     1       0.037  -2.086   1.172  0.00  0.00    +0.065 A 
ATOM      7  C   UNL     1       0.023  -0.692   1.183  0.00  0.00    +0.018 A 
ATOM      8  C   UNL     1       0.067  -2.849   2.446  0.00  0.00    +0.199 A 
ATOM      9  O   UNL     1      -0.098  -2.332   3.537  0.00  0.00    -0.287 OA
ATOM     10  C   UNL     1       0.314  -4.283   2.265  0.00  0.00    +0.072 A 
ATOM     11  C   UNL     1       0.294  -4.850   1.023  0.00  0.00    +0.199 A 
ATOM     12  O   UNL     1       0.044  -4.142  -0.096  0.00  0.00    -0.450 OA
ATOM     13  C   UNL     1       0.583  -6.287   1.166  0.00  0.00    +0.287 C 
ATOM     14  O   UNL     1       0.644  -7.080   0.247  0.00  0.00    -0.266 OA
ATOM     15  N   UNL     1       0.770  -6.595   2.466  0.00  0.00    -0.253 N 
ATOM     16  C   UNL     1       0.614  -5.362   3.254  0.00  0.00    +0.150 C 
ENDROOT
BRANCH  15  17
ATOM     17  C   UNL     1       1.062  -7.864   2.975  0.00  0.00    +0.039 A 
ATOM     18  C   UNL     1       1.225  -8.044   4.343  0.00  0.00    +0.024 A 
ATOM     19  C   UNL     1       1.512  -9.298   4.844  0.00  0.00    +0.006 A 
ATOM     20  C   UNL     1       1.639 -10.375   3.986  0.00  0.00    -0.032 A 
ATOM     21  C   UNL     1       1.477 -10.200   2.623  0.00  0.00    +0.046 A 
ATOM     22  C   UNL     1       1.183  -8.948   2.116  0.00  0.00    +0.043 A 
ATOM     23 CL   UNL     1       1.636 -11.555   1.549  0.00  0.00    -0.083 Cl
ATOM     24  C   UNL     1       1.953 -11.742   4.536  0.00  0.00    +0.045 C 
ENDBRANCH  15  17
BRANCH  16  25
ATOM     25  C   UNL     1      -0.528  -5.508   4.226  0.00  0.00    -0.022 A 
ATOM     26  C   UNL     1      -1.669  -6.194   3.853  0.00  0.00    +0.009 A 
ATOM     27  C   UNL     1      -2.717  -6.329   4.743  0.00  0.00    +0.046 A 
ATOM     28  C   UNL     1      -2.624  -5.776   6.012  0.00  0.00    +0.121 A 
ATOM     29  C   UNL     1      -1.479  -5.088   6.384  0.00  0.00    +0.046 A 
ATOM     30  C   UNL     1      -0.431  -4.960   5.492  0.00  0.00    +0.009 A 
BRANCH  28  31
ATOM     31  O   UNL     1      -3.655  -5.907   6.888  0.00  0.00    -0.483 OA
BRANCH  31  32
ATOM     32  C   UNL     1      -3.489  -5.311   8.177  0.00  0.00    +0.324 C 
BRANCH  32  33
ATOM     33  C   UNL     1      -4.723  -5.557   9.006  0.00  0.00    +0.248 C 
ATOM     34  O   UNL     1      -5.653  -6.181   8.539  0.00  0.00    -0.272 OA
ATOM     35  N   UNL     1      -4.794  -5.084  10.266  0.00  0.00    -0.327 N 
ATOM     36  H   UNL     1      -4.051  -4.585  10.639  0.00  0.00    +0.145 HD
ATOM     37  H   UNL     1      -5.589  -5.242  10.800  0.00  0.00    +0.145 HD
ENDBRANCH  32  33
ENDBRANCH  31  32
ENDBRANCH  28  31
ENDBRANCH  16  25
TORSDOF 5
