REMARK  Name = ZINC24821816
REMARK  4 active torsions:
REMARK  status: ('A' for Active; 'I' for Inactive)
REMARK    1  A    between atoms: C_3  and  C_6
REMARK    2  A    between atoms: C_8  and  C_11
REMARK    3  A    between atoms: C_11  and  N_12
REMARK    4  A    between atoms: C_16  and  C_18
REMARK                            x       y       z     vdW  Elec       q    Type
REMARK                         _______ _______ _______ _____ _____    ______ ____
ROOT
ATOM      1  N   UNL     1       7.781   1.132   1.303  0.00  0.00    +0.388 N 
ATOM      2  C   UNL     1       7.038  -0.025   1.846  0.00  0.00    -0.077 C 
ATOM      3  C   UNL     1       7.962  -1.242   1.594  0.00  0.00    -0.020 C 
ATOM      4  C   UNL     1       9.364  -0.629   1.847  0.00  0.00    -0.013 C 
ATOM      5  C   UNL     1       9.220   0.807   1.301  0.00  0.00    -0.037 C 
ATOM      6  H   UNL     1       7.617   1.941   1.883  0.00  0.00    -0.080 HD
ENDROOT
BRANCH   5   7
ATOM      7  C   UNL     1       9.964   1.771   2.188  0.00  0.00    -0.057 A 
ATOM      8  C   UNL     1       9.414   2.164   3.394  0.00  0.00    +0.006 A 
ATOM      9  C   UNL     1      10.093   3.049   4.210  0.00  0.00    +0.049 A 
ATOM     10  C   UNL     1      11.329   3.544   3.822  0.00  0.00    +0.162 A 
ATOM     11  C   UNL     1      11.883   3.147   2.611  0.00  0.00    +0.162 A 
ATOM     12  C   UNL     1      11.198   2.255   1.798  0.00  0.00    +0.051 A 
ATOM     13  O   UNL     1      13.098   3.614   2.214  0.00  0.00    -0.485 OA
ATOM     14  C   UNL     1      13.586   4.785   2.879  0.00  0.00    +0.270 C 
ATOM     15  C   UNL     1      13.383   4.599   4.389  0.00  0.00    +0.270 C 
ATOM     16  O   UNL     1      11.984   4.418   4.634  0.00  0.00    -0.485 OA
ENDBRANCH   5   7
BRANCH   1  17
ATOM     17  C   UNL     1       7.335   1.407  -0.069  0.00  0.00    -0.018 C 
BRANCH  17  20
ATOM     18  C   UNL     1       3.739   1.809  -0.024  0.00  0.00    +0.234 A 
ATOM     19  N   UNL     1       4.819   1.058  -0.044  0.00  0.00    -0.216 NA
ATOM     20  C   UNL     1       5.897   1.857  -0.049  0.00  0.00    +0.064 A 
ATOM     21  C   UNL     1       5.467   3.131  -0.032  0.00  0.00    +0.219 A 
ATOM     22  O   UNL     1       4.118   3.100  -0.022  0.00  0.00    -0.443 OA
BRANCH  18  25
ATOM     23  C   UNL     1      -0.016   1.355   0.009  0.00  0.00    +0.008 A 
ATOM     24  C   UNL     1       1.174   2.044   0.002  0.00  0.00    +0.021 A 
ATOM     25  C   UNL     1       2.353   1.321  -0.013  0.00  0.00    +0.074 A 
ATOM     26  S   UNL     1       1.751  -0.360  -0.017  0.00  0.00    -0.092 S 
ATOM     27  C   UNL     1       0.002  -0.004   0.002  0.00  0.00    +0.046 A 
ENDBRANCH  18  25
ENDBRANCH  17  20
ENDBRANCH   1  17
TORSDOF 4
