REMARK  Name = ZINC09541848
REMARK  8 active torsions:
REMARK  status: ('A' for Active; 'I' for Inactive)
REMARK    1  A    between atoms: C_1  and  C_2
REMARK    2  A    between atoms: C_2  and  O_3
REMARK    3  A    between atoms: O_3  and  C_4
REMARK    4  A    between atoms: C_8  and  C_11
REMARK    5  A    between atoms: C_9  and  O_10
REMARK    6  A    between atoms: C_14  and  C_25
REMARK    7  A    between atoms: C_16  and  C_18
REMARK    8  A    between atoms: C_21  and  C_24
REMARK                            x       y       z     vdW  Elec       q    Type
REMARK                         _______ _______ _______ _____ _____    ______ ____
ROOT
ATOM      1  C   UNL     1      -0.013   1.086   0.008  0.00  0.00    -0.028 C 
ATOM      2  C   UNL     1      -0.725   1.600  -1.247  0.00  0.00    +0.044 C 
ATOM      3  C   UNL     1       0.154   1.382  -2.447  0.00  0.00    +0.040 C 
ATOM      4  N   UNL     1       1.404   1.122  -2.360  0.00  0.00    -0.299 NA
ATOM      5  C   UNL     1       2.127   0.994  -1.101  0.00  0.00    +0.081 C 
ATOM      6  N   UNL     1       1.369   1.605   0.001  0.00  0.00    +0.401 N 
ATOM      7  H   UNL     1       1.823   1.378   0.893  0.00  0.00    -0.081 HD
ATOM      8  H   UNL     1       1.349   2.624  -0.124  0.00  0.00    -0.081 HD
ENDROOT
BRANCH   5   9
ATOM      9  C   UNL     1       2.349  -0.467  -0.802  0.00  0.00    -0.040 A 
ATOM     10  C   UNL     1       2.454  -0.896   0.507  0.00  0.00    +0.004 A 
ATOM     11  C   UNL     1       2.653  -2.236   0.781  0.00  0.00    +0.003 A 
ATOM     12  C   UNL     1       2.758  -3.146  -0.255  0.00  0.00    -0.050 A 
ATOM     13  C   UNL     1       2.659  -2.715  -1.565  0.00  0.00    +0.003 A 
ATOM     14  C   UNL     1       2.455  -1.376  -1.839  0.00  0.00    +0.004 A 
ATOM     15  C   UNL     1       2.980  -4.606   0.044  0.00  0.00    +0.044 C 
ENDBRANCH   5   9
BRANCH   3  16
ATOM     16  C   UNL     1      -0.454   1.473  -3.789  0.00  0.00    -0.003 A 
ATOM     17  C   UNL     1      -1.816   1.749  -3.925  0.00  0.00    +0.010 A 
ATOM     18  C   UNL     1      -2.377   1.837  -5.183  0.00  0.00    +0.002 A 
ATOM     19  C   UNL     1      -1.595   1.642  -6.308  0.00  0.00    +0.015 A 
ATOM     20  C   UNL     1      -0.245   1.362  -6.180  0.00  0.00    +0.018 A 
ATOM     21  C   UNL     1       0.330   1.276  -4.928  0.00  0.00    +0.025 A 
ATOM     22 BR   UNL     1       0.813   1.097  -7.725  0.00  0.00    -0.050 Br
ENDBRANCH   3  16
BRANCH   1  27
ATOM     23  C   UNL     1      -2.470   1.326   2.878  0.00  0.00    +0.162 A 
ATOM     24  C   UNL     1      -2.045   2.488   3.502  0.00  0.00    +0.049 A 
ATOM     25  C   UNL     1      -0.968   3.191   2.995  0.00  0.00    +0.004 A 
ATOM     26  C   UNL     1      -0.308   2.733   1.869  0.00  0.00    +0.006 A 
ATOM     27  C   UNL     1      -0.730   1.578   1.238  0.00  0.00    -0.016 A 
ATOM     28  C   UNL     1      -1.809   0.869   1.741  0.00  0.00    +0.160 A 
BRANCH  28  29
ATOM     29  O   UNL     1      -2.222  -0.272   1.126  0.00  0.00    -0.503 OA
ATOM     30  H   UNL     1      -1.794  -1.074   1.456  0.00  0.00    +0.292 HD
ENDBRANCH  28  29
BRANCH  23  31
ATOM     31  O   UNL     1      -3.530   0.633   3.375  0.00  0.00    -0.489 OA
BRANCH  31  33
ATOM     32  C   UNL     1      -5.321   0.255   4.951  0.00  0.00    +0.048 C 
ATOM     33  C   UNL     1      -4.159   1.162   4.544  0.00  0.00    +0.226 C 
ENDBRANCH  31  33
ENDBRANCH  23  31
ENDBRANCH   1  27
TORSDOF 6
