REMARK  Name = ZINC67440491
REMARK  9 active torsions:
REMARK  status: ('A' for Active; 'I' for Inactive)
REMARK    1  A    between atoms: C_1  and  C_2
REMARK    2  A    between atoms: C_2  and  C_3
REMARK    3  A    between atoms: C_2  and  O_4
REMARK    4  A    between atoms: O_4  and  C_5
REMARK    5  A    between atoms: C_8  and  N_11
REMARK    6  A    between atoms: C_12  and  C_14
REMARK    7  A    between atoms: N_16  and  C_17
REMARK    8  A    between atoms: C_17  and  C_18
REMARK    9  A    between atoms: C_23  and  N_24
REMARK                            x       y       z     vdW  Elec       q    Type
REMARK                         _______ _______ _______ _____ _____    ______ ____
ROOT
ATOM      1  C   UNL     1      -4.127  -6.722  -3.730  0.00  0.00    +0.300 C 
ATOM      2  O   UNL     1      -3.235  -7.358  -4.252  0.00  0.00    -0.265 OA
ATOM      3  N   UNL     1      -5.410  -7.095  -3.903  0.00  0.00    -0.303 N 
ATOM      4  H   UNL     1      -6.124  -6.587  -3.486  0.00  0.00    +0.149 HD
ENDROOT
BRANCH   1   6
ATOM      5  N   UNL     1      -2.519  -5.154  -2.724  0.00  0.00    -0.278 N 
ATOM      6  C   UNL     1      -3.803  -5.527  -2.897  0.00  0.00    +0.303 C 
ATOM      7  O   UNL     1      -4.695  -4.891  -2.375  0.00  0.00    -0.265 OA
ATOM      8  H   UNL     1      -1.803  -5.701  -3.082  0.00  0.00    +0.155 HD
BRANCH   5  12
ATOM      9  C   UNL     1      -1.628  -1.651  -0.649  0.00  0.00    +0.121 A 
ATOM     10  C   UNL     1      -2.701  -2.437  -0.254  0.00  0.00    +0.047 A 
ATOM     11  C   UNL     1      -2.997  -3.597  -0.941  0.00  0.00    +0.027 A 
ATOM     12  C   UNL     1      -2.220  -3.978  -2.028  0.00  0.00    +0.034 A 
ATOM     13  C   UNL     1      -1.146  -3.191  -2.422  0.00  0.00    +0.027 A 
ATOM     14  C   UNL     1      -0.854  -2.028  -1.737  0.00  0.00    +0.047 A 
BRANCH   9  15
ATOM     15  O   UNL     1      -1.337  -0.508   0.028  0.00  0.00    -0.489 OA
BRANCH  15  17
ATOM     16  C   UNL     1      -0.509   1.761  -0.053  0.00  0.00    +0.051 C 
ATOM     17  C   UNL     1      -0.297   0.315  -0.505  0.00  0.00    +0.167 C 
ATOM     18  C   UNL     1       1.058  -0.184   0.002  0.00  0.00    +0.051 C 
ENDBRANCH  15  17
ENDBRANCH   9  15
ENDBRANCH   5  12
ENDBRANCH   1   6
BRANCH   3  19
ATOM     19  C   UNL     1      -5.729  -8.268  -4.721  0.00  0.00    +0.141 C 
BRANCH  19  20
ATOM     20  C   UNL     1      -7.222  -8.468  -4.754  0.00  0.00    -0.009 A 
ATOM     21  C   UNL     1      -7.812  -9.407  -3.931  0.00  0.00    +0.007 A 
ATOM     22  C   UNL     1      -9.182  -9.591  -3.961  0.00  0.00    +0.000 A 
ATOM     23  C   UNL     1      -9.966  -8.835  -4.814  0.00  0.00    +0.002 A 
ATOM     24  C   UNL     1      -9.383  -7.894  -5.639  0.00  0.00    +0.023 A 
ATOM     25  C   UNL     1      -8.007  -7.704  -5.607  0.00  0.00    +0.034 A 
BRANCH  25  26
ATOM     26  N   UNL     1      -7.414  -6.749  -6.437  0.00  0.00    -0.330 N 
ATOM     27  C   UNL     1      -6.927  -6.985  -7.804  0.00  0.00    +0.105 C 
ATOM     28  C   UNL     1      -6.331  -5.656  -8.314  0.00  0.00    +0.020 C 
ATOM     29  C   UNL     1      -6.004  -4.895  -7.002  0.00  0.00    +0.020 C 
ATOM     30  C   UNL     1      -7.178  -5.336  -6.089  0.00  0.00    +0.105 C 
ENDBRANCH  25  26
ENDBRANCH  19  20
ENDBRANCH   3  19
TORSDOF 7
