REMARK  Name = ZINC63234346
REMARK  7 active torsions:
REMARK  status: ('A' for Active; 'I' for Inactive)
REMARK    1  A    between atoms: C_7  and  C_10
REMARK    2  A    between atoms: C_10  and  C_12
REMARK    3  A    between atoms: C_10  and  C_25
REMARK    4  A    between atoms: C_12  and  N_13
REMARK    5  A    between atoms: C_14  and  C_16
REMARK    6  A    between atoms: C_16  and  S_17
REMARK    7  A    between atoms: S_17  and  C_18
REMARK                            x       y       z     vdW  Elec       q    Type
REMARK                         _______ _______ _______ _____ _____    ______ ____
ROOT
ATOM      1  C   UNL     1       0.691  -3.186  -0.024  0.00  0.00    +0.066 C 
ENDROOT
BRANCH   1   8
ATOM      2  C   UNL     1      -0.016   1.348   0.009  0.00  0.00    +0.001 A 
ATOM      3  C   UNL     1       1.166   2.101   0.002  0.00  0.00    +0.002 A 
ATOM      4  C   UNL     1       2.391   1.535  -0.013  0.00  0.00    +0.026 A 
ATOM      5  C   UNL     1       2.529   0.120  -0.022  0.00  0.00    +0.043 A 
ATOM      6  N   UNL     1       3.587  -0.654  -0.037  0.00  0.00    -0.380 N 
ATOM      7  C   UNL     1       3.143  -2.053  -0.041  0.00  0.00    +0.145 C 
ATOM      8  C   UNL     1       1.631  -2.008  -0.025  0.00  0.00    -0.033 C 
ATOM      9  C   UNL     1       1.295  -0.698  -0.014  0.00  0.00    -0.000 A 
ATOM     10  C   UNL     1       0.002  -0.004   0.002  0.00  0.00    +0.010 A 
ATOM     11  H   UNL     1       4.509  -0.353  -0.045  0.00  0.00    +0.160 HD
ENDBRANCH   1   8
BRANCH   1  12
ATOM     12  C   UNL     1       0.944  -4.029   1.199  0.00  0.00    -0.020 A 
ATOM     13  C   UNL     1       2.190  -4.591   1.405  0.00  0.00    +0.007 A 
ATOM     14  C   UNL     1       2.422  -5.365   2.526  0.00  0.00    +0.020 A 
ATOM     15  C   UNL     1       1.408  -5.577   3.443  0.00  0.00    +0.042 A 
ATOM     16  C   UNL     1       0.161  -5.015   3.238  0.00  0.00    +0.040 A 
ATOM     17  C   UNL     1      -0.070  -4.236   2.118  0.00  0.00    +0.046 A 
ATOM     18 CL   UNL     1      -1.632  -3.525   1.862  0.00  0.00    -0.083 Cl
ATOM     19 CL   UNL     1       1.701  -6.550   4.851  0.00  0.00    -0.083 Cl
ENDBRANCH   1  12
BRANCH   1  20
ATOM     20  C   UNL     1       0.923  -4.026  -1.281  0.00  0.00    +0.116 C 
BRANCH  20  21
ATOM     21  N   UNL     1      -0.070  -5.102  -1.340  0.00  0.00    -0.314 N 
ATOM     22  C   UNL     1      -0.058  -5.974  -2.367  0.00  0.00    +0.223 C 
ATOM     23  O   UNL     1       0.774  -5.869  -3.243  0.00  0.00    -0.275 OA
ATOM     24  H   UNL     1      -0.735  -5.186  -0.639  0.00  0.00    +0.149 HD
BRANCH  22  25
ATOM     25  C   UNL     1      -1.080  -7.080  -2.428  0.00  0.00    +0.173 C 
BRANCH  25  26
ATOM     26  S   UNL     1      -0.803  -8.077  -3.918  0.00  0.00    -0.075 S 
BRANCH  26  27
ATOM     27  C   UNL     1      -2.060  -9.311  -3.845  0.00  0.00    +0.210 A 
ATOM     28  N   UNL     1      -2.247 -10.285  -4.742  0.00  0.00    -0.188 NA
ATOM     29  C   UNL     1      -3.270 -11.029  -4.382  0.00  0.00    +0.209 A 
ATOM     30  N   UNL     1      -3.761 -10.531  -3.227  0.00  0.00    -0.246 N 
ATOM     31  H   UNL     1      -4.516 -10.873  -2.723  0.00  0.00    +0.192 HD
ATOM     32  N   UNL     1      -2.960  -9.426  -2.898  0.00  0.00    -0.144 NA
ATOM     33  N   UNL     1      -3.758 -12.127  -5.066  0.00  0.00    -0.328 N 
ATOM     34  H   UNL     1      -3.337 -12.410  -5.893  0.00  0.00    +0.145 HD
ATOM     35  H   UNL     1      -4.522 -12.614  -4.720  0.00  0.00    +0.145 HD
ENDBRANCH  26  27
ENDBRANCH  25  26
ENDBRANCH  22  25
ENDBRANCH  20  21
ENDBRANCH   1  20
TORSDOF 7
