REMARK  Name = ZINC65241555
REMARK  7 active torsions:
REMARK  status: ('A' for Active; 'I' for Inactive)
REMARK    1  A    between atoms: C_1  and  C_2
REMARK    2  A    between atoms: C_2  and  N_3
REMARK    3  A    between atoms: C_14  and  S_19
REMARK    4  A    between atoms: S_19  and  N_22
REMARK    5  A    between atoms: N_22  and  C_23
REMARK    6  A    between atoms: C_25  and  C_30
REMARK    7  A    between atoms: C_28  and  C_29
REMARK                            x       y       z     vdW  Elec       q    Type
REMARK                         _______ _______ _______ _____ _____    ______ ____
ROOT
ATOM      1  N   UNL     1       0.628  -0.865  -0.940  0.00  0.00    -0.249 N 
ATOM      2  C   UNL     1      -0.189  -1.134  -2.031  0.00  0.00    +0.171 A 
ATOM      3  C   UNL     1       0.185  -0.773  -3.322  0.00  0.00    +0.169 A 
ATOM      4  C   UNL     1      -0.683  -1.024  -4.377  0.00  0.00    +0.051 A 
ATOM      5  C   UNL     1      -1.892  -1.651  -4.107  0.00  0.00    +0.023 A 
ATOM      6  C   UNL     1      -2.190  -2.003  -2.807  0.00  0.00    +0.113 A 
ATOM      7  N   UNL     1      -1.351  -1.742  -1.824  0.00  0.00    -0.236 NA
ATOM      8  O   UNL     1       1.393  -0.217  -3.580  0.00  0.00    -0.452 OA
ATOM      9  C   UNL     1       2.502  -0.952  -3.333  0.00  0.00    +0.141 A 
ATOM     10  C   UNL     1       3.354  -1.286  -4.376  0.00  0.00    +0.049 A 
ATOM     11  C   UNL     1       4.471  -2.061  -4.137  0.00  0.00    +0.032 A 
ATOM     12  C   UNL     1       4.750  -2.511  -2.857  0.00  0.00    +0.109 A 
ATOM     13  C   UNL     1       3.920  -2.177  -1.808  0.00  0.00    +0.045 A 
ATOM     14  C   UNL     1       2.793  -1.382  -2.034  0.00  0.00    +0.081 A 
ATOM     15  C   UNL     1       1.949  -0.969  -0.905  0.00  0.00    +0.256 C 
ATOM     16  O   UNL     1       2.504  -0.707   0.144  0.00  0.00    -0.269 OA
ENDROOT
BRANCH  12  17
ATOM     17  S   UNL     1       6.169  -3.514  -2.568  0.00  0.00    +0.072 S 
ATOM     18  O   UNL     1       5.908  -4.256  -1.385  0.00  0.00    -0.150 OA
ATOM     19  O   UNL     1       6.484  -4.138  -3.805  0.00  0.00    -0.150 OA
BRANCH  17  20
ATOM     20  N   UNL     1       7.426  -2.494  -2.219  0.00  0.00    -0.216 N 
ATOM     21  H   UNL     1       8.215  -2.486  -2.784  0.00  0.00    +0.174 HD
BRANCH  20  22
ATOM     22  C   UNL     1       7.351  -1.645  -1.113  0.00  0.00    +0.051 A 
ATOM     23  C   UNL     1       6.716  -2.069   0.048  0.00  0.00    +0.028 A 
ATOM     24  C   UNL     1       6.644  -1.228   1.141  0.00  0.00    -0.049 A 
ATOM     25  C   UNL     1       7.202   0.036   1.080  0.00  0.00    +0.004 A 
ATOM     26  C   UNL     1       7.834   0.462  -0.073  0.00  0.00    +0.005 A 
ATOM     27  C   UNL     1       7.915  -0.377  -1.168  0.00  0.00    -0.028 A 
ATOM     28  C   UNL     1       8.610   0.085  -2.423  0.00  0.00    +0.046 C 
ATOM     29  C   UNL     1       5.956  -1.688   2.400  0.00  0.00    +0.044 C 
ENDBRANCH  20  22
ENDBRANCH  17  20
ENDBRANCH  12  17
BRANCH   1  31
ATOM     30  C   UNL     1      -0.146   1.106   0.283  0.00  0.00    +0.025 C 
ATOM     31  C   UNL     1      -0.034  -0.420   0.288  0.00  0.00    +0.112 C 
ENDBRANCH   1  31
TORSDOF 4
