REMARK  Name = ZINC00689309
REMARK  10 active torsions:
REMARK  status: ('A' for Active; 'I' for Inactive)
REMARK    1  A    between atoms: C_1  and  C_2
REMARK    2  A    between atoms: C_2  and  C_3
REMARK    3  A    between atoms: C_2  and  C_4
REMARK    4  A    between atoms: C_2  and  C_5
REMARK    5  A    between atoms: C_12  and  N_32
REMARK    6  A    between atoms: C_13  and  C_30
REMARK    7  A    between atoms: C_14  and  C_16
REMARK    8  A    between atoms: C_21  and  O_22
REMARK    9  A    between atoms: O_22  and  C_23
REMARK   10  A    between atoms: C_23  and  C_24
REMARK                            x       y       z     vdW  Elec       q    Type
REMARK                         _______ _______ _______ _____ _____    ______ ____
ROOT
ATOM      1  C   UNL     1       0.762  -0.456  -2.017  0.00  0.00    +0.049 A 
ATOM      2  C   UNL     1       0.852  -1.745  -2.376  0.00  0.00    +0.050 A 
ATOM      3  C   UNL     1       1.556  -1.812  -3.599  0.00  0.00    +0.245 A 
ATOM      4  N   UNL     1       1.868  -0.598  -3.950  0.00  0.00    -0.135 NA
ATOM      5  N   UNL     1       1.375   0.281  -2.973  0.00  0.00    -0.277 N 
ATOM      6  H   UNL     1       1.462   1.247  -2.979  0.00  0.00    +0.189 HD
ATOM      7  O   UNL     1       1.812  -2.994  -4.220  0.00  0.00    -0.421 OA
ATOM      8  C   UNL     1       1.617  -4.123  -3.510  0.00  0.00    +0.201 C 
ATOM      9  C   UNL     1       0.951  -4.184  -2.338  0.00  0.00    +0.098 C 
ATOM     10  C   UNL     1       0.335  -2.977  -1.678  0.00  0.00    +0.105 C 
ENDROOT
BRANCH  10  11
ATOM     11  C   UNL     1      -1.165  -3.040  -1.804  0.00  0.00    +0.007 A 
ATOM     12  C   UNL     1      -1.762  -2.910  -3.043  0.00  0.00    +0.008 A 
ATOM     13  C   UNL     1      -3.138  -2.967  -3.159  0.00  0.00    +0.001 A 
ATOM     14  C   UNL     1      -3.922  -3.155  -2.035  0.00  0.00    +0.004 A 
ATOM     15  C   UNL     1      -3.330  -3.287  -0.793  0.00  0.00    +0.046 A 
ATOM     16  C   UNL     1      -1.949  -3.235  -0.675  0.00  0.00    +0.125 A 
BRANCH  16  17
ATOM     17  O   UNL     1      -1.364  -3.369   0.544  0.00  0.00    -0.487 OA
BRANCH  17  18
ATOM     18  C   UNL     1      -2.233  -3.567   1.661  0.00  0.00    +0.264 C 
BRANCH  18  19
ATOM     19  C   UNL     1      -1.412  -3.694   2.919  0.00  0.00    -0.010 A 
ATOM     20  C   UNL     1      -0.968  -4.936   3.332  0.00  0.00    +0.007 A 
ATOM     21  C   UNL     1      -0.215  -5.053   4.486  0.00  0.00    +0.000 A 
ATOM     22  C   UNL     1       0.093  -3.928   5.226  0.00  0.00    +0.000 A 
ATOM     23  C   UNL     1      -0.350  -2.685   4.813  0.00  0.00    +0.000 A 
ATOM     24  C   UNL     1      -1.099  -2.568   3.657  0.00  0.00    +0.007 A 
ENDBRANCH  18  19
ENDBRANCH  17  18
ENDBRANCH  16  17
ENDBRANCH  10  11
BRANCH   1  26
ATOM     25  C   UNL     1       0.349   1.581  -0.664  0.00  0.00    +0.017 C 
ATOM     26  C   UNL     1       0.092   0.077  -0.777  0.00  0.00    +0.004 C 
ATOM     27  C   UNL     1       0.660  -0.631   0.454  0.00  0.00    +0.017 C 
ATOM     28  C   UNL     1      -1.415  -0.177  -0.862  0.00  0.00    +0.017 C 
ENDBRANCH   1  26
BRANCH   8  29
ATOM     29  N   UNL     1       2.131  -5.292  -4.014  0.00  0.00    -0.328 N 
ATOM     30  H   UNL     1       2.615  -5.286  -4.855  0.00  0.00    +0.145 HD
ATOM     31  H   UNL     1       2.009  -6.123  -3.530  0.00  0.00    +0.145 HD
ENDBRANCH   8  29
BRANCH   9  32
ATOM     32  C   UNL     1       0.824  -5.455  -1.690  0.00  0.00    +0.101 C 
ATOM     33  N   UNL     1       0.724  -6.463  -1.176  0.00  0.00    -0.191 NA
ENDBRANCH   9  32
TORSDOF 7
