REMARK  Name = ZINC14959304
REMARK  13 active torsions:
REMARK  status: ('A' for Active; 'I' for Inactive)
REMARK    1  A    between atoms: C_1  and  C_2
REMARK    2  A    between atoms: C_2  and  C_4
REMARK    3  A    between atoms: C_2  and  N_8
REMARK    4  A    between atoms: C_14  and  C_18
REMARK    5  A    between atoms: C_18  and  C_20
REMARK    6  A    between atoms: C_18  and  N_24
REMARK    7  A    between atoms: C_20  and  C_21
REMARK    8  A    between atoms: C_21  and  C_22
REMARK    9  A    between atoms: C_21  and  C_23
REMARK   10  A    between atoms: C_25  and  C_27
REMARK   11  A    between atoms: C_27  and  N_28
REMARK   12  A    between atoms: N_28  and  C_29
REMARK   13  A    between atoms: N_28  and  C_30
REMARK                            x       y       z     vdW  Elec       q    Type
REMARK                         _______ _______ _______ _____ _____    ______ ____
ROOT
ATOM      1  N   UNL     1       0.560  -0.401  -1.298  0.00  0.00    +0.383 N 
ATOM      2  C   UNL     1       1.833   0.267  -1.455  0.00  0.00    -0.071 C 
ATOM      3  C   UNL     1       2.278   0.259  -2.928  0.00  0.00    +0.058 C 
ATOM      4  C   UNL     1       2.850  -1.121  -3.203  0.00  0.00    +0.132 A 
ATOM      5  N   UNL     1       4.065  -1.438  -3.528  0.00  0.00    -0.134 NA
ATOM      6  N   UNL     1       4.148  -2.718  -3.670  0.00  0.00    -0.132 NA
ATOM      7  C   UNL     1       2.980  -3.265  -3.439  0.00  0.00    +0.154 A 
ATOM      8  N   UNL     1       2.133  -2.263  -3.142  0.00  0.00    -0.315 N 
ATOM      9  C   UNL     1       0.697  -2.334  -2.812  0.00  0.00    +0.106 C 
ATOM     10  C   UNL     1       0.548  -1.844  -1.362  0.00  0.00    -0.056 C 
ATOM     11  H   UNL     1      -0.060  -0.054  -2.014  0.00  0.00    -0.081 HD
ENDROOT
BRANCH   1  13
ATOM     12  C   UNL     1       0.942  -0.460   1.121  0.00  0.00    -0.013 C 
ATOM     13  C   UNL     1       0.002  -0.004   0.002  0.00  0.00    -0.068 C 
BRANCH  13  14
ATOM     14  C   UNL     1      -0.147   1.518   0.050  0.00  0.00    -0.025 C 
ATOM     15  C   UNL     1      -1.246   1.999   1.012  0.00  0.00    +0.002 C 
ATOM     16  C   UNL     1      -1.609   3.049  -0.051  0.00  0.00    +0.000 C 
ATOM     17  C   UNL     1      -1.006   2.089  -1.091  0.00  0.00    +0.002 C 
ENDBRANCH  13  14
ENDBRANCH   1  13
BRANCH   7  18
ATOM     18  C   UNL     1       2.649  -4.734  -3.497  0.00  0.00    +0.141 C 
BRANCH  18  19
ATOM     19  N   UNL     1       3.694  -5.497  -2.811  0.00  0.00    -0.307 N 
ATOM     20  C   UNL     1       3.412  -6.707  -2.289  0.00  0.00    +0.197 C 
ATOM     21  O   UNL     1       2.293  -7.165  -2.388  0.00  0.00    -0.278 OA
ATOM     22  H   UNL     1       4.589  -5.131  -2.732  0.00  0.00    +0.149 HD
BRANCH  20  23
ATOM     23  C   UNL     1       4.488  -7.493  -1.583  0.00  0.00    +0.018 C 
BRANCH  23  24
ATOM     24  N   UNL     1       3.932  -8.768  -1.110  0.00  0.00    +0.382 N 
ATOM     25  C   UNL     1       5.006  -9.584  -0.528  0.00  0.00    -0.096 C 
ATOM     26  C   UNL     1       2.909  -8.507  -0.089  0.00  0.00    -0.096 C 
ATOM     27  H   UNL     1       3.516  -9.262  -1.885  0.00  0.00    -0.082 HD
ENDBRANCH  23  24
ENDBRANCH  20  23
ENDBRANCH  18  19
BRANCH  18  28
ATOM     28  C   UNL     1       2.566  -5.181  -4.957  0.00  0.00    +0.033 C 
BRANCH  28  29
ATOM     29  C   UNL     1       2.108  -6.640  -5.019  0.00  0.00    -0.015 C 
ATOM     30  C   UNL     1       0.680  -6.750  -4.481  0.00  0.00    +0.007 C 
ATOM     31  C   UNL     1       2.145  -7.125  -6.470  0.00  0.00    +0.007 C 
ENDBRANCH  28  29
ENDBRANCH  18  28
ENDBRANCH   7  18
TORSDOF 8
