REMARK  Name = ZINC05294761
REMARK  8 active torsions:
REMARK  status: ('A' for Active; 'I' for Inactive)
REMARK    1  A    between atoms: C_1  and  C_2
REMARK    2  A    between atoms: C_5  and  C_7
REMARK    3  A    between atoms: C_7  and  C_27
REMARK    4  A    between atoms: N_8  and  N_9
REMARK    5  A    between atoms: C_10  and  C_12
REMARK    6  A    between atoms: C_17  and  N_18
REMARK    7  A    between atoms: N_18  and  S_19
REMARK    8  A    between atoms: S_19  and  C_22
REMARK                            x       y       z     vdW  Elec       q    Type
REMARK                         _______ _______ _______ _____ _____    ______ ____
ROOT
ATOM      1  C   UNL     1      -0.021   0.190   0.273  0.00  0.00    +0.061 A 
ATOM      2  C   UNL     1       1.238  -0.396   0.429  0.00  0.00    +0.015 A 
ATOM      3  C   UNL     1       1.355  -1.767   0.491  0.00  0.00    +0.001 A 
ATOM      4  C   UNL     1       0.229  -2.571   0.400  0.00  0.00    +0.002 A 
ATOM      5  C   UNL     1      -1.021  -2.007   0.246  0.00  0.00    +0.025 A 
ATOM      6  C   UNL     1      -1.160  -0.626   0.186  0.00  0.00    +0.060 A 
ENDROOT
BRANCH   1   8
ATOM      7  N   UNL     1       0.941   2.437   0.296  0.00  0.00    -0.203 N 
ATOM      8  C   UNL     1      -0.154   1.657   0.206  0.00  0.00    +0.265 C 
ATOM      9  O   UNL     1      -1.251   2.163   0.066  0.00  0.00    -0.268 OA
ATOM     10  H   UNL     1       1.817   2.034   0.405  0.00  0.00    +0.178 HD
BRANCH   7  12
ATOM     11  C   UNL     1       1.873   4.584   0.319  0.00  0.00    +0.098 C 
ATOM     12  N   UNL     1       0.815   3.831   0.233  0.00  0.00    -0.181 NA
ATOM     13  C   UNL     1       3.233   3.958   0.488  0.00  0.00    +0.071 C 
BRANCH  11  18
ATOM     14  C   UNL     1       3.062   9.450   0.272  0.00  0.00    +0.086 C 
ATOM     15  C   UNL     1       2.255   8.178   0.232  0.00  0.00    +0.103 A 
ATOM     16  C   UNL     1       0.915   8.102   0.091  0.00  0.00    +0.045 A 
ATOM     17  C   UNL     1       0.576   6.736   0.098  0.00  0.00    +0.051 A 
ATOM     18  C   UNL     1       1.741   6.043   0.253  0.00  0.00    +0.150 A 
ATOM     19  O   UNL     1       2.750   6.934   0.329  0.00  0.00    -0.459 OA
ENDBRANCH  11  18
ENDBRANCH   7  12
ENDBRANCH   1   8
BRANCH   6  20
ATOM     20  N   UNL     1      -2.418  -0.057   0.037  0.00  0.00    -0.215 N 
ATOM     21  H   UNL     1      -2.526   0.748  -0.494  0.00  0.00    +0.174 HD
BRANCH  20  22
ATOM     22  S   UNL     1      -3.733  -0.751   0.765  0.00  0.00    +0.079 S 
ATOM     23  O   UNL     1      -4.830   0.124   0.543  0.00  0.00    -0.149 OA
ATOM     24  O   UNL     1      -3.751  -2.113   0.358  0.00  0.00    -0.149 OA
BRANCH  22  25
ATOM     25  C   UNL     1      -3.429  -0.748   2.501  0.00  0.00    +0.146 A 
ATOM     26  C   UNL     1      -3.738   0.199   3.420  0.00  0.00    +0.036 A 
ATOM     27  C   UNL     1      -3.400  -0.015   4.743  0.00  0.00    +0.010 A 
ATOM     28  C   UNL     1      -2.770  -1.166   5.082  0.00  0.00    +0.047 A 
ATOM     29  S   UNL     1      -2.642  -1.995   3.506  0.00  0.00    -0.077 S 
ENDBRANCH  22  25
ENDBRANCH  20  22
ENDBRANCH   6  20
TORSDOF 6
