REMARK  Name = ZINC40317969
REMARK  10 active torsions:
REMARK  status: ('A' for Active; 'I' for Inactive)
REMARK    1  A    between atoms: C_5  and  C_7
REMARK    2  A    between atoms: C_7  and  N_8
REMARK    3  A    between atoms: N_8  and  C_9
REMARK    4  A    between atoms: N_8  and  C_15
REMARK    5  A    between atoms: C_9  and  C_10
REMARK    6  A    between atoms: C_15  and  C_16
REMARK    7  A    between atoms: C_16  and  C_18
REMARK    8  A    between atoms: C_16  and  O_28
REMARK    9  A    between atoms: C_18  and  O_19
REMARK   10  A    between atoms: O_19  and  C_20
REMARK                            x       y       z     vdW  Elec       q    Type
REMARK                         _______ _______ _______ _____ _____    ______ ____
ROOT
ATOM      1  N   UNL     1       1.452  -2.573   1.390  0.00  0.00    +0.389 N 
ATOM      2  H   UNL     1       0.736  -2.247   2.022  0.00  0.00    -0.081 HD
ENDROOT
BRANCH   1   3
ATOM      3  C   UNL     1       1.161  -2.093   0.032  0.00  0.00    -0.041 C 
BRANCH   3   8
ATOM      4  C   UNL     1      -1.717  -3.923  -1.587  0.00  0.00    +0.000 A 
ATOM      5  C   UNL     1      -2.804  -3.242  -1.069  0.00  0.00    +0.001 A 
ATOM      6  C   UNL     1      -2.608  -2.189  -0.196  0.00  0.00    +0.020 A 
ATOM      7  C   UNL     1      -1.324  -1.817   0.161  0.00  0.00    +0.042 A 
ATOM      8  C   UNL     1      -0.237  -2.499  -0.356  0.00  0.00    -0.046 A 
ATOM      9  C   UNL     1      -0.434  -3.551  -1.230  0.00  0.00    +0.003 A 
ATOM     10 CL   UNL     1      -1.077  -0.494   1.258  0.00  0.00    -0.083 Cl
ENDBRANCH   3   8
ENDBRANCH   1   3
BRANCH   1  11
ATOM     11  C   UNL     1       2.758  -2.058   1.822  0.00  0.00    -0.003 C 
BRANCH  11  12
ATOM     12  C   UNL     1       2.692  -0.557   1.941  0.00  0.00    +0.089 A 
ATOM     13  C   UNL     1       2.256   0.128   3.013  0.00  0.00    +0.042 A 
ATOM     14  C   UNL     1       2.367   1.501   2.694  0.00  0.00    +0.041 A 
ATOM     15  C   UNL     1       2.864   1.572   1.446  0.00  0.00    +0.195 A 
ATOM     16  O   UNL     1       3.065   0.322   0.997  0.00  0.00    -0.470 OA
ENDBRANCH  11  12
ENDBRANCH   1  11
BRANCH   1  17
ATOM     17  C   UNL     1       1.477  -4.042   1.395  0.00  0.00    -0.043 C 
BRANCH  17  18
ATOM     18  C   UNL     1       1.655  -4.543   2.829  0.00  0.00    +0.135 C 
BRANCH  18  19
ATOM     19  O   UNL     1       0.511  -4.182   3.606  0.00  0.00    -0.390 OA
ATOM     20  H   UNL     1      -0.320  -4.550   3.276  0.00  0.00    +0.210 HD
ENDBRANCH  18  19
BRANCH  18  21
ATOM     21  C   UNL     1       1.807  -6.066   2.822  0.00  0.00    +0.258 C 
BRANCH  21  22
ATOM     22  O   UNL     1       2.089  -6.522   4.147  0.00  0.00    -0.488 OA
BRANCH  22  23
ATOM     23  C   UNL     1       2.254  -7.861   4.316  0.00  0.00    +0.139 A 
ATOM     24  C   UNL     1       2.152  -8.716   3.228  0.00  0.00    +0.048 A 
ATOM     25  C   UNL     1       2.320 -10.076   3.402  0.00  0.00    +0.023 A 
ATOM     26  C   UNL     1       2.589 -10.587   4.659  0.00  0.00    +0.043 A 
ATOM     27  C   UNL     1       2.691  -9.736   5.746  0.00  0.00    +0.043 A 
ATOM     28  C   UNL     1       2.530  -8.374   5.576  0.00  0.00    +0.084 A 
ATOM     29 CL   UNL     1       2.665  -7.306   6.938  0.00  0.00    -0.080 Cl
ATOM     30 CL   UNL     1       2.799 -12.297   4.874  0.00  0.00    -0.083 Cl
ENDBRANCH  22  23
ENDBRANCH  21  22
ENDBRANCH  18  21
ENDBRANCH  17  18
ENDBRANCH   1  17
TORSDOF 10
