REMARK  Name = ZINC23582801
REMARK  12 active torsions:
REMARK  status: ('A' for Active; 'I' for Inactive)
REMARK    1  A    between atoms: C_1  and  C_2
REMARK    2  A    between atoms: C_6  and  C_36
REMARK    3  A    between atoms: C_7  and  N_8
REMARK    4  A    between atoms: C_9  and  C_11
REMARK    5  A    between atoms: C_11  and  N_12
REMARK    6  A    between atoms: C_13  and  C_15
REMARK    7  A    between atoms: C_15  and  C_17
REMARK    8  A    between atoms: C_15  and  O_18
REMARK    9  A    between atoms: O_18  and  C_19
REMARK   10  A    between atoms: C_19  and  C_21
REMARK   11  A    between atoms: C_29  and  O_34
REMARK   12  A    between atoms: O_34  and  C_35
REMARK                            x       y       z     vdW  Elec       q    Type
REMARK                         _______ _______ _______ _____ _____    ______ ____
ROOT
ATOM      1  C   UNL     1      -3.668  -4.809   0.603  0.00  0.00    +0.259 C 
ATOM      2  C   UNL     1      -4.682  -4.455  -0.486  0.00  0.00    +0.062 C 
ENDROOT
BRANCH   1   4
ATOM      3  N   UNL     1      -2.216  -2.835   0.261  0.00  0.00    -0.304 N 
ATOM      4  C   UNL     1      -2.339  -4.177   0.277  0.00  0.00    +0.254 C 
ATOM      5  O   UNL     1      -1.380  -4.877   0.028  0.00  0.00    -0.272 OA
ATOM      6  H   UNL     1      -3.086  -2.201   0.486  0.00  0.00    +0.149 HD
BRANCH   3   7
ATOM      7  C   UNL     1      -0.925  -2.221  -0.057  0.00  0.00    +0.200 C 
BRANCH   7   9
ATOM      8  N   UNL     1       0.013   0.058  -0.267  0.00  0.00    -0.284 N 
ATOM      9  C   UNL     1      -1.056  -0.721  -0.007  0.00  0.00    +0.234 C 
ATOM     10  O   UNL     1      -2.123  -0.214   0.267  0.00  0.00    -0.274 OA
ATOM     11  H   UNL     1       0.956  -0.397  -0.604  0.00  0.00    +0.155 HD
BRANCH   8  18
ATOM     12  C   UNL     1       1.852   1.331   1.493  0.00  0.00    +0.045 C 
ATOM     13  C   UNL     1       0.801   2.107   0.742  0.00  0.00    -0.029 A 
ATOM     14  C   UNL     1       0.714   3.477   0.892  0.00  0.00    +0.005 A 
ATOM     15  C   UNL     1      -0.255   4.189   0.208  0.00  0.00    +0.001 A 
ATOM     16  C   UNL     1      -1.134   3.532  -0.633  0.00  0.00    +0.005 A 
ATOM     17  C   UNL     1      -1.048   2.163  -0.793  0.00  0.00    -0.029 A 
ATOM     18  C   UNL     1      -0.077   1.445  -0.107  0.00  0.00    +0.039 A 
ATOM     19  C   UNL     1      -2.007   1.449  -1.711  0.00  0.00    +0.045 C 
ENDBRANCH   8  18
ENDBRANCH   7   9
ENDBRANCH   3   7
ENDBRANCH   1   4
BRANCH   1  20
ATOM     20  O   UNL     1      -3.517  -6.228   0.670  0.00  0.00    -0.448 OA
BRANCH  20  21
ATOM     21  C   UNL     1      -4.340  -6.893   1.508  0.00  0.00    +0.347 C 
ATOM     22  O   UNL     1      -5.164  -6.282   2.163  0.00  0.00    -0.244 OA
BRANCH  21  23
ATOM     23  C   UNL     1      -4.242  -8.347   1.628  0.00  0.00    +0.097 A 
ATOM     24  C   UNL     1      -4.987  -9.208   2.423  0.00  0.00    +0.027 A 
ATOM     25  C   UNL     1      -4.729 -10.555   2.388  0.00  0.00    -0.031 A 
ATOM     26  C   UNL     1      -3.715 -10.969   1.519  0.00  0.00    +0.024 A 
ATOM     27  S   UNL     1      -3.139  -9.472   0.784  0.00  0.00    -0.082 S 
ATOM     28  C   UNL     1      -3.322 -12.363   1.336  0.00  0.00    -0.008 A 
ATOM     29  C   UNL     1      -2.147 -12.742   0.699  0.00  0.00    +0.013 A 
ATOM     30  C   UNL     1      -1.826 -14.080   0.594  0.00  0.00    +0.046 A 
ATOM     31  C   UNL     1      -2.676 -15.041   1.126  0.00  0.00    +0.120 A 
ATOM     32  C   UNL     1      -3.858 -14.665   1.751  0.00  0.00    +0.050 A 
ATOM     33  C   UNL     1      -4.198 -13.334   1.849  0.00  0.00    -0.035 A 
ATOM     34  C   UNL     1      -5.513 -12.923   2.449  0.00  0.00    +0.040 C 
ATOM     35  C   UNL     1      -5.437 -11.614   3.225  0.00  0.00    +0.041 C 
BRANCH  31  36
ATOM     36  O   UNL     1      -2.350 -16.356   1.034  0.00  0.00    -0.495 OA
ATOM     37  C   UNL     1      -1.121 -16.675   0.378  0.00  0.00    +0.277 C 
ENDBRANCH  31  36
ENDBRANCH  21  23
ENDBRANCH  20  21
ENDBRANCH   1  20
TORSDOF 8
