REMARK  Name = ZINC13132115
REMARK  10 active torsions:
REMARK  status: ('A' for Active; 'I' for Inactive)
REMARK    1  A    between atoms: C_1  and  C_2
REMARK    2  A    between atoms: C_3  and  C_22
REMARK    3  A    between atoms: C_4  and  C_12
REMARK    4  A    between atoms: C_16  and  O_20
REMARK    5  A    between atoms: C_17  and  O_18
REMARK    6  A    between atoms: O_18  and  C_19
REMARK    7  A    between atoms: O_20  and  C_21
REMARK    8  A    between atoms: C_22  and  O_24
REMARK    9  A    between atoms: O_24  and  C_25
REMARK   10  A    between atoms: C_25  and  C_26
REMARK                            x       y       z     vdW  Elec       q    Type
REMARK                         _______ _______ _______ _____ _____    ______ ____
ROOT
ATOM      1  C   UNL     1      -2.933   0.988   1.317  0.00  0.00    +0.061 C 
ATOM      2  C   UNL     1      -1.884   0.112   0.681  0.00  0.00    +0.020 C 
ATOM      3  C   UNL     1      -2.105  -1.209   0.597  0.00  0.00    +0.082 C 
ATOM      4  C   UNL     1      -1.129  -2.167  -0.031  0.00  0.00    +0.183 C 
ATOM      5  N   UNL     1       0.149  -1.492  -0.240  0.00  0.00    -0.221 N 
ATOM      6  C   UNL     1       0.315  -0.150  -0.131  0.00  0.00    +0.218 A 
ATOM      7  N   UNL     1       1.566   0.122  -0.386  0.00  0.00    -0.201 NA
ATOM      8  C   UNL     1       2.224  -1.009  -0.655  0.00  0.00    +0.247 A 
ATOM      9  N   UNL     1       1.395  -2.020  -0.575  0.00  0.00    -0.156 NA
ATOM     10  N   UNL     1      -0.737   0.694   0.201  0.00  0.00    -0.287 N 
ATOM     11  H   UNL     1      -0.663   1.656   0.101  0.00  0.00    +0.155 HD
ENDROOT
BRANCH   4  12
ATOM     12  C   UNL     1      -1.670  -2.640  -1.355  0.00  0.00    +0.027 A 
ATOM     13  C   UNL     1      -2.148  -1.724  -2.274  0.00  0.00    +0.010 A 
ATOM     14  C   UNL     1      -2.645  -2.154  -3.490  0.00  0.00    +0.004 A 
ATOM     15  C   UNL     1      -2.667  -3.503  -3.793  0.00  0.00    +0.049 A 
ATOM     16  C   UNL     1      -2.190  -4.427  -2.877  0.00  0.00    +0.162 A 
ATOM     17  C   UNL     1      -1.683  -3.993  -1.655  0.00  0.00    +0.167 A 
BRANCH  17  18
ATOM     18  O   UNL     1      -1.209  -4.895  -0.755  0.00  0.00    -0.491 OA
ATOM     19  C   UNL     1      -2.170  -5.550   0.075  0.00  0.00    +0.277 C 
ENDBRANCH  17  18
BRANCH  16  20
ATOM     20  O   UNL     1      -2.211  -5.754  -3.173  0.00  0.00    -0.491 OA
ATOM     21  C   UNL     1      -2.739  -6.126  -4.448  0.00  0.00    +0.277 C 
ENDBRANCH  16  20
ENDBRANCH   4  12
BRANCH   3  22
ATOM     22  C   UNL     1      -3.311  -1.724   1.123  0.00  0.00    +0.339 C 
ATOM     23  O   UNL     1      -4.076  -0.991   1.721  0.00  0.00    -0.245 OA
BRANCH  22  24
ATOM     24  O   UNL     1      -3.614  -3.029   0.961  0.00  0.00    -0.457 OA
BRANCH  24  25
ATOM     25  C   UNL     1      -4.901  -3.457   1.413  0.00  0.00    +0.268 C 
BRANCH  25  26
ATOM     26  C   UNL     1      -5.023  -4.949   1.241  0.00  0.00    -0.010 A 
ATOM     27  C   UNL     1      -5.425  -5.475   0.027  0.00  0.00    +0.007 A 
ATOM     28  C   UNL     1      -5.537  -6.844  -0.130  0.00  0.00    +0.000 A 
ATOM     29  C   UNL     1      -5.246  -7.687   0.926  0.00  0.00    +0.000 A 
ATOM     30  C   UNL     1      -4.843  -7.161   2.139  0.00  0.00    +0.000 A 
ATOM     31  C   UNL     1      -4.727  -5.793   2.296  0.00  0.00    +0.007 A 
ENDBRANCH  25  26
ENDBRANCH  24  25
ENDBRANCH  22  24
ENDBRANCH   3  22
TORSDOF 7
