REMARK  Name = ZINC05173226
REMARK  5 active torsions:
REMARK  status: ('A' for Active; 'I' for Inactive)
REMARK    1  A    between atoms: C_5  and  C_7
REMARK    2  A    between atoms: C_10  and  S_13
REMARK    3  A    between atoms: N_11  and  N_12
REMARK    4  A    between atoms: S_13  and  C_14
REMARK    5  A    between atoms: C_14  and  C_15
REMARK                            x       y       z     vdW  Elec       q    Type
REMARK                         _______ _______ _______ _____ _____    ______ ____
ROOT
ATOM      1  C   UNL     1       1.249  -2.160  -0.026  0.00  0.00    +0.183 A 
ATOM      2  N   UNL     1       0.213  -2.961   0.072  0.00  0.00    -0.127 NA
ATOM      3  N   UNL     1       0.599  -4.186   0.034  0.00  0.00    -0.121 NA
ATOM      4  C   UNL     1       1.906  -4.243  -0.091  0.00  0.00    +0.209 A 
ATOM      5  N   UNL     1       2.365  -2.957  -0.139  0.00  0.00    -0.224 N 
ENDROOT
BRANCH   1  10
ATOM      6  C   UNL     1       1.914   1.414  -0.968  0.00  0.00    +0.001 A 
ATOM      7  C   UNL     1       1.169   2.087  -0.015  0.00  0.00    +0.001 A 
ATOM      8  C   UNL     1       0.450   1.383   0.933  0.00  0.00    +0.021 A 
ATOM      9  C   UNL     1       0.471   0.003   0.936  0.00  0.00    +0.052 A 
ATOM     10  C   UNL     1       1.221  -0.683  -0.022  0.00  0.00    +0.039 A 
ATOM     11  C   UNL     1       1.944   0.035  -0.977  0.00  0.00    +0.013 A 
ATOM     12 CL   UNL     1      -0.433  -0.879   2.127  0.00  0.00    -0.083 Cl
ENDBRANCH   1  10
BRANCH   5  13
ATOM     13  N   UNL     1       3.662  -2.547  -0.269  0.00  0.00    -0.295 N 
ATOM     14  H   UNL     1       4.124  -2.521   0.627  0.00  0.00    +0.163 HD
ATOM     15  H   UNL     1       4.163  -3.135  -0.918  0.00  0.00    +0.163 HD
ENDBRANCH   5  13
BRANCH   4  16
ATOM     16  S   UNL     1       2.885  -5.705  -0.185  0.00  0.00    -0.077 S 
BRANCH  16  17
ATOM     17  C   UNL     1       1.586  -6.960  -0.062  0.00  0.00    +0.151 C 
BRANCH  17  18
ATOM     18  C   UNL     1       2.206  -8.332  -0.122  0.00  0.00    +0.121 A 
ATOM     19  N   UNL     1       1.388  -9.415  -0.045  0.00  0.00    -0.309 N 
ATOM     20  H   UNL     1       0.400  -9.296   0.050  0.00  0.00    +0.170 HD
ATOM     21  C   UNL     1       1.925 -10.658  -0.098  0.00  0.00    +0.266 A 
ATOM     22  O   UNL     1       1.218 -11.649  -0.030  0.00  0.00    -0.267 OA
ATOM     23  C   UNL     1       3.309 -10.771  -0.230  0.00  0.00    +0.102 A 
ATOM     24  C   UNL     1       4.133  -9.635  -0.308  0.00  0.00    +0.085 A 
ATOM     25  N   UNL     1       3.491  -8.422  -0.250  0.00  0.00    -0.232 NA
ATOM     26  C   UNL     1       5.505  -9.892  -0.440  0.00  0.00    +0.036 A 
ATOM     27  C   UNL     1       5.957 -11.163  -0.484  0.00  0.00    +0.048 A 
ATOM     28  S   UNL     1       4.456 -12.119  -0.341  0.00  0.00    -0.090 S 
ENDBRANCH  17  18
ENDBRANCH  16  17
ENDBRANCH   4  16
TORSDOF 5
