REMARK  Name = ZINC04998481
REMARK  9 active torsions:
REMARK  status: ('A' for Active; 'I' for Inactive)
REMARK    1  A    between atoms: C_1  and  C_2
REMARK    2  A    between atoms: C_5  and  C_8
REMARK    3  A    between atoms: C_9  and  C_10
REMARK    4  A    between atoms: C_9  and  N_52
REMARK    5  A    between atoms: C_13  and  N_16
REMARK    6  A    between atoms: N_19  and  C_20
REMARK    7  A    between atoms: C_20  and  N_22
REMARK    8  A    between atoms: N_22  and  C_23
REMARK    9  A    between atoms: N_22  and  C_24
REMARK                            x       y       z     vdW  Elec       q    Type
REMARK                         _______ _______ _______ _____ _____    ______ ____
ROOT
ATOM      1  C   UNL     1      -1.930   3.464   2.299  0.00  0.00    +0.105 C 
ATOM      2  N   UNL     1      -1.926   3.159   3.647  0.00  0.00    -0.283 N 
ATOM      3  H   UNL     1      -1.658   3.829   4.296  0.00  0.00    +0.155 HD
ATOM      4  N   UNL     1      -2.317   2.504   1.453  0.00  0.00    -0.368 N 
ATOM      5  H   UNL     1      -2.707   1.627   1.816  0.00  0.00    +0.161 HD
ENDROOT
BRANCH   1  10
ATOM      6  C   UNL     1      -0.351   8.710   0.531  0.00  0.00    +0.044 C 
ATOM      7  C   UNL     1      -0.764   7.337   0.994  0.00  0.00    -0.050 A 
ATOM      8  C   UNL     1      -1.894   6.742   0.462  0.00  0.00    +0.004 A 
ATOM      9  C   UNL     1      -2.278   5.484   0.881  0.00  0.00    +0.011 A 
ATOM     10  C   UNL     1      -1.524   4.813   1.844  0.00  0.00    +0.013 A 
ATOM     11  C   UNL     1      -0.389   5.421   2.381  0.00  0.00    +0.011 A 
ATOM     12  C   UNL     1      -0.013   6.676   1.950  0.00  0.00    +0.004 A 
ENDBRANCH   1  10
BRANCH   2  13
ATOM     13  C   UNL     1      -2.296   1.930   4.061  0.00  0.00    +0.142 C 
ATOM     14  S   UNL     1      -2.770   0.748   2.917  0.00  0.00    -0.018 S 
BRANCH  13  15
ATOM     15  N   UNL     1      -2.293   1.633   5.375  0.00  0.00    -0.285 N 
ATOM     16  C   UNL     1      -1.782   2.605   6.345  0.00  0.00    +0.137 C 
BRANCH  15  17
ATOM     17  C   UNL     1      -2.777   0.396   5.814  0.00  0.00    +0.035 A 
ATOM     18  C   UNL     1      -3.948   0.330   6.557  0.00  0.00    +0.023 A 
ATOM     19  C   UNL     1      -4.426  -0.893   6.984  0.00  0.00    +0.002 A 
ATOM     20  C   UNL     1      -3.734  -2.051   6.681  0.00  0.00    +0.000 A 
ATOM     21  C   UNL     1      -2.564  -1.989   5.945  0.00  0.00    +0.002 A 
ATOM     22  C   UNL     1      -2.084  -0.770   5.511  0.00  0.00    +0.023 A 
ENDBRANCH  15  17
ENDBRANCH  13  15
ENDBRANCH   2  13
BRANCH   4  23
ATOM     23  C   UNL     1      -2.181   2.710  -0.030  0.00  0.00    +0.149 C 
BRANCH  23  24
ATOM     24  C   UNL     1      -1.315   1.607  -0.583  0.00  0.00    -0.028 A 
ATOM     25  C   UNL     1       0.050   1.792  -0.699  0.00  0.00    +0.007 A 
ATOM     26  C   UNL     1       0.844   0.784  -1.212  0.00  0.00    +0.033 A 
ATOM     27  C   UNL     1       0.272  -0.411  -1.607  0.00  0.00    +0.126 A 
ATOM     28  C   UNL     1      -1.093  -0.597  -1.490  0.00  0.00    +0.033 A 
ATOM     29  C   UNL     1      -1.886   0.412  -0.978  0.00  0.00    +0.007 A 
BRANCH  27  30
ATOM     30  N   UNL     1       1.122  -1.492  -2.155  0.00  0.00    +0.056 N 
ATOM     31  O   UNL     1       0.619  -2.545  -2.503  0.00  0.00    -0.126 OA
ATOM     32  O   UNL     1       2.325  -1.329  -2.259  0.00  0.00    -0.126 OA
ENDBRANCH  27  30
ENDBRANCH  23  24
ENDBRANCH   4  23
TORSDOF 7
