REMARK  Name = ZINC39753971
REMARK  12 active torsions:
REMARK  status: ('A' for Active; 'I' for Inactive)
REMARK    1  A    between atoms: C_1  and  C_2
REMARK    2  A    between atoms: C_5  and  N_9
REMARK    3  A    between atoms: C_6  and  C_8
REMARK    4  A    between atoms: C_10  and  C_12
REMARK    5  A    between atoms: C_12  and  C_13
REMARK    6  A    between atoms: C_16  and  S_19
REMARK    7  A    between atoms: N_17  and  C_18
REMARK    8  A    between atoms: S_19  and  C_20
REMARK    9  A    between atoms: C_20  and  C_21
REMARK   10  A    between atoms: N_23  and  C_24
REMARK   11  A    between atoms: C_26  and  C_32
REMARK   12  A    between atoms: C_27  and  C_31
REMARK                            x       y       z     vdW  Elec       q    Type
REMARK                         _______ _______ _______ _____ _____    ______ ____
ROOT
ATOM      1  C   UNL     1      -0.229  -6.789  -2.624  0.00  0.00    +0.143 A 
ATOM      2  N   UNL     1      -1.327  -6.976  -3.301  0.00  0.00    -0.133 NA
ATOM      3  N   UNL     1      -1.052  -7.415  -4.476  0.00  0.00    -0.122 NA
ATOM      4  C   UNL     1       0.248  -7.534  -4.615  0.00  0.00    +0.192 A 
ATOM      5  N   UNL     1       0.814  -7.133  -3.439  0.00  0.00    -0.309 N 
ATOM      6  C   UNL     1       2.242  -7.085  -3.115  0.00  0.00    +0.152 C 
ENDROOT
BRANCH   1   7
ATOM      7  C   UNL     1      -0.128  -6.282  -1.209  0.00  0.00    +0.172 C 
BRANCH   7   9
ATOM      8  N   UNL     1       0.070  -4.101  -0.058  0.00  0.00    -0.285 N 
ATOM      9  C   UNL     1      -0.030  -4.779  -1.219  0.00  0.00    +0.225 C 
ATOM     10  O   UNL     1      -0.042  -4.178  -2.273  0.00  0.00    -0.275 OA
ATOM     11  H   UNL     1       0.146  -4.584   0.780  0.00  0.00    +0.155 HD
BRANCH   8  16
ATOM     12  C   UNL     1       0.051   1.572  -0.073  0.00  0.00    +0.044 C 
ATOM     13  C   UNL     1       0.056   0.065  -0.070  0.00  0.00    -0.050 A 
ATOM     14  C   UNL     1       0.652  -0.626  -1.109  0.00  0.00    +0.005 A 
ATOM     15  C   UNL     1       0.658  -2.007  -1.108  0.00  0.00    +0.024 A 
ATOM     16  C   UNL     1       0.066  -2.702  -0.062  0.00  0.00    +0.036 A 
ATOM     17  C   UNL     1      -0.531  -2.006   0.980  0.00  0.00    -0.029 A 
ATOM     18  C   UNL     1      -0.530  -0.624   0.976  0.00  0.00    +0.008 A 
ATOM     19  C   UNL     1      -1.176  -2.756   2.117  0.00  0.00    +0.045 C 
ENDBRANCH   8  16
ENDBRANCH   7   9
ENDBRANCH   1   7
BRANCH   4  20
ATOM     20  S   UNL     1       1.102  -8.097  -6.050  0.00  0.00    -0.077 S 
BRANCH  20  21
ATOM     21  C   UNL     1      -0.223  -8.455  -7.236  0.00  0.00    +0.173 C 
BRANCH  21  22
ATOM     22  C   UNL     1       0.378  -8.953  -8.525  0.00  0.00    +0.228 C 
ATOM     23  O   UNL     1       1.582  -9.056  -8.633  0.00  0.00    -0.275 OA
ATOM     24  N   UNL     1      -0.422  -9.283  -9.559  0.00  0.00    -0.284 N 
ATOM     25  H   UNL     1      -1.379  -9.140  -9.496  0.00  0.00    +0.155 HD
BRANCH  24  26
ATOM     26  C   UNL     1       0.129  -9.834 -10.722  0.00  0.00    +0.048 A 
ATOM     27  C   UNL     1       1.381  -9.424 -11.160  0.00  0.00    +0.028 A 
ATOM     28  C   UNL     1       1.922  -9.970 -12.308  0.00  0.00    -0.046 A 
ATOM     29  C   UNL     1       1.218 -10.922 -13.021  0.00  0.00    -0.046 A 
ATOM     30  C   UNL     1      -0.030 -11.332 -12.588  0.00  0.00    +0.020 A 
ATOM     31  C   UNL     1      -0.574 -10.795 -11.437  0.00  0.00    +0.039 A 
ATOM     32 BR   UNL     1      -2.277 -11.362 -10.841  0.00  0.00    -0.048 Br
ATOM     33  C   UNL     1       1.811 -11.515 -14.274  0.00  0.00    +0.044 C 
ATOM     34  C   UNL     1       3.281  -9.525 -12.784  0.00  0.00    +0.044 C 
ENDBRANCH  24  26
ENDBRANCH  21  22
ENDBRANCH  20  21
ENDBRANCH   4  20
TORSDOF 7
