REMARK  Name = ZINC12715414
REMARK  9 active torsions:
REMARK  status: ('A' for Active; 'I' for Inactive)
REMARK    1  A    between atoms: C_1  and  C_2
REMARK    2  A    between atoms: C_2  and  C_26
REMARK    3  A    between atoms: C_4  and  C_16
REMARK    4  A    between atoms: C_6  and  C_9
REMARK    5  A    between atoms: C_8  and  N_57
REMARK    6  A    between atoms: N_18  and  C_19
REMARK    7  A    between atoms: C_22  and  O_25
REMARK    8  A    between atoms: C_26  and  O_28
REMARK    9  A    between atoms: O_28  and  C_29
REMARK                            x       y       z     vdW  Elec       q    Type
REMARK                         _______ _______ _______ _____ _____    ______ ____
ROOT
ATOM      1  C   UNL     1       2.129   0.255  -1.464  0.00  0.00    +0.002 C 
ATOM      2  C   UNL     1       0.906  -0.657  -1.354  0.00  0.00    +0.032 C 
ATOM      3  C   UNL     1       1.312  -2.055  -0.826  0.00  0.00    +0.010 C 
ATOM      4  C   UNL     1       1.406  -1.834   0.701  0.00  0.00    +0.065 C 
ATOM      5  C   UNL     1       0.543  -0.590   0.981  0.00  0.00    -0.025 C 
ATOM      6  C   UNL     1      -0.151   1.305  -0.372  0.00  0.00    -0.094 C 
ATOM      7  N   UNL     1      -0.014  -0.182  -0.314  0.00  0.00    +0.394 N 
ATOM      8  H   UNL     1      -0.937  -0.610  -0.446  0.00  0.00    -0.080 HD
ENDROOT
BRANCH   5   9
ATOM      9  C   UNL     1      -0.566  -0.935   1.942  0.00  0.00    -0.060 A 
ATOM     10  C   UNL     1      -1.731  -1.514   1.474  0.00  0.00    +0.003 A 
ATOM     11  C   UNL     1      -2.745  -1.836   2.356  0.00  0.00    +0.020 A 
ATOM     12  C   UNL     1      -2.599  -1.569   3.705  0.00  0.00    +0.041 A 
ATOM     13  C   UNL     1      -1.436  -0.985   4.172  0.00  0.00    +0.020 A 
ATOM     14  C   UNL     1      -0.419  -0.668   3.291  0.00  0.00    +0.003 A 
ATOM     15 CL   UNL     1      -3.877  -1.966   4.812  0.00  0.00    -0.084 Cl
ENDBRANCH   5   9
BRANCH   4  16
ATOM     16  C   UNL     1       0.857  -3.029   1.438  0.00  0.00    +0.215 C 
ATOM     17  O   UNL     1      -0.037  -3.685   0.947  0.00  0.00    -0.276 OA
ATOM     18  N   UNL     1       1.360  -3.368   2.641  0.00  0.00    -0.312 N 
ATOM     19  H   UNL     1       2.075  -2.843   3.034  0.00  0.00    +0.149 HD
BRANCH  18  20
ATOM     20  C   UNL     1       0.826  -4.529   3.357  0.00  0.00    +0.073 C 
ATOM     21  C   UNL     1      -0.411  -4.112   4.155  0.00  0.00    +0.025 C 
ATOM     22  C   UNL     1      -0.969  -5.325   4.903  0.00  0.00    +0.033 C 
ATOM     23  C   UNL     1       0.096  -5.868   5.859  0.00  0.00    +0.115 C 
ATOM     24  C   UNL     1       1.333  -6.285   5.061  0.00  0.00    +0.033 C 
ATOM     25  C   UNL     1       1.890  -5.072   4.313  0.00  0.00    +0.025 C 
BRANCH  23  26
ATOM     26  O   UNL     1      -0.425  -7.001   6.557  0.00  0.00    -0.392 OA
ATOM     27  H   UNL     1      -1.212  -6.809   7.085  0.00  0.00    +0.210 HD
ENDBRANCH  23  26
ENDBRANCH  18  20
ENDBRANCH   4  16
BRANCH   2  28
ATOM     28  C   UNL     1       0.206  -0.773  -2.684  0.00  0.00    +0.296 C 
ATOM     29  O   UNL     1       0.478  -1.682  -3.432  0.00  0.00    -0.252 OA
BRANCH  28  30
ATOM     30  O   UNL     1      -0.719   0.134  -3.038  0.00  0.00    -0.469 OA
ATOM     31  C   UNL     1      -1.351  -0.041  -4.333  0.00  0.00    +0.280 C 
ENDBRANCH  28  30
ENDBRANCH   2  28
TORSDOF 6
