REMARK  Name = ZINC59117835
REMARK  7 active torsions:
REMARK  status: ('A' for Active; 'I' for Inactive)
REMARK    1  A    between atoms: C_1  and  C_2
REMARK    2  A    between atoms: C_11  and  C_14
REMARK    3  A    between atoms: C_14  and  N_15
REMARK    4  A    between atoms: C_16  and  C_18
REMARK    5  A    between atoms: C_18  and  C_19
REMARK    6  A    between atoms: C_22  and  S_24
REMARK    7  A    between atoms: S_24  and  N_27
REMARK                            x       y       z     vdW  Elec       q    Type
REMARK                         _______ _______ _______ _____ _____    ______ ____
ROOT
ATOM      1  N   UNL     1      -2.304  -7.683   4.228  0.00  0.00    -0.311 N 
ATOM      2  C   UNL     1      -2.664  -8.757   4.959  0.00  0.00    +0.218 C 
ATOM      3  O   UNL     1      -3.160  -8.605   6.055  0.00  0.00    -0.275 OA
ATOM      4  H   UNL     1      -1.907  -7.804   3.351  0.00  0.00    +0.149 HD
ENDROOT
BRANCH   1   5
ATOM      5  C   UNL     1      -2.510  -6.333   4.759  0.00  0.00    +0.141 C 
BRANCH   5  16
ATOM      6  C   UNL     1       1.516  -1.759  -2.543  0.00  0.00    +0.007 C 
ATOM      7  C   UNL     1       0.744  -1.592  -1.232  0.00  0.00    -0.011 C 
ATOM      8  C   UNL     1       1.541  -2.221  -0.087  0.00  0.00    +0.022 C 
ATOM      9  C   UNL     1       0.782  -2.021   1.228  0.00  0.00    +0.107 C 
ATOM     10  N   UNL     1      -0.578  -2.556   1.075  0.00  0.00    -0.317 N 
ATOM     11  C   UNL     1      -1.400  -2.086  -0.049  0.00  0.00    +0.107 C 
ATOM     12  C   UNL     1      -0.616  -2.284  -1.350  0.00  0.00    +0.022 C 
ATOM     13  C   UNL     1      -1.078  -3.489   1.976  0.00  0.00    +0.099 A 
ATOM     14  C   UNL     1      -2.408  -3.889   1.888  0.00  0.00    +0.042 A 
ATOM     15  C   UNL     1      -2.892  -4.819   2.790  0.00  0.00    +0.010 A 
ATOM     16  C   UNL     1      -2.026  -5.319   3.755  0.00  0.00    -0.014 A 
ATOM     17  C   UNL     1      -0.719  -4.878   3.784  0.00  0.00    +0.089 A 
ATOM     18  N   UNL     1      -0.283  -3.994   2.906  0.00  0.00    -0.349 N 
ATOM     19  H   UNL     1       0.642  -3.704   2.947  0.00  0.00    +0.167 HD
ENDBRANCH   5  16
ENDBRANCH   1   5
BRANCH   2  20
ATOM     20  C   UNL     1      -2.452 -10.145   4.413  0.00  0.00    +0.138 C 
BRANCH  20  21
ATOM     21  C   UNL     1      -2.936 -11.159   5.417  0.00  0.00    +0.000 A 
ATOM     22  C   UNL     1      -4.167 -11.713   5.546  0.00  0.00    +0.013 A 
ATOM     23  C   UNL     1      -4.385 -12.634   6.553  0.00  0.00    +0.036 A 
ATOM     24  C   UNL     1      -3.362 -12.957   7.382  0.00  0.00    +0.143 A 
ATOM     25  S   UNL     1      -2.035 -11.949   6.741  0.00  0.00    -0.073 S 
BRANCH  24  26
ATOM     26  S   UNL     1      -3.345 -14.083   8.737  0.00  0.00    +0.067 S 
ATOM     27  O   UNL     1      -2.288 -13.672   9.594  0.00  0.00    -0.152 OA
ATOM     28  O   UNL     1      -4.688 -14.199   9.185  0.00  0.00    -0.152 OA
BRANCH  26  29
ATOM     29  N   UNL     1      -2.917 -15.565   8.136  0.00  0.00    -0.176 NA
ATOM     30  C   UNL     1      -3.845 -16.583   7.623  0.00  0.00    +0.109 C 
ATOM     31  C   UNL     1      -3.000 -17.802   7.197  0.00  0.00    +0.018 C 
ATOM     32  C   UNL     1      -1.696 -17.624   8.018  0.00  0.00    +0.018 C 
ATOM     33  C   UNL     1      -1.540 -16.081   8.020  0.00  0.00    +0.109 C 
ENDBRANCH  26  29
ENDBRANCH  24  26
ENDBRANCH  20  21
ENDBRANCH   2  20
TORSDOF 6
