REMARK  Name = ZINC18613373
REMARK  7 active torsions:
REMARK  status: ('A' for Active; 'I' for Inactive)
REMARK    1  A    between atoms: C_1  and  C_2
REMARK    2  A    between atoms: C_2  and  C_4
REMARK    3  A    between atoms: C_2  and  S_17
REMARK    4  A    between atoms: S_17  and  C_18
REMARK    5  A    between atoms: C_19  and  C_33
REMARK    6  A    between atoms: C_20  and  C_29
REMARK    7  A    between atoms: C_22  and  C_24
REMARK                            x       y       z     vdW  Elec       q    Type
REMARK                         _______ _______ _______ _____ _____    ______ ____
ROOT
ATOM      1  S   UNL     1      -0.772   8.681   0.058  0.00  0.00    -0.092 S 
ENDROOT
BRANCH   1   2
ATOM      2  C   UNL     1       0.430   7.393   0.038  0.00  0.00    +0.116 A 
ATOM      3  C   UNL     1       1.800   7.716   0.026  0.00  0.00    +0.095 A 
ATOM      4  C   UNL     1       2.743   6.678   0.011  0.00  0.00    +0.077 A 
ATOM      5  C   UNL     1       2.289   5.376   0.009  0.00  0.00    +0.042 A 
ATOM      6  C   UNL     1       0.913   5.129   0.021  0.00  0.00    +0.079 A 
ATOM      7  N   UNL     1       0.038   6.130   0.030  0.00  0.00    -0.239 NA
BRANCH   6   8
ATOM      8  C   UNL     1       0.425   3.737   0.018  0.00  0.00    +0.038 A 
ATOM      9  C   UNL     1      -0.866   3.274   0.028  0.00  0.00    +0.017 A 
ATOM     10  C   UNL     1      -1.081   1.916   0.017  0.00  0.00    +0.008 A 
ATOM     11  C   UNL     1      -0.013   1.076   0.008  0.00  0.00    +0.046 A 
ATOM     12  S   UNL     1       1.360   2.217   0.001  0.00  0.00    -0.095 S 
ENDBRANCH   6   8
BRANCH   4  13
ATOM     13  C   UNL     1       4.220   6.979  -0.001  0.00  0.00    +0.419 C 
ATOM     14  F   UNL     1       4.940   5.780  -0.015  0.00  0.00    -0.166 F 
ATOM     15  F   UNL     1       4.534   7.725  -1.143  0.00  0.00    -0.166 F 
ATOM     16  F   UNL     1       4.556   7.713   1.142  0.00  0.00    -0.166 F 
ENDBRANCH   4  13
BRANCH   3  17
ATOM     17  C   UNL     1       2.224   9.083   0.030  0.00  0.00    +0.102 C 
ATOM     18  N   UNL     1       2.561  10.168   0.033  0.00  0.00    -0.191 NA
ENDBRANCH   3  17
ENDBRANCH   1   2
BRANCH   1  20
ATOM     19  C   UNL     1      -2.399   6.914  -1.244  0.00  0.00    +0.029 C 
ATOM     20  C   UNL     1      -2.290   7.695   0.067  0.00  0.00    +0.136 C 
BRANCH  20  21
ATOM     21  C   UNL     1      -3.481   8.608   0.208  0.00  0.00    +0.233 C 
ATOM     22  O   UNL     1      -3.405   9.764  -0.150  0.00  0.00    -0.274 OA
ATOM     23  N   UNL     1      -4.630   8.139   0.733  0.00  0.00    -0.260 N 
ATOM     24  C   UNL     1      -4.750   6.740   1.170  0.00  0.00    +0.209 C 
ATOM     25  C   UNL     1      -6.087   6.201   0.743  0.00  0.00    +0.235 C 
ATOM     26  O   UNL     1      -6.208   5.016   0.515  0.00  0.00    -0.274 OA
ATOM     27  N   UNL     1      -7.149   7.017   0.606  0.00  0.00    -0.283 N 
ATOM     28  C   UNL     1      -7.024   8.395   0.814  0.00  0.00    +0.055 A 
ATOM     29  C   UNL     1      -5.753   8.970   0.875  0.00  0.00    +0.058 A 
ATOM     30  C   UNL     1      -5.615  10.331   1.073  0.00  0.00    +0.025 A 
ATOM     31  C   UNL     1      -6.741  11.123   1.214  0.00  0.00    +0.002 A 
ATOM     32  C   UNL     1      -8.001  10.555   1.157  0.00  0.00    +0.002 A 
ATOM     33  C   UNL     1      -8.146   9.194   0.957  0.00  0.00    +0.025 A 
ATOM     34  H   UNL     1      -8.011   6.645   0.360  0.00  0.00    +0.155 HD
ENDBRANCH  20  21
ENDBRANCH   1  20
TORSDOF 6
