REMARK  Name = ZINC64502433
REMARK  6 active torsions:
REMARK  status: ('A' for Active; 'I' for Inactive)
REMARK    1  A    between atoms: C_7  and  C_10
REMARK    2  A    between atoms: C_10  and  C_11
REMARK    3  A    between atoms: C_11  and  N_12
REMARK    4  A    between atoms: C_16  and  S_19
REMARK    5  A    between atoms: S_19  and  C_22
REMARK    6  A    between atoms: C_22  and  C_23
REMARK                            x       y       z     vdW  Elec       q    Type
REMARK                         _______ _______ _______ _____ _____    ______ ____
ROOT
ATOM      1  N   UNL     1      -0.458  -4.798  -1.460  0.00  0.00    -0.327 N 
ATOM      2  C   UNL     1      -0.822  -5.399  -2.660  0.00  0.00    +0.141 A 
ATOM      3  C   UNL     1      -0.313  -4.918  -3.867  0.00  0.00    +0.049 A 
ATOM      4  C   UNL     1      -0.706  -5.553  -5.034  0.00  0.00    +0.052 A 
ATOM      5  C   UNL     1      -1.581  -6.626  -4.932  0.00  0.00    +0.199 A 
ATOM      6  N   UNL     1      -2.013  -7.013  -3.748  0.00  0.00    -0.129 NA
ATOM      7  N   UNL     1      -1.649  -6.434  -2.662  0.00  0.00    -0.133 NA
ATOM      8  H   UNL     1      -0.810  -5.136  -0.622  0.00  0.00    +0.148 HD
ENDROOT
BRANCH   5   9
ATOM      9  S   UNL     1      -2.115  -7.469  -6.384  0.00  0.00    +0.020 S 
ATOM     10  O   UNL     1      -3.375  -8.026  -6.037  0.00  0.00    -0.168 OA
ATOM     11  O   UNL     1      -2.010  -6.505  -7.422  0.00  0.00    -0.168 OA
BRANCH   9  12
ATOM     12  C   UNL     1      -0.895  -8.789  -6.631  0.00  0.00    +0.208 C 
BRANCH  12  13
ATOM     13  C   UNL     1      -1.256  -9.583  -7.859  0.00  0.00    -0.026 A 
ATOM     14  C   UNL     1      -2.088 -10.682  -7.752  0.00  0.00    +0.006 A 
ATOM     15  C   UNL     1      -2.421 -11.411  -8.878  0.00  0.00    +0.020 A 
ATOM     16  C   UNL     1      -1.920 -11.041 -10.114  0.00  0.00    +0.041 A 
ATOM     17  C   UNL     1      -1.087  -9.941 -10.221  0.00  0.00    +0.020 A 
ATOM     18  C   UNL     1      -0.760  -9.210  -9.095  0.00  0.00    +0.006 A 
ATOM     19 CL   UNL     1      -2.336 -11.956 -11.529  0.00  0.00    -0.084 Cl
ENDBRANCH  12  13
ENDBRANCH   9  12
ENDBRANCH   5   9
BRANCH   1  20
ATOM     20  C   UNL     1       0.457  -3.653  -1.462  0.00  0.00    +0.107 C 
BRANCH  20  21
ATOM     21  C   UNL     1       0.691  -3.186  -0.024  0.00  0.00    +0.052 C 
BRANCH  21  28
ATOM     22  C   UNL     1      -0.016   1.348   0.009  0.00  0.00    +0.001 A 
ATOM     23  C   UNL     1       1.166   2.101   0.002  0.00  0.00    +0.002 A 
ATOM     24  C   UNL     1       2.391   1.535  -0.013  0.00  0.00    +0.026 A 
ATOM     25  C   UNL     1       2.529   0.120  -0.022  0.00  0.00    +0.043 A 
ATOM     26  N   UNL     1       3.587  -0.654  -0.037  0.00  0.00    -0.380 N 
ATOM     27  C   UNL     1       3.143  -2.053  -0.041  0.00  0.00    +0.144 C 
ATOM     28  C   UNL     1       1.631  -2.008  -0.025  0.00  0.00    -0.040 C 
ATOM     29  C   UNL     1       1.295  -0.698  -0.014  0.00  0.00    -0.001 A 
ATOM     30  C   UNL     1       0.002  -0.004   0.002  0.00  0.00    +0.010 A 
ATOM     31  H   UNL     1       4.509  -0.353  -0.045  0.00  0.00    +0.160 HD
ENDBRANCH  21  28
ENDBRANCH  20  21
ENDBRANCH   1  20
TORSDOF 6
