REMARK  Name = ZINC39521123
REMARK  8 active torsions:
REMARK  status: ('A' for Active; 'I' for Inactive)
REMARK    1  A    between atoms: C_1  and  C_2
REMARK    2  A    between atoms: C_2  and  C_3
REMARK    3  A    between atoms: C_2  and  S_4
REMARK    4  A    between atoms: S_4  and  C_7
REMARK    5  A    between atoms: N_13  and  C_14
REMARK    6  A    between atoms: C_14  and  C_15
REMARK    7  A    between atoms: C_24  and  S_27
REMARK    8  A    between atoms: S_27  and  C_30
REMARK                            x       y       z     vdW  Elec       q    Type
REMARK                         _______ _______ _______ _____ _____    ______ ____
ROOT
ATOM      1  C   UNL     1      -0.733  -2.259   0.932  0.00  0.00    +0.079 C 
ATOM      2  C   UNL     1      -1.835  -3.304   0.746  0.00  0.00    +0.007 C 
ATOM      3  C   UNL     1      -1.549  -4.505   1.651  0.00  0.00    -0.001 C 
ATOM      4  C   UNL     1      -1.444  -4.025   3.102  0.00  0.00    -0.012 C 
ATOM      5  C   UNL     1      -0.357  -2.953   3.202  0.00  0.00    -0.061 C 
ATOM      6  N   UNL     1      -0.701  -1.821   2.333  0.00  0.00    +0.401 N 
ATOM      7  C   UNL     1       0.984  -3.545   2.764  0.00  0.00    -0.012 C 
ATOM      8  C   UNL     1       2.073  -2.476   2.868  0.00  0.00    +0.001 C 
ATOM      9  C   UNL     1       2.178  -1.994   4.317  0.00  0.00    +0.026 C 
ATOM     10  C   UNL     1       0.837  -1.401   4.755  0.00  0.00    +0.135 C 
ATOM     11  C   UNL     1      -0.252  -2.471   4.651  0.00  0.00    +0.015 C 
ATOM     12  H   UNL     1      -0.011  -1.093   2.441  0.00  0.00    -0.078 HD
ENDROOT
BRANCH   1  13
ATOM     13  S   UNL     1      -1.065  -0.833  -0.139  0.00  0.00    -0.041 S 
ATOM     14  O   UNL     1      -0.676   0.347   0.551  0.00  0.00    -0.176 OA
ATOM     15  O   UNL     1      -2.394  -0.940  -0.629  0.00  0.00    -0.176 OA
BRANCH  13  17
ATOM     16  C   UNL     1      -0.118   0.009  -2.563  0.00  0.00    +0.031 C 
ATOM     17  C   UNL     1       0.080  -1.094  -1.521  0.00  0.00    +0.122 C 
ATOM     18  C   UNL     1       1.520  -1.055  -1.005  0.00  0.00    +0.031 C 
ENDBRANCH  13  17
ENDBRANCH   1  13
BRANCH  10  19
ATOM     19  S   UNL     1       0.961  -0.830   6.472  0.00  0.00    -0.000 S 
ATOM     20  O   UNL     1      -0.213  -0.118   6.836  0.00  0.00    -0.169 OA
ATOM     21  O   UNL     1       1.464  -1.870   7.299  0.00  0.00    -0.169 OA
BRANCH  19  22
ATOM     22  C   UNL     1       2.237   0.386   6.454  0.00  0.00    +0.088 A 
ATOM     23  C   UNL     1       3.551   0.012   6.665  0.00  0.00    +0.027 A 
ATOM     24  C   UNL     1       4.551   0.966   6.651  0.00  0.00    +0.002 A 
ATOM     25  C   UNL     1       4.238   2.293   6.424  0.00  0.00    +0.000 A 
ATOM     26  C   UNL     1       2.924   2.667   6.212  0.00  0.00    +0.002 A 
ATOM     27  C   UNL     1       1.924   1.712   6.222  0.00  0.00    +0.027 A 
ENDBRANCH  19  22
ENDBRANCH  10  19
BRANCH   6  28
ATOM     28  C   UNL     1      -2.021  -1.299   2.711  0.00  0.00    -0.040 C 
BRANCH  28  29
ATOM     29  C   UNL     1      -2.081   0.178   2.415  0.00  0.00    -0.064 A 
ATOM     30  C   UNL     1      -1.170   1.037   3.001  0.00  0.00    +0.002 A 
ATOM     31  C   UNL     1      -1.225   2.392   2.729  0.00  0.00    +0.000 A 
ATOM     32  C   UNL     1      -2.190   2.886   1.873  0.00  0.00    +0.000 A 
ATOM     33  C   UNL     1      -3.100   2.027   1.287  0.00  0.00    +0.000 A 
ATOM     34  C   UNL     1      -3.043   0.672   1.554  0.00  0.00    +0.002 A 
ENDBRANCH  28  29
ENDBRANCH   6  28
TORSDOF 6
