REMARK  Name = ZINC21976429
REMARK  11 active torsions:
REMARK  status: ('A' for Active; 'I' for Inactive)
REMARK    1  A    between atoms: C_1  and  C_2
REMARK    2  A    between atoms: C_3  and  C_33
REMARK    3  A    between atoms: C_7  and  N_32
REMARK    4  A    between atoms: C_9  and  C_11
REMARK    5  A    between atoms: C_11  and  S_12
REMARK    6  A    between atoms: S_12  and  C_13
REMARK    7  A    between atoms: N_26  and  C_27
REMARK    8  A    between atoms: C_27  and  C_28
REMARK    9  A    between atoms: C_28  and  C_29
REMARK   10  A    between atoms: C_29  and  O_30
REMARK   11  A    between atoms: O_30  and  C_31
REMARK                            x       y       z     vdW  Elec       q    Type
REMARK                         _______ _______ _______ _____ _____    ______ ____
ROOT
ATOM      1  C   UNL     1      -3.068  -4.630   1.839  0.00  0.00    +0.198 A 
ATOM      2  N   UNL     1      -3.398  -5.010   0.628  0.00  0.00    -0.120 NA
ATOM      3  N   UNL     1      -4.335  -6.045   0.738  0.00  0.00    -0.109 NA
ATOM      4  C   UNL     1      -4.550  -6.268   2.015  0.00  0.00    +0.240 A 
ATOM      5  N   UNL     1      -3.768  -5.401   2.728  0.00  0.00    -0.256 N 
ATOM      6  C   UNL     1      -3.794  -5.406   4.121  0.00  0.00    +0.064 A 
ATOM      7  C   UNL     1      -3.008  -4.529   4.853  0.00  0.00    +0.027 A 
ATOM      8  C   UNL     1      -3.049  -4.558   6.233  0.00  0.00    +0.002 A 
ATOM      9  C   UNL     1      -3.869  -5.458   6.896  0.00  0.00    +0.001 A 
ATOM     10  C   UNL     1      -4.657  -6.338   6.183  0.00  0.00    +0.015 A 
ATOM     11  C   UNL     1      -4.625  -6.318   4.790  0.00  0.00    +0.064 A 
ATOM     12  C   UNL     1      -5.451  -7.242   3.992  0.00  0.00    +0.263 A 
ATOM     13  O   UNL     1      -6.183  -8.046   4.537  0.00  0.00    -0.267 OA
ATOM     14  N   UNL     1      -5.381  -7.180   2.647  0.00  0.00    -0.277 N 
ENDROOT
BRANCH   1  15
ATOM     15  S   UNL     1      -1.922  -3.357   2.249  0.00  0.00    -0.078 S 
BRANCH  15  16
ATOM     16  C   UNL     1      -1.351  -2.745   0.640  0.00  0.00    +0.153 C 
BRANCH  16  25
ATOM     17  C   UNL     1       3.773   1.431   1.567  0.00  0.00    +0.045 C 
ATOM     18  C   UNL     1       2.276   1.544   1.428  0.00  0.00    -0.028 A 
ATOM     19  C   UNL     1       1.678   2.742   1.487  0.00  0.00    -0.008 A 
ATOM     20  S   UNL     1      -0.050   2.356   1.276  0.00  0.00    -0.074 S 
ATOM     21  C   UNL     1       0.079   0.595   1.114  0.00  0.00    +0.114 A 
ATOM     22  C   UNL     1       1.466   0.355   1.229  0.00  0.00    +0.050 A 
ATOM     23  C   UNL     1       1.858  -1.008   1.133  0.00  0.00    +0.128 A 
ATOM     24  N   UNL     1       0.932  -1.935   0.949  0.00  0.00    -0.216 NA
ATOM     25  C   UNL     1      -0.351  -1.637   0.850  0.00  0.00    +0.143 A 
ATOM     26  N   UNL     1      -0.777  -0.391   0.930  0.00  0.00    -0.224 NA
ATOM     27  C   UNL     1       2.314   4.094   1.685  0.00  0.00    +0.052 C 
BRANCH  23  28
ATOM     28  N   UNL     1       3.192  -1.361   1.231  0.00  0.00    -0.343 N 
ATOM     29  H   UNL     1       3.488  -2.418   1.156  0.00  0.00    +0.144 HD
ATOM     30  H   UNL     1       3.957  -0.586   1.384  0.00  0.00    +0.144 HD
ENDBRANCH  23  28
ENDBRANCH  16  25
ENDBRANCH  15  16
ENDBRANCH   1  15
BRANCH  14  31
ATOM     31  C   UNL     1      -6.196  -8.092   1.840  0.00  0.00    +0.130 C 
BRANCH  31  32
ATOM     32  C   UNL     1      -5.409  -9.376   1.571  0.00  0.00    +0.050 C 
BRANCH  32  33
ATOM     33  C   UNL     1      -6.260 -10.329   0.728  0.00  0.00    +0.161 C 
BRANCH  33  34
ATOM     34  O   UNL     1      -5.526 -11.528   0.477  0.00  0.00    -0.383 OA
ATOM     35  C   UNL     1      -6.234 -12.490  -0.307  0.00  0.00    +0.193 C 
ENDBRANCH  33  34
ENDBRANCH  32  33
ENDBRANCH  31  32
ENDBRANCH  14  31
TORSDOF 8
