REMARK  Name = ZINC35784714
REMARK  17 active torsions:
REMARK  status: ('A' for Active; 'I' for Inactive)
REMARK    1  A    between atoms: C_1  and  C_2
REMARK    2  A    between atoms: C_2  and  C_3
REMARK    3  A    between atoms: C_3  and  C_4
REMARK    4  A    between atoms: C_4  and  O_5
REMARK    5  A    between atoms: O_5  and  C_6
REMARK    6  A    between atoms: C_6  and  C_7
REMARK    7  A    between atoms: C_7  and  C_9
REMARK    8  A    between atoms: C_7  and  O_36
REMARK    9  A    between atoms: C_9  and  N_10
REMARK   10  A    between atoms: N_10  and  C_11
REMARK   11  A    between atoms: N_10  and  C_32
REMARK   12  A    between atoms: C_11  and  C_12
REMARK   13  A    between atoms: C_13  and  C_31
REMARK   14  A    between atoms: N_15  and  C_25
REMARK   15  A    between atoms: C_16  and  O_17
REMARK   16  A    between atoms: O_17  and  C_18
REMARK   17  A    between atoms: C_32  and  C_33
REMARK                            x       y       z     vdW  Elec       q    Type
REMARK                         _______ _______ _______ _____ _____    ______ ____
ROOT
ATOM      1  C   UNL     1      -7.910  -8.041  -0.224  0.00  0.00    +0.021 A 
ATOM      2  C   UNL     1      -8.951  -8.239   0.688  0.00  0.00    +0.065 A 
ATOM      3  N   UNL     1     -10.085  -8.201   0.037  0.00  0.00    -0.168 NA
ATOM      4  N   UNL     1      -9.810  -7.976  -1.318  0.00  0.00    -0.200 N 
ATOM      5  C   UNL     1      -8.461  -7.875  -1.456  0.00  0.00    +0.225 A 
ATOM      6  C   UNL     1      -8.793  -8.460   2.171  0.00  0.00    +0.068 C 
ENDROOT
BRANCH   4   7
ATOM      7  C   UNL     1     -10.756  -7.870  -2.347  0.00  0.00    +0.069 A 
ATOM      8  C   UNL     1     -10.565  -6.956  -3.375  0.00  0.00    +0.028 A 
ATOM      9  C   UNL     1     -11.499  -6.854  -4.387  0.00  0.00    +0.002 A 
ATOM     10  C   UNL     1     -12.623  -7.660  -4.378  0.00  0.00    +0.000 A 
ATOM     11  C   UNL     1     -12.816  -8.570  -3.355  0.00  0.00    +0.002 A 
ATOM     12  C   UNL     1     -11.883  -8.681  -2.342  0.00  0.00    +0.028 A 
ENDBRANCH   4   7
BRANCH   1  13
ATOM     13  C   UNL     1      -6.439  -8.010   0.102  0.00  0.00    -0.036 C 
BRANCH  13  14
ATOM     14  N   UNL     1      -6.038  -6.634   0.426  0.00  0.00    +0.384 N 
ATOM     15  H   UNL     1      -6.262  -6.027  -0.348  0.00  0.00    -0.081 HD
BRANCH  14  16
ATOM     16  C   UNL     1      -4.592  -6.592   0.678  0.00  0.00    -0.044 C 
BRANCH  16  17
ATOM     17  C   UNL     1      -3.839  -6.874  -0.623  0.00  0.00    +0.124 C 
BRANCH  17  18
ATOM     18  O   UNL     1      -4.054  -8.231  -1.014  0.00  0.00    -0.391 OA
ATOM     19  H   UNL     1      -3.752  -8.880  -0.364  0.00  0.00    +0.210 HD
ENDBRANCH  17  18
BRANCH  17  20
ATOM     20  C   UNL     1      -2.342  -6.636  -0.409  0.00  0.00    +0.189 C 
BRANCH  20  21
ATOM     21  O   UNL     1      -1.653  -6.785  -1.652  0.00  0.00    -0.377 OA
BRANCH  21  22
ATOM     22  C   UNL     1      -0.242  -6.582  -1.562  0.00  0.00    +0.160 C 
BRANCH  22  23
ATOM     23  C   UNL     1       0.389  -6.766  -2.943  0.00  0.00    +0.028 C 
BRANCH  23  25
ATOM     24  C   UNL     1       2.531  -6.732  -4.229  0.00  0.00    +0.004 C 
ATOM     25  C   UNL     1       1.901  -6.549  -2.847  0.00  0.00    -0.001 C 
ENDBRANCH  23  25
ENDBRANCH  22  23
ENDBRANCH  21  22
ENDBRANCH  20  21
ENDBRANCH  17  20
ENDBRANCH  16  17
ENDBRANCH  14  16
BRANCH  14  26
ATOM     26  C   UNL     1      -6.758  -6.184   1.626  0.00  0.00    -0.075 C 
BRANCH  26  27
ATOM     27  C   UNL     1      -6.428  -4.715   1.897  0.00  0.00    -0.028 C 
ATOM     28  C   UNL     1      -5.665  -4.388   3.183  0.00  0.00    +0.002 C 
ATOM     29  C   UNL     1      -7.149  -4.033   3.061  0.00  0.00    +0.002 C 
ENDBRANCH  26  27
ENDBRANCH  14  26
ENDBRANCH  13  14
ENDBRANCH   1  13
BRANCH   5  30
ATOM     30  O   UNL     1      -7.787  -7.651  -2.613  0.00  0.00    -0.438 OA
BRANCH  30  31
ATOM     31  C   UNL     1      -7.487  -8.723  -3.394  0.00  0.00    +0.131 A 
ATOM     32  C   UNL     1      -7.963  -9.982  -3.057  0.00  0.00    +0.049 A 
ATOM     33  C   UNL     1      -7.658 -11.070  -3.852  0.00  0.00    +0.042 A 
ATOM     34  C   UNL     1      -6.878 -10.904  -4.984  0.00  0.00    +0.124 A 
ATOM     35  C   UNL     1      -6.402  -9.648  -5.321  0.00  0.00    +0.042 A 
ATOM     36  C   UNL     1      -6.710  -8.557  -4.531  0.00  0.00    +0.049 A 
ATOM     37  F   UNL     1      -6.580 -11.969  -5.761  0.00  0.00    -0.205 F 
ENDBRANCH  30  31
ENDBRANCH   5  30
TORSDOF 15
