REMARK  Name = ZINC40744741
REMARK  10 active torsions:
REMARK  status: ('A' for Active; 'I' for Inactive)
REMARK    1  A    between atoms: C_1  and  N_2
REMARK    2  A    between atoms: C_3  and  S_7
REMARK    3  A    between atoms: S_7  and  C_8
REMARK    4  A    between atoms: C_8  and  C_9
REMARK    5  A    between atoms: C_9  and  N_10
REMARK    6  A    between atoms: N_10  and  C_11
REMARK    7  A    between atoms: C_11  and  C_12
REMARK    8  A    between atoms: C_21  and  O_22
REMARK    9  A    between atoms: O_22  and  C_23
REMARK   10  A    between atoms: C_23  and  C_24
REMARK                            x       y       z     vdW  Elec       q    Type
REMARK                         _______ _______ _______ _____ _____    ______ ____
ROOT
ATOM      1  C   UNL     1       0.018  -3.876  -8.141  0.00  0.00    -0.015 A 
ATOM      2  C   UNL     1       1.239  -4.471  -8.500  0.00  0.00    -0.013 A 
ATOM      3  C   UNL     1       2.467  -3.877  -8.159  0.00  0.00    +0.009 A 
ATOM      4  C   UNL     1       3.631  -4.482  -8.523  0.00  0.00    +0.001 A 
ATOM      5  C   UNL     1       3.625  -5.683  -9.230  0.00  0.00    +0.001 A 
ATOM      6  C   UNL     1       2.456  -6.287  -9.577  0.00  0.00    +0.008 A 
ATOM      7  C   UNL     1       1.234  -5.693  -9.218  0.00  0.00    -0.017 A 
ATOM      8  C   UNL     1       0.006  -6.288  -9.559  0.00  0.00    +0.012 A 
ATOM      9  C   UNL     1      -1.159  -5.687  -9.197  0.00  0.00    +0.046 A 
ATOM     10  C   UNL     1      -1.155  -4.484  -8.484  0.00  0.00    +0.123 A 
ENDROOT
BRANCH   1  11
ATOM     11  C   UNL     1       0.004  -2.578  -7.377  0.00  0.00    -0.042 C 
BRANCH  11  12
ATOM     12  N   UNL     1       0.014  -2.858  -5.935  0.00  0.00    +0.382 N 
ATOM     13  H   UNL     1       0.847  -3.377  -5.699  0.00  0.00    -0.085 HD
ATOM     14  H   UNL     1      -0.801  -3.400  -5.692  0.00  0.00    -0.085 HD
BRANCH  12  15
ATOM     15  C   UNL     1       0.000  -1.592  -5.190  0.00  0.00    -0.071 C 
BRANCH  15  16
ATOM     16  C   UNL     1       0.011  -1.884  -3.688  0.00  0.00    +0.058 C 
BRANCH  16  17
ATOM     17  S   UNL     1      -0.006  -0.321  -2.768  0.00  0.00    -0.086 S 
BRANCH  17  20
ATOM     18  C   UNL     1      -0.018   1.461   0.010  0.00  0.00    +0.177 C 
ATOM     19  N   UNL     1       0.002  -0.004   0.002  0.00  0.00    -0.223 N 
ATOM     20  C   UNL     1       0.008  -0.820  -1.078  0.00  0.00    +0.209 A 
ATOM     21  N   UNL     1       0.027  -2.056  -0.629  0.00  0.00    -0.102 NA
ATOM     22  N   UNL     1       0.033  -2.068   0.655  0.00  0.00    -0.022 NA
ATOM     23  N   UNL     1       0.025  -0.864   1.114  0.00  0.00    -0.043 NA
ENDBRANCH  17  20
ENDBRANCH  16  17
ENDBRANCH  15  16
ENDBRANCH  12  15
ENDBRANCH  11  12
ENDBRANCH   1  11
BRANCH  10  24
ATOM     24  O   UNL     1      -2.336  -3.911  -8.132  0.00  0.00    -0.487 OA
BRANCH  24  25
ATOM     25  C   UNL     1      -3.530  -4.594  -8.518  0.00  0.00    +0.264 C 
BRANCH  25  26
ATOM     26  C   UNL     1      -4.730  -3.815  -8.044  0.00  0.00    -0.009 A 
ATOM     27  C   UNL     1      -5.264  -4.061  -6.793  0.00  0.00    +0.007 A 
ATOM     28  C   UNL     1      -6.364  -3.347  -6.358  0.00  0.00    +0.002 A 
ATOM     29  C   UNL     1      -6.932  -2.387  -7.174  0.00  0.00    +0.020 A 
ATOM     30  C   UNL     1      -6.399  -2.140  -8.426  0.00  0.00    +0.041 A 
ATOM     31  C   UNL     1      -5.293  -2.851  -8.859  0.00  0.00    +0.027 A 
ATOM     32 CL   UNL     1      -7.112  -0.934  -9.452  0.00  0.00    -0.084 Cl
ENDBRANCH  25  26
ENDBRANCH  24  25
ENDBRANCH  10  24
TORSDOF 9
