REMARK  Name = ZINC38609949
REMARK  11 active torsions:
REMARK  status: ('A' for Active; 'I' for Inactive)
REMARK    1  A    between atoms: C_1  and  C_2
REMARK    2  A    between atoms: C_2  and  O_3
REMARK    3  A    between atoms: O_3  and  C_4
REMARK    4  A    between atoms: C_4  and  C_6
REMARK    5  A    between atoms: C_8  and  N_18
REMARK    6  A    between atoms: C_11  and  O_16
REMARK    7  A    between atoms: O_16  and  C_17
REMARK    8  A    between atoms: C_19  and  C_21
REMARK    9  A    between atoms: C_21  and  C_23
REMARK   10  A    between atoms: C_21  and  N_24
REMARK   11  A    between atoms: C_29  and  C_31
REMARK                            x       y       z     vdW  Elec       q    Type
REMARK                         _______ _______ _______ _____ _____    ______ ____
ROOT
ATOM      1  C   UNL     1      -3.590  -3.967   1.879  0.00  0.00    +0.234 C 
ATOM      2  C   UNL     1      -3.347  -2.551   1.406  0.00  0.00    +0.053 C 
ATOM      3  C   UNL     1      -2.756  -2.668   0.161  0.00  0.00    +0.021 A 
ATOM      4  C   UNL     1      -2.300  -1.705  -0.774  0.00  0.00    +0.057 A 
ATOM      5  C   UNL     1      -1.749  -2.115  -1.947  0.00  0.00    +0.121 A 
ATOM      6  C   UNL     1      -1.618  -3.475  -2.260  0.00  0.00    +0.047 A 
ATOM      7  C   UNL     1      -2.033  -4.446  -1.412  0.00  0.00    +0.029 A 
ATOM      8  C   UNL     1      -2.619  -4.097  -0.167  0.00  0.00    +0.045 A 
ATOM      9  N   UNL     1      -3.093  -4.842   0.813  0.00  0.00    -0.367 N 
ATOM     10  H   UNL     1      -3.111  -5.812   0.826  0.00  0.00    +0.161 HD
ENDROOT
BRANCH   2  11
ATOM     11  N   UNL     1      -3.648  -1.398   2.070  0.00  0.00    -0.288 N 
ATOM     12  C   UNL     1      -4.073  -1.448   3.347  0.00  0.00    +0.203 C 
ATOM     13  O   UNL     1      -4.083  -2.504   3.943  0.00  0.00    -0.277 OA
ATOM     14  H   UNL     1      -3.556  -0.543   1.622  0.00  0.00    +0.155 HD
BRANCH  12  15
ATOM     15  C   UNL     1      -4.537  -0.190   4.037  0.00  0.00    +0.017 C 
ATOM     16  C   UNL     1      -3.359   0.775   4.181  0.00  0.00    -0.004 C 
BRANCH  15  17
ATOM     17  N   UNL     1      -5.061  -0.526   5.367  0.00  0.00    +0.389 N 
ATOM     18  C   UNL     1      -3.971  -1.040   6.206  0.00  0.00    -0.077 C 
ATOM     19  C   UNL     1      -4.527  -1.466   7.566  0.00  0.00    -0.019 C 
ATOM     20  C   UNL     1      -5.173  -0.258   8.249  0.00  0.00    -0.003 C 
ATOM     21  C   UNL     1      -6.258   0.315   7.333  0.00  0.00    -0.016 C 
ATOM     22  C   UNL     1      -5.638   0.676   5.981  0.00  0.00    -0.071 C 
ATOM     23  C   UNL     1      -6.718   1.249   5.062  0.00  0.00    -0.013 C 
ATOM     24  H   UNL     1      -5.776  -1.233   5.277  0.00  0.00    -0.080 HD
ENDBRANCH  15  17
ENDBRANCH  12  15
ENDBRANCH   2  11
BRANCH   1  25
ATOM     25  C   UNL     1      -5.064  -4.196   2.095  0.00  0.00    +0.336 C 
ATOM     26  O   UNL     1      -5.746  -4.625   1.195  0.00  0.00    -0.248 OA
BRANCH  25  27
ATOM     27  O   UNL     1      -5.618  -3.924   3.286  0.00  0.00    -0.463 OA
BRANCH  27  29
ATOM     28  C   UNL     1      -7.468  -3.798   4.836  0.00  0.00    +0.048 C 
ATOM     29  C   UNL     1      -7.021  -4.165   3.420  0.00  0.00    +0.229 C 
ENDBRANCH  27  29
ENDBRANCH  25  27
ENDBRANCH   1  25
BRANCH   5  30
ATOM     30  O   UNL     1      -1.314  -1.183  -2.837  0.00  0.00    -0.495 OA
ATOM     31  C   UNL     1      -0.742  -1.667  -4.055  0.00  0.00    +0.277 C 
ENDBRANCH   5  30
TORSDOF 7
