REMARK  Name = ZINC48020715
REMARK  8 active torsions:
REMARK  status: ('A' for Active; 'I' for Inactive)
REMARK    1  A    between atoms: C_1  and  C_2
REMARK    2  A    between atoms: C_5  and  C_29
REMARK    3  A    between atoms: N_8  and  C_10
REMARK    4  A    between atoms: C_10  and  C_11
REMARK    5  A    between atoms: C_11  and  N_12
REMARK    6  A    between atoms: N_15  and  C_16
REMARK    7  A    between atoms: C_16  and  C_18
REMARK    8  A    between atoms: C_16  and  C_19
REMARK                            x       y       z     vdW  Elec       q    Type
REMARK                         _______ _______ _______ _____ _____    ______ ____
ROOT
ATOM      1  N   UNL     1       3.766  -2.508   3.387  0.00  0.00    -0.301 N 
ATOM      2  C   UNL     1       5.085  -2.243   3.470  0.00  0.00    +0.300 C 
ATOM      3  O   UNL     1       5.633  -1.606   2.592  0.00  0.00    -0.253 OA
ATOM      4  N   UNL     1       5.796  -2.685   4.526  0.00  0.00    -0.293 N 
ATOM      5  H   UNL     1       3.329  -3.017   4.088  0.00  0.00    +0.150 HD
ATOM      6  H   UNL     1       5.359  -3.193   5.227  0.00  0.00    +0.151 HD
ENDROOT
BRANCH   4   7
ATOM      7  C   UNL     1       7.230  -2.397   4.616  0.00  0.00    +0.102 C 
ATOM      8  C   UNL     1       7.434  -1.016   5.242  0.00  0.00    +0.033 C 
BRANCH   7   9
ATOM      9  C   UNL     1       7.899  -3.441   5.473  0.00  0.00    -0.024 A 
ATOM     10  C   UNL     1       7.269  -3.907   6.611  0.00  0.00    +0.009 A 
ATOM     11  C   UNL     1       7.880  -4.864   7.400  0.00  0.00    +0.050 A 
ATOM     12  C   UNL     1       9.128  -5.359   7.050  0.00  0.00    +0.162 A 
ATOM     13  C   UNL     1       9.760  -4.891   5.904  0.00  0.00    +0.162 A 
ATOM     14  C   UNL     1       9.139  -3.935   5.115  0.00  0.00    +0.055 A 
ATOM     15  O   UNL     1      10.981  -5.369   5.539  0.00  0.00    -0.485 OA
ATOM     16  C   UNL     1      11.732  -6.055   6.547  0.00  0.00    +0.270 C 
ATOM     17  C   UNL     1      10.795  -7.041   7.257  0.00  0.00    +0.270 C 
ATOM     18  O   UNL     1       9.719  -6.297   7.839  0.00  0.00    -0.485 OA
ENDBRANCH   7   9
ENDBRANCH   4   7
BRANCH   1  19
ATOM     19  C   UNL     1       2.993  -2.028   2.239  0.00  0.00    +0.087 C 
BRANCH  19  20
ATOM     20  C   UNL     1       1.534  -2.461   2.390  0.00  0.00    -0.060 C 
BRANCH  20  26
ATOM     21  C   UNL     1      -0.019   1.526   0.010  0.00  0.00    +0.005 C 
ATOM     22  C   UNL     1       0.002  -0.004   0.002  0.00  0.00    -0.031 C 
ATOM     23  C   UNL     1      -1.434  -0.535   0.015  0.00  0.00    +0.003 C 
ATOM     24  C   UNL     1      -1.402  -2.064   0.086  0.00  0.00    -0.031 C 
ATOM     25  C   UNL     1      -0.613  -2.496   1.324  0.00  0.00    -0.076 C 
ATOM     26  N   UNL     1       0.758  -1.980   1.239  0.00  0.00    +0.381 N 
ATOM     27  C   UNL     1       0.740  -0.512   1.242  0.00  0.00    -0.076 C 
ATOM     28  C   UNL     1      -0.728  -2.620  -1.170  0.00  0.00    +0.005 C 
ATOM     29  H   UNL     1       1.188  -2.307   0.386  0.00  0.00    -0.082 HD
ENDBRANCH  20  26
ENDBRANCH  19  20
ENDBRANCH   1  19
TORSDOF 5
