REMARK  Name = ZINC19297346
REMARK  9 active torsions:
REMARK  status: ('A' for Active; 'I' for Inactive)
REMARK    1  A    between atoms: C_1  and  C_2
REMARK    2  A    between atoms: N_13  and  C_24
REMARK    3  A    between atoms: C_14  and  S_16
REMARK    4  A    between atoms: S_16  and  C_17
REMARK    5  A    between atoms: C_17  and  C_19
REMARK    6  A    between atoms: C_17  and  C_20
REMARK    7  A    between atoms: N_22  and  C_23
REMARK    8  A    between atoms: C_29  and  O_30
REMARK    9  A    between atoms: O_30  and  C_31
REMARK                            x       y       z     vdW  Elec       q    Type
REMARK                         _______ _______ _______ _____ _____    ______ ____
ROOT
ATOM      1  C   UNL     1      10.193   2.660  -0.164  0.00  0.00    +0.008 C 
ATOM      2  C   UNL     1       8.689   2.724  -0.439  0.00  0.00    -0.009 C 
ATOM      3  C   UNL     1       8.055   3.831   0.409  0.00  0.00    +0.008 C 
ATOM      4  C   UNL     1       6.613   4.067  -0.039  0.00  0.00    +0.037 C 
ATOM      5  C   UNL     1       5.873   2.732  -0.040  0.00  0.00    -0.023 A 
ATOM      6  C   UNL     1       6.552   1.567  -0.052  0.00  0.00    -0.004 A 
ATOM      7  S   UNL     1       5.306   0.307  -0.047  0.00  0.00    -0.073 S 
ATOM      8  C   UNL     1       3.871   1.351  -0.028  0.00  0.00    +0.117 A 
ATOM      9  C   UNL     1       4.411   2.648  -0.026  0.00  0.00    +0.076 A 
ATOM     10  C   UNL     1       3.462   3.719  -0.012  0.00  0.00    +0.268 A 
ATOM     11  O   UNL     1       3.840   4.878  -0.009  0.00  0.00    -0.267 OA
ATOM     12  N   UNL     1       2.148   3.429  -0.006  0.00  0.00    -0.252 N 
ATOM     13  C   UNL     1       1.708   2.135  -0.003  0.00  0.00    +0.178 A 
ATOM     14  N   UNL     1       2.561   1.131  -0.016  0.00  0.00    -0.215 NA
ATOM     15  C   UNL     1       8.039   1.384  -0.067  0.00  0.00    +0.046 C 
ENDROOT
BRANCH  12  16
ATOM     16  C   UNL     1       1.213   4.474   0.004  0.00  0.00    +0.095 A 
ATOM     17  C   UNL     1       0.760   4.991   1.208  0.00  0.00    +0.050 A 
ATOM     18  C   UNL     1      -0.162   6.022   1.215  0.00  0.00    +0.043 A 
ATOM     19  C   UNL     1      -0.634   6.539   0.021  0.00  0.00    +0.024 A 
ATOM     20  C   UNL     1      -0.187   6.028  -1.183  0.00  0.00    +0.049 A 
ATOM     21  C   UNL     1       0.741   4.999  -1.197  0.00  0.00    +0.144 A 
ATOM     22 CL   UNL     1      -0.728   6.668   2.723  0.00  0.00    -0.083 Cl
BRANCH  21  23
ATOM     23  O   UNL     1       1.186   4.500  -2.381  0.00  0.00    -0.493 OA
ATOM     24  C   UNL     1       0.658   5.087  -3.572  0.00  0.00    +0.277 C 
ENDBRANCH  21  23
ENDBRANCH  12  16
BRANCH  13  25
ATOM     25  S   UNL     1      -0.022   1.806   0.012  0.00  0.00    -0.075 S 
BRANCH  25  26
ATOM     26  C   UNL     1       0.002  -0.004   0.002  0.00  0.00    +0.137 C 
ATOM     27  C   UNL     1       0.606  -0.499  -1.314  0.00  0.00    +0.029 C 
BRANCH  26  28
ATOM     28  C   UNL     1      -1.405  -0.526   0.137  0.00  0.00    +0.226 C 
ATOM     29  O   UNL     1      -2.342   0.158  -0.216  0.00  0.00    -0.275 OA
ATOM     30  N   UNL     1      -1.622  -1.754   0.648  0.00  0.00    -0.317 N 
ATOM     31  C   UNL     1      -2.990  -2.262   0.779  0.00  0.00    +0.128 C 
ATOM     32  H   UNL     1      -0.772  -2.375   0.967  0.00  0.00    +0.148 HD
ENDBRANCH  26  28
ENDBRANCH  25  26
ENDBRANCH  13  25
TORSDOF 5
