REMARK  Name = ZINC40034001
REMARK  8 active torsions:
REMARK  status: ('A' for Active; 'I' for Inactive)
REMARK    1  A    between atoms: C_1  and  C_2
REMARK    2  A    between atoms: C_2  and  N_3
REMARK    3  A    between atoms: C_12  and  C_15
REMARK    4  A    between atoms: C_15  and  O_17
REMARK    5  A    between atoms: O_17  and  C_18
REMARK    6  A    between atoms: C_18  and  C_20
REMARK    7  A    between atoms: C_18  and  C_26
REMARK    8  A    between atoms: C_26  and  C_28
REMARK                            x       y       z     vdW  Elec       q    Type
REMARK                         _______ _______ _______ _____ _____    ______ ____
ROOT
ATOM      1  C   UNL     1       6.477  -0.860  -2.774  0.00  0.00    +0.277 C 
ENDROOT
BRANCH   1   2
ATOM      2  C   UNL     1       6.656  -1.877  -3.872  0.00  0.00    +0.000 A 
ATOM      3  C   UNL     1       6.188  -1.610  -5.145  0.00  0.00    +0.008 A 
ATOM      4  C   UNL     1       6.353  -2.543  -6.151  0.00  0.00    +0.000 A 
ATOM      5  C   UNL     1       6.987  -3.743  -5.885  0.00  0.00    +0.000 A 
ATOM      6  C   UNL     1       7.455  -4.009  -4.612  0.00  0.00    +0.000 A 
ATOM      7  C   UNL     1       7.294  -3.074  -3.607  0.00  0.00    +0.008 A 
ENDBRANCH   1   2
BRANCH   1   8
ATOM      8  C   UNL     1       7.530   0.210  -2.903  0.00  0.00    +0.206 C 
ATOM      9  O   UNL     1       7.234   1.305  -3.336  0.00  0.00    -0.288 OA
BRANCH   8  10
ATOM     10  C   UNL     1       8.861  -0.061  -2.520  0.00  0.00    +0.027 C 
ATOM     11  C   UNL     1       9.939   0.805  -2.569  0.00  0.00    +0.006 A 
ATOM     12  C   UNL     1      10.074   2.151  -2.986  0.00  0.00    +0.010 A 
ATOM     13  C   UNL     1      11.276   2.765  -2.924  0.00  0.00    +0.001 A 
ATOM     14  C   UNL     1      12.430   2.118  -2.455  0.00  0.00    +0.002 A 
ATOM     15  C   UNL     1      12.410   0.835  -2.035  0.00  0.00    +0.026 A 
ATOM     16  C   UNL     1      11.139   0.091  -2.068  0.00  0.00    +0.043 A 
ATOM     17  N   UNL     1      10.837  -1.129  -1.731  0.00  0.00    -0.380 N 
ATOM     18  C   UNL     1       9.407  -1.358  -1.964  0.00  0.00    +0.152 C 
ATOM     19  H   UNL     1      11.459  -1.784  -1.377  0.00  0.00    +0.160 HD
ENDBRANCH   8  10
ENDBRANCH   1   8
BRANCH   1  20
ATOM     20  O   UNL     1       5.181  -0.267  -2.882  0.00  0.00    -0.447 OA
BRANCH  20  21
ATOM     21  C   UNL     1       4.181  -0.863  -2.214  0.00  0.00    +0.331 C 
ATOM     22  O   UNL     1       4.398  -1.856  -1.560  0.00  0.00    -0.249 OA
BRANCH  21  32
ATOM     23  N   UNL     1       0.688  -0.476  -1.203  0.00  0.00    -0.232 N 
ATOM     24  C   UNL     1      -0.009  -0.597  -2.353  0.00  0.00    +0.260 C 
ATOM     25  O   UNL     1      -1.220  -0.499  -2.361  0.00  0.00    -0.269 OA
ATOM     26  C   UNL     1       0.741  -0.851  -3.602  0.00  0.00    +0.043 A 
ATOM     27  C   UNL     1       0.101  -1.210  -4.783  0.00  0.00    +0.013 A 
ATOM     28  C   UNL     1       0.854  -1.448  -5.917  0.00  0.00    +0.001 A 
ATOM     29  C   UNL     1       2.232  -1.331  -5.876  0.00  0.00    +0.000 A 
ATOM     30  C   UNL     1       2.873  -0.970  -4.702  0.00  0.00    +0.006 A 
ATOM     31  C   UNL     1       2.133  -0.723  -3.568  0.00  0.00    -0.006 A 
ATOM     32  C   UNL     1       2.786  -0.295  -2.280  0.00  0.00    +0.212 C 
ATOM     33  N   UNL     1       2.012  -0.778  -1.138  0.00  0.00    -0.220 NA
ATOM     34  H   UNL     1       2.152  -1.768  -1.004  0.00  0.00    +0.146 HD
BRANCH  23  36
ATOM     35  C   UNL     1      -0.019   1.526   0.010  0.00  0.00    +0.026 C 
ATOM     36  C   UNL     1       0.002  -0.004   0.002  0.00  0.00    +0.124 C 
ENDBRANCH  23  36
ENDBRANCH  21  32
ENDBRANCH  20  21
ENDBRANCH   1  20
TORSDOF 7
