REMARK  Name = ZINC13499201
REMARK  15 active torsions:
REMARK  status: ('A' for Active; 'I' for Inactive)
REMARK    1  A    between atoms: C_1  and  C_2
REMARK    2  A    between atoms: C_5  and  C_37
REMARK    3  A    between atoms: C_9  and  C_14
REMARK    4  A    between atoms: C_14  and  N_69
REMARK    5  A    between atoms: C_15  and  C_16
REMARK    6  A    between atoms: C_15  and  N_69
REMARK    7  A    between atoms: C_16  and  C_17
REMARK    8  A    between atoms: C_17  and  O_18
REMARK    9  A    between atoms: C_19  and  C_21
REMARK   10  A    between atoms: C_19  and  C_34
REMARK   11  A    between atoms: C_19  and  N_69
REMARK   12  A    between atoms: N_25  and  C_26
REMARK   13  A    between atoms: C_26  and  C_27
REMARK   14  A    between atoms: C_34  and  C_35
REMARK   15  A    between atoms: C_34  and  C_36
REMARK                            x       y       z     vdW  Elec       q    Type
REMARK                         _______ _______ _______ _____ _____    ______ ____
ROOT
ATOM      1  N   UNL     1      -3.570   1.846  -1.377  0.00  0.00    +0.389 N 
ATOM      2  H   UNL     1      -4.350   1.194  -1.518  0.00  0.00    -0.080 HD
ENDROOT
BRANCH   1   3
ATOM      3  C   UNL     1      -3.691   2.456  -0.036  0.00  0.00    -0.037 C 
BRANCH   3  12
ATOM      4  C   UNL     1      -1.239  -0.144   3.752  0.00  0.00    +0.044 C 
ATOM      5  C   UNL     1      -2.656  -0.657   3.701  0.00  0.00    -0.041 A 
ATOM      6  C   UNL     1      -3.063  -1.633   4.566  0.00  0.00    +0.004 A 
ATOM      7  C   UNL     1      -4.366  -2.111   4.528  0.00  0.00    +0.005 A 
ATOM      8  C   UNL     1      -5.272  -1.611   3.618  0.00  0.00    -0.026 A 
ATOM      9  C   UNL     1      -4.880  -0.617   2.728  0.00  0.00    +0.052 A 
ATOM     10  C   UNL     1      -3.558  -0.134   2.770  0.00  0.00    +0.002 A 
ATOM     11  C   UNL     1      -3.156   0.913   1.830  0.00  0.00    +0.017 A 
ATOM     12  C   UNL     1      -4.075   1.382   0.950  0.00  0.00    +0.001 A 
ATOM     13  C   UNL     1      -5.388   0.864   0.949  0.00  0.00    +0.251 A 
ATOM     14  O   UNL     1      -6.198   1.299   0.149  0.00  0.00    -0.268 OA
ATOM     15  N   UNL     1      -5.767  -0.098   1.809  0.00  0.00    -0.322 N 
ATOM     16  H   UNL     1      -6.677  -0.432   1.781  0.00  0.00    +0.169 HD
ATOM     17  C   UNL     1      -6.683  -2.140   3.588  0.00  0.00    +0.046 C 
ENDBRANCH   3  12
ENDBRANCH   1   3
BRANCH   1  18
ATOM     18  C   UNL     1      -2.297   1.103  -1.481  0.00  0.00    -0.075 C 
BRANCH  18  19
ATOM     19  C   UNL     1      -2.535  -0.337  -1.021  0.00  0.00    +0.009 C 
BRANCH  19  20
ATOM     20  C   UNL     1      -1.210  -1.102  -1.033  0.00  0.00    +0.154 C 
BRANCH  20  21
ATOM     21  O   UNL     1      -1.432  -2.446  -0.603  0.00  0.00    -0.395 OA
ATOM     22  H   UNL     1      -0.633  -2.991  -0.586  0.00  0.00    +0.209 HD
ENDBRANCH  20  21
ENDBRANCH  19  20
ENDBRANCH  18  19
ENDBRANCH   1  18
BRANCH   1  23
ATOM     23  C   UNL     1      -3.628   2.896  -2.416  0.00  0.00    +0.006 C 
BRANCH  23  24
ATOM     24  C   UNL     1      -4.006   2.256  -3.727  0.00  0.00    +0.139 A 
ATOM     25  N   UNL     1      -3.192   1.697  -4.588  0.00  0.00    -0.115 NA
ATOM     26  N   UNL     1      -3.895   1.266  -5.578  0.00  0.00    -0.023 NA
ATOM     27  N   UNL     1      -5.135   1.544  -5.375  0.00  0.00    -0.044 NA
ATOM     28  N   UNL     1      -5.245   2.154  -4.244  0.00  0.00    -0.226 N 
BRANCH  28  29
ATOM     29  C   UNL     1      -6.484   2.645  -3.636  0.00  0.00    +0.182 C 
BRANCH  29  30
ATOM     30  C   UNL     1      -6.852   3.973  -4.246  0.00  0.00    -0.026 A 
ATOM     31  C   UNL     1      -6.452   5.147  -3.637  0.00  0.00    +0.008 A 
ATOM     32  C   UNL     1      -6.784   6.365  -4.199  0.00  0.00    +0.038 A 
ATOM     33  C   UNL     1      -7.527   6.409  -5.366  0.00  0.00    +0.123 A 
ATOM     34  C   UNL     1      -7.932   5.232  -5.973  0.00  0.00    +0.038 A 
ATOM     35  C   UNL     1      -7.594   4.015  -5.412  0.00  0.00    +0.008 A 
ATOM     36  F   UNL     1      -7.857   7.599  -5.914  0.00  0.00    -0.205 F 
ENDBRANCH  29  30
ENDBRANCH  28  29
ENDBRANCH  23  24
BRANCH  23  37
ATOM     37  C   UNL     1      -2.269   3.584  -2.557  0.00  0.00    -0.024 C 
ATOM     38  C   UNL     1      -2.355   4.667  -3.636  0.00  0.00    +0.006 C 
ATOM     39  C   UNL     1      -1.880   4.224  -1.223  0.00  0.00    +0.006 C 
ENDBRANCH  23  37
ENDBRANCH   1  23
TORSDOF 11
