REMARK  Name = ZINC64120840
REMARK  11 active torsions:
REMARK  status: ('A' for Active; 'I' for Inactive)
REMARK    1  A    between atoms: C_1  and  C_2
REMARK    2  A    between atoms: C_7  and  N_8
REMARK    3  A    between atoms: C_10  and  C_24
REMARK    4  A    between atoms: C_12  and  C_15
REMARK    5  A    between atoms: C_18  and  O_22
REMARK    6  A    between atoms: O_22  and  C_23
REMARK    7  A    between atoms: C_24  and  N_25
REMARK    8  A    between atoms: N_25  and  C_26
REMARK    9  A    between atoms: N_25  and  C_27
REMARK   10  A    between atoms: C_27  and  C_28
REMARK   11  A    between atoms: C_32  and  C_34
REMARK                            x       y       z     vdW  Elec       q    Type
REMARK                         _______ _______ _______ _____ _____    ______ ____
ROOT
ATOM      1  N   UNL     1      -2.587  -1.222   1.978  0.00  0.00    -0.266 N 
ATOM      2  C   UNL     1      -2.917  -0.832   3.358  0.00  0.00    +0.131 C 
ATOM      3  C   UNL     1      -1.597  -0.292   3.959  0.00  0.00    +0.045 C 
ATOM      4  C   UNL     1      -0.550  -0.921   2.999  0.00  0.00    +0.109 C 
ATOM      5  N   UNL     1      -1.279  -0.914   1.707  0.00  0.00    -0.232 NA
ATOM      6  H   UNL     1      -0.877  -1.579   1.062  0.00  0.00    +0.145 HD
ENDROOT
BRANCH   1  13
ATOM      7  C   UNL     1      -2.978   0.019  -0.553  0.00  0.00    +0.046 C 
ATOM      8  C   UNL     1      -3.694  -1.250  -0.167  0.00  0.00    -0.028 A 
ATOM      9  C   UNL     1      -4.567  -1.848  -1.055  0.00  0.00    +0.005 A 
ATOM     10  C   UNL     1      -5.226  -3.011  -0.701  0.00  0.00    +0.000 A 
ATOM     11  C   UNL     1      -5.013  -3.580   0.541  0.00  0.00    +0.002 A 
ATOM     12  C   UNL     1      -4.141  -2.987   1.433  0.00  0.00    +0.025 A 
ATOM     13  C   UNL     1      -3.474  -1.821   1.080  0.00  0.00    +0.047 A 
ENDBRANCH   1  13
BRANCH   4  14
ATOM     14  C   UNL     1       0.692  -0.071   2.925  0.00  0.00    -0.026 A 
ATOM     15  C   UNL     1       0.709   1.058   2.128  0.00  0.00    +0.009 A 
ATOM     16  C   UNL     1       1.847   1.840   2.057  0.00  0.00    +0.049 A 
ATOM     17  C   UNL     1       2.973   1.490   2.787  0.00  0.00    +0.155 A 
ATOM     18  C   UNL     1       2.955   0.356   3.587  0.00  0.00    +0.165 A 
ATOM     19  C   UNL     1       1.811  -0.420   3.658  0.00  0.00    +0.047 A 
ATOM     20  F   UNL     1       4.050   0.012   4.300  0.00  0.00    -0.202 F 
BRANCH  17  21
ATOM     21  O   UNL     1       4.094   2.257   2.718  0.00  0.00    -0.492 OA
ATOM     22  C   UNL     1       4.041   3.409   1.874  0.00  0.00    +0.277 C 
ENDBRANCH  17  21
ENDBRANCH   4  14
BRANCH   3  23
ATOM     23  C   UNL     1      -1.550   1.236   3.902  0.00  0.00    +0.091 C 
BRANCH  23  24
ATOM     24  N   UNL     1      -2.598   1.791   4.768  0.00  0.00    -0.298 NA
ATOM     25  C   UNL     1      -2.838   3.208   4.463  0.00  0.00    +0.105 C 
BRANCH  24  26
ATOM     26  C   UNL     1      -2.262   1.607   6.186  0.00  0.00    +0.156 C 
BRANCH  26  27
ATOM     27  C   UNL     1      -3.509   1.747   7.021  0.00  0.00    +0.099 A 
ATOM     28  H   UNL     1      -2.933   1.026   8.883  0.00  0.00    +0.167 HD
ATOM     29  N   UNL     1      -4.654   2.215   6.605  0.00  0.00    -0.349 N 
ATOM     30  C   UNL     1      -5.535   2.192   7.616  0.00  0.00    +0.105 A 
ATOM     31  C   UNL     1      -4.912   1.691   8.700  0.00  0.00    +0.030 A 
ATOM     32  N   UNL     1      -3.628   1.404   8.321  0.00  0.00    -0.346 N 
ATOM     33  C   UNL     1      -5.514   1.482  10.065  0.00  0.00    +0.065 C 
ATOM     34  H   UNL     1      -4.839   2.529   5.706  0.00  0.00    +0.166 HD
ENDBRANCH  26  27
ENDBRANCH  24  26
ENDBRANCH  23  24
ENDBRANCH   3  23
TORSDOF 7
