REMARK  Name = ZINC12246829
REMARK  9 active torsions:
REMARK  status: ('A' for Active; 'I' for Inactive)
REMARK    1  A    between atoms: C_1  and  C_2
REMARK    2  A    between atoms: C_2  and  C_3
REMARK    3  A    between atoms: C_4  and  C_19
REMARK    4  A    between atoms: C_8  and  C_18
REMARK    5  A    between atoms: N_9  and  C_10
REMARK    6  A    between atoms: C_10  and  C_11
REMARK    7  A    between atoms: C_16  and  C_17
REMARK    8  A    between atoms: C_16  and  N_68
REMARK    9  A    between atoms: N_24  and  C_27
REMARK                            x       y       z     vdW  Elec       q    Type
REMARK                         _______ _______ _______ _____ _____    ______ ____
ROOT
ATOM      1  C   UNL     1      -2.540   1.829   2.264  0.00  0.00    +0.034 A 
ATOM      2  C   UNL     1      -1.735   2.061   3.360  0.00  0.00    +0.103 A 
ATOM      3  C   UNL     1      -0.286   1.847   3.218  0.00  0.00    +0.194 A 
ATOM      4  O   UNL     1       0.473   2.037   4.154  0.00  0.00    -0.287 OA
ATOM      5  C   UNL     1       0.198   1.413   1.959  0.00  0.00    +0.072 A 
ATOM      6  C   UNL     1      -0.672   1.214   0.949  0.00  0.00    +0.019 A 
ATOM      7  N   UNL     1      -2.003   1.423   1.101  0.00  0.00    -0.349 N 
ATOM      8  C   UNL     1      -0.151   0.753  -0.388  0.00  0.00    +0.063 C 
ENDROOT
BRANCH   2   9
ATOM      9  C   UNL     1      -2.310   2.512   4.639  0.00  0.00    +0.252 C 
ATOM     10  O   UNL     1      -2.429   3.701   4.866  0.00  0.00    -0.270 OA
ATOM     11  N   UNL     1      -2.706   1.607   5.556  0.00  0.00    -0.294 N 
ATOM     12  C   UNL     1      -2.577   0.165   5.298  0.00  0.00    +0.127 C 
ATOM     13  C   UNL     1      -1.853  -0.475   6.494  0.00  0.00    +0.124 C 
ATOM     14  N   UNL     1      -2.562  -0.127   7.732  0.00  0.00    -0.325 N 
ATOM     15  C   UNL     1      -2.537   1.322   7.971  0.00  0.00    +0.124 C 
ATOM     16  C   UNL     1      -3.283   2.036   6.839  0.00  0.00    +0.127 C 
BRANCH  14  17
ATOM     17  C   UNL     1      -2.035  -0.824   8.824  0.00  0.00    +0.065 A 
ATOM     18  C   UNL     1      -0.725  -0.602   9.225  0.00  0.00    +0.026 A 
ATOM     19  C   UNL     1      -0.209  -1.290  10.306  0.00  0.00    +0.002 A 
ATOM     20  C   UNL     1      -0.992  -2.205  10.985  0.00  0.00    +0.003 A 
ATOM     21  C   UNL     1      -2.297  -2.434  10.586  0.00  0.00    +0.040 A 
ATOM     22  C   UNL     1      -2.821  -1.746   9.508  0.00  0.00    +0.144 A 
ATOM     23  F   UNL     1      -4.096  -1.970   9.118  0.00  0.00    -0.204 F 
ENDBRANCH  14  17
ENDBRANCH   2   9
BRANCH   1  25
ATOM     24  C   UNL     1      -4.711   0.701   2.669  0.00  0.00    +0.010 C 
ATOM     25  C   UNL     1      -4.029   2.037   2.370  0.00  0.00    +0.051 C 
ENDBRANCH   1  25
BRANCH   7  26
ATOM     26  C   UNL     1      -2.889   1.193  -0.043  0.00  0.00    +0.106 C 
BRANCH  26  27
ATOM     27  C   UNL     1      -2.898   2.434  -0.939  0.00  0.00    -0.049 C 
ATOM     28  C   UNL     1      -3.899   2.248  -2.107  0.00  0.00    -0.015 C 
ATOM     29  C   UNL     1      -4.229   3.719  -2.473  0.00  0.00    -0.020 C 
ATOM     30  C   UNL     1      -4.215   4.430  -1.104  0.00  0.00    -0.078 C 
ATOM     31  N   UNL     1      -3.420   3.594  -0.190  0.00  0.00    +0.383 N 
ATOM     32  H   UNL     1      -4.019   3.264   0.576  0.00  0.00    -0.081 HD
BRANCH  31  33
ATOM     33  C   UNL     1      -2.296   4.383   0.379  0.00  0.00    -0.082 C 
ATOM     34  C   UNL     1      -2.849   5.401   1.379  0.00  0.00    -0.017 C 
ENDBRANCH  31  33
ENDBRANCH  26  27
ENDBRANCH   7  26
TORSDOF 6
