REMARK  Name = ZINC62825354
REMARK  5 active torsions:
REMARK  status: ('A' for Active; 'I' for Inactive)
REMARK    1  A    between atoms: C_1  and  C_2
REMARK    2  A    between atoms: C_2  and  C_4
REMARK    3  A    between atoms: C_2  and  N_18
REMARK    4  A    between atoms: N_6  and  C_7
REMARK    5  A    between atoms: C_8  and  C_15
REMARK                            x       y       z     vdW  Elec       q    Type
REMARK                         _______ _______ _______ _____ _____    ______ ____
ROOT
ATOM      1  C   UNL     1      -3.569  -0.620   1.003  0.00  0.00    +0.062 A 
ATOM      2  C   UNL     1      -4.523   0.038   1.797  0.00  0.00    +0.086 A 
ATOM      3  C   UNL     1      -5.862  -0.358   1.736  0.00  0.00    +0.032 A 
ATOM      4  C   UNL     1      -6.238  -1.389   0.902  0.00  0.00    +0.020 A 
ATOM      5  C   UNL     1      -5.293  -2.036   0.120  0.00  0.00    +0.032 A 
ATOM      6  C   UNL     1      -3.967  -1.652   0.164  0.00  0.00    +0.041 A 
ATOM      7 BR   UNL     1      -2.691  -2.539  -0.913  0.00  0.00    -0.048 Br
ATOM      8 BR   UNL     1      -8.050  -1.923   0.823  0.00  0.00    -0.050 Br
ENDROOT
BRANCH   1  11
ATOM      9  C   UNL     1      -1.579   0.082  -0.083  0.00  0.00    +0.202 C 
ATOM     10  O   UNL     1      -2.124  -0.064  -1.156  0.00  0.00    -0.277 OA
ATOM     11  N   UNL     1      -2.232  -0.235   1.053  0.00  0.00    -0.285 N 
ATOM     12  H   UNL     1      -1.770  -0.195   1.905  0.00  0.00    +0.155 HD
BRANCH   9  14
ATOM     13  C   UNL     1      -0.155   1.915   0.791  0.00  0.00    -0.005 C 
ATOM     14  C   UNL     1      -0.171   0.617  -0.018  0.00  0.00    +0.010 C 
BRANCH  14  15
ATOM     15  N   UNL     1       0.314   0.883  -1.379  0.00  0.00    +0.385 N 
ATOM     16  H   UNL     1       1.256   1.241  -1.336  0.00  0.00    -0.089 HD
ATOM     17  H   UNL     1       0.303   0.026  -1.913  0.00  0.00    -0.089 HD
ATOM     18  H   UNL     1      -0.284   1.563  -1.823  0.00  0.00    -0.089 HD
ENDBRANCH  14  15
ENDBRANCH   9  14
ENDBRANCH   1  11
BRANCH   2  19
ATOM     19  C   UNL     1      -4.115   1.137   2.686  0.00  0.00    +0.388 C 
ATOM     20  O   UNL     1      -4.928   1.639   3.451  0.00  0.00    -0.241 OA
ATOM     21  O   UNL     1      -2.963   1.550   2.661  0.00  0.00    -0.241 OA
ENDBRANCH   2  19
TORSDOF 4
