REMARK  Name = ZINC38981221
REMARK  7 active torsions:
REMARK  status: ('A' for Active; 'I' for Inactive)
REMARK    1  A    between atoms: C_1  and  C_2
REMARK    2  A    between atoms: C_5  and  N_9
REMARK    3  A    between atoms: C_6  and  C_8
REMARK    4  A    between atoms: N_9  and  C_10
REMARK    5  A    between atoms: C_10  and  C_11
REMARK    6  A    between atoms: C_18  and  C_23
REMARK    7  A    between atoms: C_24  and  C_26
REMARK                            x       y       z     vdW  Elec       q    Type
REMARK                         _______ _______ _______ _____ _____    ______ ____
ROOT
ATOM      1  N   UNL     1       0.094  -4.233  -0.194  0.00  0.00    -0.266 N 
ATOM      2  C   UNL     1      -1.072  -4.898  -0.076  0.00  0.00    +0.251 C 
ATOM      3  O   UNL     1      -1.103  -6.104  -0.228  0.00  0.00    -0.270 OA
ENDROOT
BRANCH   1   8
ATOM      4  C   UNL     1       0.187   1.425   0.197  0.00  0.00    +0.044 C 
ATOM      5  C   UNL     1       0.163  -0.079   0.093  0.00  0.00    -0.050 A 
ATOM      6  C   UNL     1       0.601  -0.851   1.153  0.00  0.00    +0.005 A 
ATOM      7  C   UNL     1       0.580  -2.228   1.062  0.00  0.00    +0.024 A 
ATOM      8  C   UNL     1       0.117  -2.839  -0.097  0.00  0.00    +0.040 A 
ATOM      9  C   UNL     1      -0.323  -2.060  -1.160  0.00  0.00    -0.029 A 
ATOM     10  C   UNL     1      -0.304  -0.683  -1.060  0.00  0.00    +0.008 A 
ATOM     11  C   UNL     1      -0.826  -2.718  -2.419  0.00  0.00    +0.045 C 
ENDBRANCH   1   8
BRANCH   2  12
ATOM     12  C   UNL     1      -2.317  -4.160   0.238  0.00  0.00    +0.040 A 
ATOM     13  C   UNL     1      -3.540  -4.541  -0.323  0.00  0.00    +0.033 A 
ATOM     14  C   UNL     1      -4.677  -3.824  -0.003  0.00  0.00    +0.111 A 
ATOM     15  N   UNL     1      -4.619  -2.795   0.818  0.00  0.00    -0.263 NA
ATOM     16  C   UNL     1      -3.487  -2.402   1.369  0.00  0.00    +0.111 A 
ATOM     17  C   UNL     1      -2.304  -3.065   1.108  0.00  0.00    +0.033 A 
ENDBRANCH   2  12
BRANCH   1  18
ATOM     18  C   UNL     1       1.338  -4.972  -0.423  0.00  0.00    +0.131 C 
BRANCH  18  19
ATOM     19  C   UNL     1       2.056  -5.189   0.911  0.00  0.00    +0.116 C 
ATOM     20  C   UNL     1       3.472  -5.640   0.610  0.00  0.00    -0.003 C 
ATOM     21  C   UNL     1       3.868  -6.839   1.123  0.00  0.00    -0.007 A 
ATOM     22  C   UNL     1       5.218  -7.350   0.880  0.00  0.00    +0.009 A 
ATOM     23  C   UNL     1       5.569  -8.550   1.410  0.00  0.00    +0.001 A 
ATOM     24  C   UNL     1       4.671  -9.297   2.175  0.00  0.00    +0.005 A 
ATOM     25  C   UNL     1       3.405  -8.879   2.435  0.00  0.00    -0.029 A 
ATOM     26  C   UNL     1       2.942  -7.649   1.933  0.00  0.00    +0.043 A 
ATOM     27  N   UNL     1       1.698  -7.248   2.196  0.00  0.00    -0.284 N 
ATOM     28  C   UNL     1       1.199  -6.106   1.754  0.00  0.00    +0.226 C 
ATOM     29  O   UNL     1       0.055  -5.795   2.027  0.00  0.00    -0.275 OA
ATOM     30  C   UNL     1       2.491  -9.739   3.269  0.00  0.00    +0.045 C 
ATOM     31  H   UNL     1       1.132  -7.822   2.736  0.00  0.00    +0.155 HD
ENDBRANCH  18  19
ENDBRANCH   1  18
TORSDOF 4
