REMARK  Name = ZINC39944397
REMARK  9 active torsions:
REMARK  status: ('A' for Active; 'I' for Inactive)
REMARK    1  A    between atoms: C_1  and  C_2
REMARK    2  A    between atoms: C_10  and  C_14
REMARK    3  A    between atoms: C_14  and  S_15
REMARK    4  A    between atoms: S_15  and  C_16
REMARK    5  A    between atoms: C_19  and  C_23
REMARK    6  A    between atoms: N_21  and  N_22
REMARK    7  A    between atoms: C_23  and  C_24
REMARK    8  A    between atoms: C_24  and  C_26
REMARK    9  A    between atoms: C_24  and  C_27
REMARK                            x       y       z     vdW  Elec       q    Type
REMARK                         _______ _______ _______ _____ _____    ______ ____
ROOT
ATOM      1  C   UNL     1       9.629  -4.503  -0.168  0.00  0.00    +0.189 C 
ATOM      2  N   UNL     1       9.974  -4.898   1.011  0.00  0.00    -0.161 NA
ATOM      3  N   UNL     1      11.226  -5.524   0.996  0.00  0.00    -0.245 N 
ATOM      4  C   UNL     1      11.685  -5.491  -0.404  0.00  0.00    +0.193 C 
ATOM      5  N   UNL     1      10.590  -4.813  -1.119  0.00  0.00    -0.225 N 
ATOM      6  H   UNL     1      11.698  -5.903   1.754  0.00  0.00    +0.170 HD
ENDROOT
BRANCH   5   7
ATOM      7  N   UNL     1      10.534  -4.540  -2.456  0.00  0.00    -0.250 NA
ATOM      8  H   UNL     1       9.675  -4.065  -2.692  0.00  0.00    +0.141 HD
ATOM      9  H   UNL     1      11.336  -4.004  -2.750  0.00  0.00    +0.141 HD
ENDBRANCH   5   7
BRANCH   1  10
ATOM     10  S   UNL     1       8.115  -3.676  -0.528  0.00  0.00    -0.080 S 
BRANCH  10  11
ATOM     11  C   UNL     1       7.288  -3.554   1.082  0.00  0.00    +0.150 C 
BRANCH  11  20
ATOM     12  C   UNL     1      -0.582   0.548   0.686  0.00  0.00    +0.007 C 
ATOM     13  C   UNL     1      -0.450  -0.972   0.576  0.00  0.00    -0.012 C 
ATOM     14  C   UNL     1       0.265  -1.320  -0.728  0.00  0.00    +0.008 C 
ATOM     15  C   UNL     1       1.639  -0.639  -0.783  0.00  0.00    +0.033 C 
ATOM     16  C   UNL     1       2.368  -1.022   0.503  0.00  0.00    -0.042 C 
ATOM     17  C   UNL     1       3.574  -1.588   0.556  0.00  0.00    +0.071 C 
ATOM     18  C   UNL     1       4.066  -2.075   1.871  0.00  0.00    +0.111 C 
ATOM     19  N   UNL     1       5.221  -2.684   2.008  0.00  0.00    -0.227 NA
ATOM     20  C   UNL     1       5.963  -2.857   0.915  0.00  0.00    +0.134 C 
ATOM     21  N   UNL     1       5.636  -2.472  -0.292  0.00  0.00    -0.160 NA
ATOM     22  C   UNL     1       4.489  -1.843  -0.607  0.00  0.00    +0.271 C 
ATOM     23  O   UNL     1       4.214  -1.506  -1.746  0.00  0.00    -0.268 OA
ATOM     24  S   UNL     1       2.800  -1.632   3.018  0.00  0.00    -0.097 S 
ATOM     25  C   UNL     1       1.677  -0.777   1.846  0.00  0.00    +0.080 C 
ATOM     26  C   UNL     1       0.330  -1.498   1.785  0.00  0.00    +0.022 C 
ENDBRANCH  11  20
ENDBRANCH  10  11
ENDBRANCH   1  10
BRANCH   4  27
ATOM     27  C   UNL     1      11.876  -6.911  -0.940  0.00  0.00    +0.052 C 
BRANCH  27  28
ATOM     28  C   UNL     1      12.966  -7.618  -0.133  0.00  0.00    +0.019 C 
ATOM     29  C   UNL     1      13.058  -9.081  -0.573  0.00  0.00    +0.012 C 
BRANCH  28  30
ATOM     30  C   UNL     1      14.290  -6.938  -0.373  0.00  0.00    -0.044 A 
ATOM     31  C   UNL     1      14.808  -6.866  -1.653  0.00  0.00    +0.004 A 
ATOM     32  C   UNL     1      16.022  -6.243  -1.873  0.00  0.00    +0.000 A 
ATOM     33  C   UNL     1      16.717  -5.690  -0.814  0.00  0.00    +0.000 A 
ATOM     34  C   UNL     1      16.199  -5.762   0.466  0.00  0.00    +0.000 A 
ATOM     35  C   UNL     1      14.983  -6.382   0.685  0.00  0.00    +0.004 A 
ENDBRANCH  28  30
ENDBRANCH  27  28
ENDBRANCH   4  27
TORSDOF 7
