REMARK  Name = ZINC22841949
REMARK  5 active torsions:
REMARK  status: ('A' for Active; 'I' for Inactive)
REMARK    1  A    between atoms: C_5  and  C_8
REMARK    2  A    between atoms: C_5  and  N_10
REMARK    3  A    between atoms: C_11  and  C_13
REMARK    4  A    between atoms: C_13  and  N_14
REMARK    5  A    between atoms: C_17  and  C_20
REMARK                            x       y       z     vdW  Elec       q    Type
REMARK                         _______ _______ _______ _____ _____    ______ ____
ROOT
ATOM      1  N   UNL     1       1.401   3.365  -0.745  0.00  0.00    -0.299 N 
ATOM      2  C   UNL     1       2.513   4.122  -0.817  0.00  0.00    +0.198 C 
ATOM      3  O   UNL     1       3.606   3.605  -0.722  0.00  0.00    -0.278 OA
ATOM      4  H   UNL     1       0.410   3.834  -0.831  0.00  0.00    +0.150 HD
ENDROOT
BRANCH   1   9
ATOM      5  C   UNL     1       2.398  -0.793  -0.065  0.00  0.00    +0.000 C 
ATOM      6  C   UNL     1       0.938  -0.923   0.273  0.00  0.00    +0.000 C 
ATOM      7  C   UNL     1       0.121  -0.139  -0.774  0.00  0.00    +0.003 C 
ATOM      8  C   UNL     1       0.102   1.291  -0.505  0.00  0.00    +0.041 C 
ATOM      9  C   UNL     1       1.511   1.917  -0.552  0.00  0.00    +0.121 C 
ATOM     10  C   UNL     1       2.205   1.632   0.753  0.00  0.00    +0.041 C 
ATOM     11  C   UNL     1       3.078   0.364   0.692  0.00  0.00    +0.003 C 
BRANCH   9  12
ATOM     12  C   UNL     1       2.279   1.324  -1.659  0.00  0.00    +0.088 C 
ATOM     13  N   UNL     1       2.871   0.866  -2.514  0.00  0.00    -0.194 NA
ENDBRANCH   9  12
ENDBRANCH   1   9
BRANCH   2  14
ATOM     14  C   UNL     1       2.400   5.612  -1.016  0.00  0.00    +0.019 C 
BRANCH  14  15
ATOM     15  N   UNL     1       3.731   6.223  -0.911  0.00  0.00    +0.385 N 
ATOM     16  C   UNL     1       3.702   7.625  -1.344  0.00  0.00    -0.077 C 
ATOM     17  C   UNL     1       5.126   8.186  -1.360  0.00  0.00    -0.006 C 
ATOM     18  C   UNL     1       5.728   8.078   0.044  0.00  0.00    +0.071 C 
ATOM     19  C   UNL     1       5.702   6.613   0.491  0.00  0.00    -0.006 C 
ATOM     20  C   UNL     1       4.261   6.099   0.453  0.00  0.00    -0.077 C 
ATOM     21  H   UNL     1       4.409   5.678  -1.585  0.00  0.00    -0.081 HD
BRANCH  18  22
ATOM     22  C   UNL     1       7.151   8.572   0.022  0.00  0.00    +0.213 C 
ATOM     23  O   UNL     1       8.057   7.828   0.332  0.00  0.00    -0.276 OA
ATOM     24  N   UNL     1       7.417   9.842  -0.343  0.00  0.00    -0.329 N 
ATOM     25  H   UNL     1       8.456  10.203  -0.360  0.00  0.00    +0.145 HD
ATOM     26  H   UNL     1       6.596  10.517  -0.625  0.00  0.00    +0.145 HD
ENDBRANCH  18  22
ENDBRANCH  14  15
ENDBRANCH   2  14
TORSDOF 5
