REMARK  Name = ZINC51678906
REMARK  10 active torsions:
REMARK  status: ('A' for Active; 'I' for Inactive)
REMARK    1  A    between atoms: C_1  and  C_2
REMARK    2  A    between atoms: C_2  and  C_3
REMARK    3  A    between atoms: C_2  and  C_4
REMARK    4  A    between atoms: C_4  and  C_6
REMARK    5  A    between atoms: C_4  and  N_16
REMARK    6  A    between atoms: C_9  and  C_12
REMARK    7  A    between atoms: C_12  and  C_13
REMARK    8  A    between atoms: C_12  and  C_14
REMARK    9  A    between atoms: C_12  and  C_15
REMARK   10  A    between atoms: C_23  and  C_26
REMARK                            x       y       z     vdW  Elec       q    Type
REMARK                         _______ _______ _______ _____ _____    ______ ____
ROOT
ATOM      1  N   UNL     1      -1.418  -1.998   0.005  0.00  0.00    -0.292 N 
ATOM      2  C   UNL     1      -1.292  -2.677   1.163  0.00  0.00    +0.303 C 
ATOM      3  O   UNL     1      -1.102  -2.076   2.203  0.00  0.00    -0.253 OA
ATOM      4  N   UNL     1      -1.374  -4.022   1.167  0.00  0.00    -0.280 N 
ATOM      5  C   UNL     1      -1.482  -4.779  -0.090  0.00  0.00    +0.137 C 
ATOM      6  C   UNL     1      -0.423  -5.887  -0.080  0.00  0.00    +0.180 C 
ATOM      7  O   UNL     1      -0.544  -6.643   1.128  0.00  0.00    -0.364 OA
ATOM      8  C   UNL     1      -0.306  -5.886   2.318  0.00  0.00    +0.221 C 
ATOM      9  C   UNL     1      -1.354  -4.778   2.430  0.00  0.00    +0.150 C 
ATOM     10  H   UNL     1      -1.506  -2.479  -0.832  0.00  0.00    +0.151 HD
ENDROOT
BRANCH   8  11
ATOM     11  C   UNL     1      -0.399  -6.793   3.518  0.00  0.00    +0.241 C 
ATOM     12  O   UNL     1      -0.733  -7.951   3.379  0.00  0.00    -0.273 OA
ATOM     13  N   UNL     1      -0.110  -6.318   4.746  0.00  0.00    -0.327 N 
ATOM     14  H   UNL     1       0.157  -5.392   4.857  0.00  0.00    +0.145 HD
ATOM     15  H   UNL     1      -0.170  -6.902   5.518  0.00  0.00    +0.145 HD
ENDBRANCH   8  11
BRANCH   1  16
ATOM     16  C   UNL     1      -1.424  -0.533   0.013  0.00  0.00    +0.107 C 
BRANCH  16  17
ATOM     17  C   UNL     1      -2.160  -0.028  -1.202  0.00  0.00    -0.027 A 
ATOM     18  C   UNL     1      -1.998  -0.659  -2.421  0.00  0.00    +0.006 A 
ATOM     19  C   UNL     1      -2.673  -0.195  -3.534  0.00  0.00    +0.004 A 
ATOM     20  C   UNL     1      -3.510   0.899  -3.429  0.00  0.00    -0.042 A 
ATOM     21  C   UNL     1      -3.673   1.530  -2.209  0.00  0.00    +0.004 A 
ATOM     22  C   UNL     1      -3.001   1.064  -1.095  0.00  0.00    +0.006 A 
BRANCH  20  23
ATOM     23  C   UNL     1      -4.245   1.405  -4.643  0.00  0.00    -0.013 C 
ATOM     24  C   UNL     1      -5.150   0.299  -5.189  0.00  0.00    +0.015 C 
ATOM     25  C   UNL     1      -5.097   2.616  -4.256  0.00  0.00    +0.015 C 
ATOM     26  C   UNL     1      -3.235   1.815  -5.717  0.00  0.00    +0.015 C 
ENDBRANCH  20  23
ENDBRANCH  16  17
BRANCH  16  28
ATOM     27  C   UNL     1       0.011   1.512  -0.006  0.00  0.00    +0.009 C 
ATOM     28  C   UNL     1       0.017  -0.018  -0.013  0.00  0.00    +0.008 C 
ATOM     29  C   UNL     1       0.764  -0.531   1.220  0.00  0.00    +0.009 C 
ENDBRANCH  16  28
ENDBRANCH   1  16
TORSDOF 5
