REMARK  Name = ZINC39232429
REMARK  11 active torsions:
REMARK  status: ('A' for Active; 'I' for Inactive)
REMARK    1  A    between atoms: C_1  and  C_2
REMARK    2  A    between atoms: C_2  and  C_3
REMARK    3  A    between atoms: C_3  and  C_4
REMARK    4  A    between atoms: N_6  and  C_24
REMARK    5  A    between atoms: C_10  and  C_11
REMARK    6  A    between atoms: C_10  and  N_12
REMARK    7  A    between atoms: N_12  and  C_13
REMARK    8  A    between atoms: C_13  and  C_14
REMARK    9  A    between atoms: C_14  and  S_15
REMARK   10  A    between atoms: S_15  and  C_16
REMARK   11  A    between atoms: C_21  and  C_23
REMARK                            x       y       z     vdW  Elec       q    Type
REMARK                         _______ _______ _______ _____ _____    ______ ____
ROOT
ATOM      1  C   UNL     1      -1.413  -2.041   0.005  0.00  0.00    +0.073 C 
ATOM      2  N   UNL     1      -0.356  -2.793  -0.004  0.00  0.00    -0.179 NA
ATOM      3  N   UNL     1      -0.696  -4.145  -0.009  0.00  0.00    -0.158 N 
ATOM      4  C   UNL     1      -2.037  -4.286  -0.004  0.00  0.00    +0.271 C 
ATOM      5  O   UNL     1      -2.665  -5.332  -0.006  0.00  0.00    -0.268 OA
ATOM      6  C   UNL     1      -2.587  -2.925   0.011  0.00  0.00    +0.078 C 
ATOM      7  C   UNL     1      -3.922  -2.556   0.025  0.00  0.00    +0.015 C 
ATOM      8  C   UNL     1      -4.996  -3.612   0.030  0.00  0.00    +0.061 C 
ENDROOT
BRANCH   3   9
ATOM      9  C   UNL     1       0.265  -5.252  -0.020  0.00  0.00    +0.249 C 
ATOM     10  N   UNL     1       1.186  -5.163   1.121  0.00  0.00    -0.315 N 
ATOM     11  C   UNL     1       2.543  -5.006   0.843  0.00  0.00    +0.043 A 
ATOM     12  C   UNL     1       3.568  -4.902   1.801  0.00  0.00    +0.024 A 
ATOM     13  C   UNL     1       4.881  -4.749   1.424  0.00  0.00    +0.002 A 
ATOM     14  C   UNL     1       5.240  -4.691   0.089  0.00  0.00    +0.001 A 
ATOM     15  C   UNL     1       4.251  -4.790  -0.875  0.00  0.00    +0.016 A 
ATOM     16  C   UNL     1       2.937  -4.944  -0.497  0.00  0.00    +0.032 A 
ATOM     17  S   UNL     1       1.431  -5.102  -1.432  0.00  0.00    -0.080 S 
ATOM     18  H   UNL     1       0.862  -5.211   2.034  0.00  0.00    +0.149 HD
ENDBRANCH   3   9
BRANCH   7  19
ATOM     19  N   UNL     1      -4.260  -1.250   0.035  0.00  0.00    -0.346 N 
ATOM     20  H   UNL     1      -3.568  -0.570   0.032  0.00  0.00    +0.146 HD
BRANCH  19  21
ATOM     21  C   UNL     1      -5.671  -0.859   0.050  0.00  0.00    +0.112 C 
BRANCH  21  22
ATOM     22  C   UNL     1      -5.778   0.667   0.059  0.00  0.00    +0.092 C 
BRANCH  22  23
ATOM     23  S   UNL     1      -7.526   1.151   0.078  0.00  0.00    -0.130 S 
BRANCH  23  24
ATOM     24  C   UNL     1      -7.480   2.913   0.086  0.00  0.00    +0.061 C 
ATOM     25  C   UNL     1      -8.611   3.605   0.100  0.00  0.00    +0.039 C 
ATOM     26  N   UNL     1      -9.926   3.110   0.116  0.00  0.00    -0.307 N 
ATOM     27  C   UNL     1     -10.806   4.149   0.127  0.00  0.00    +0.180 C 
ATOM     28  N   UNL     1     -10.238   5.305   0.121  0.00  0.00    -0.267 NA
ATOM     29  C   UNL     1      -8.780   5.113   0.109  0.00  0.00    +0.148 C 
ATOM     30  C   UNL     1      -8.147   5.717   1.365  0.00  0.00    +0.039 C 
ATOM     31  H   UNL     1     -10.170   2.171   0.119  0.00  0.00    +0.153 HD
ENDBRANCH  23  24
ENDBRANCH  22  23
ENDBRANCH  21  22
ENDBRANCH  19  21
ENDBRANCH   7  19
BRANCH   1  32
ATOM     32  C   UNL     1      -1.433  -0.534   0.013  0.00  0.00    +0.057 C 
BRANCH  32  34
ATOM     33  C   UNL     1      -0.019   1.526   0.010  0.00  0.00    +0.004 C 
ATOM     34  C   UNL     1       0.002  -0.004   0.002  0.00  0.00    +0.003 C 
ENDBRANCH  32  34
ENDBRANCH   1  32
TORSDOF 8
