REMARK  Name = ZINC20663177
REMARK  8 active torsions:
REMARK  status: ('A' for Active; 'I' for Inactive)
REMARK    1  A    between atoms: C_1  and  C_2
REMARK    2  A    between atoms: C_7  and  C_8
REMARK    3  A    between atoms: N_10  and  C_11
REMARK    4  A    between atoms: C_11  and  C_23
REMARK    5  A    between atoms: C_12  and  C_13
REMARK    6  A    between atoms: C_17  and  O_19
REMARK    7  A    between atoms: O_19  and  C_20
REMARK    8  A    between atoms: C_20  and  C_22
REMARK                            x       y       z     vdW  Elec       q    Type
REMARK                         _______ _______ _______ _____ _____    ______ ____
ROOT
ATOM      1  C   UNL     1       2.406  -1.892  -3.576  0.00  0.00    +0.097 C 
ATOM      2  C   UNL     1       3.173  -2.992  -3.754  0.00  0.00    +0.036 C 
ENDROOT
BRANCH   1   3
ATOM      3  C   UNL     1       2.283  -1.290  -2.240  0.00  0.00    +0.261 C 
ATOM      4  O   UNL     1       3.221  -1.328  -1.467  0.00  0.00    -0.269 OA
ATOM      5  N   UNL     1       1.130  -0.696  -1.873  0.00  0.00    -0.296 N 
ATOM      6  C   UNL     1       0.035  -0.524  -2.835  0.00  0.00    +0.113 C 
ATOM      7  C   UNL     1      -1.271  -1.036  -2.243  0.00  0.00    +0.027 C 
ATOM      8  C   UNL     1      -1.509  -0.452  -0.850  0.00  0.00    +0.018 C 
ATOM      9  C   UNL     1      -0.340  -0.859   0.050  0.00  0.00    +0.054 C 
ATOM     10  C   UNL     1       0.941  -0.206  -0.498  0.00  0.00    +0.117 C 
ATOM     11  C   UNL     1      -0.152  -2.356  -0.004  0.00  0.00    +0.027 A 
ATOM     12  C   UNL     1       0.403  -2.958   1.082  0.00  0.00    +0.022 A 
ATOM     13  C   UNL     1       0.668  -4.331   1.077  0.00  0.00    +0.007 A 
ATOM     14  C   UNL     1       0.386  -5.053  -0.045  0.00  0.00    +0.070 A 
ATOM     15  C   UNL     1      -0.182  -4.402  -1.149  0.00  0.00    +0.251 A 
ATOM     16  O   UNL     1      -0.380  -5.024  -2.181  0.00  0.00    -0.268 OA
ATOM     17  N   UNL     1      -0.514  -3.090  -1.082  0.00  0.00    -0.312 N 
ATOM     18  C   UNL     1      -1.314  -2.551  -2.183  0.00  0.00    +0.130 C 
ENDBRANCH   1   3
BRANCH   2  19
ATOM     19  C   UNL     1       3.412  -3.511  -5.110  0.00  0.00    -0.020 A 
ATOM     20  C   UNL     1       3.725  -4.861  -5.300  0.00  0.00    +0.008 A 
ATOM     21  C   UNL     1       3.944  -5.343  -6.573  0.00  0.00    +0.004 A 
ATOM     22  C   UNL     1       3.865  -4.495  -7.663  0.00  0.00    +0.046 A 
ATOM     23  C   UNL     1       3.561  -3.152  -7.484  0.00  0.00    +0.132 A 
ATOM     24  C   UNL     1       3.334  -2.655  -6.213  0.00  0.00    +0.054 A 
BRANCH  23  25
ATOM     25  O   UNL     1       3.486  -2.324  -8.560  0.00  0.00    -0.426 OA
BRANCH  25  26
ATOM     26  C   UNL     1       4.518  -1.488  -8.759  0.00  0.00    +0.309 C 
ATOM     27  O   UNL     1       5.496  -1.558  -8.054  0.00  0.00    -0.251 OA
ATOM     28  C   UNL     1       4.455  -0.463  -9.861  0.00  0.00    +0.136 C 
ENDBRANCH  25  26
ENDBRANCH  23  25
ENDBRANCH   2  19
BRANCH   1  31
ATOM     29  C   UNL     1       1.825  -0.004  -4.900  0.00  0.00    +0.249 C 
ATOM     30  O   UNL     1       2.569   0.684  -4.227  0.00  0.00    -0.270 OA
ATOM     31  N   UNL     1       1.732  -1.327  -4.662  0.00  0.00    -0.277 N 
ATOM     32  H   UNL     1       1.125  -1.963  -5.324  0.00  0.00    +0.155 HD
BRANCH  29  39
ATOM     33  C   UNL     1       2.082   2.829  -5.434  0.00  0.00    +0.044 C 
ATOM     34  C   UNL     1       1.138   1.978  -6.244  0.00  0.00    -0.038 A 
ATOM     35  C   UNL     1       0.387   2.546  -7.252  0.00  0.00    +0.004 A 
ATOM     36  C   UNL     1      -0.479   1.766  -7.998  0.00  0.00    +0.000 A 
ATOM     37  C   UNL     1      -0.598   0.412  -7.739  0.00  0.00    +0.001 A 
ATOM     38  C   UNL     1       0.151  -0.170  -6.737  0.00  0.00    +0.013 A 
ATOM     39  C   UNL     1       1.023   0.613  -5.978  0.00  0.00    +0.040 A 
ENDBRANCH  29  39
ENDBRANCH   1  31
TORSDOF 6
