REMARK  Name = ZINC41545537
REMARK  6 active torsions:
REMARK  status: ('A' for Active; 'I' for Inactive)
REMARK    1  A    between atoms: C_1  and  C_2
REMARK    2  A    between atoms: C_3  and  C_25
REMARK    3  A    between atoms: C_5  and  N_10
REMARK    4  A    between atoms: C_6  and  C_7
REMARK    5  A    between atoms: C_11  and  C_13
REMARK    6  A    between atoms: C_13  and  C_24
REMARK                            x       y       z     vdW  Elec       q    Type
REMARK                         _______ _______ _______ _____ _____    ______ ____
ROOT
ATOM      1  N   UNL     1       0.054  -3.117   2.083  0.00  0.00    -0.276 N 
ATOM      2  C   UNL     1       0.070  -4.426   1.762  0.00  0.00    +0.270 C 
ATOM      3  O   UNL     1       0.070  -4.765   0.597  0.00  0.00    -0.271 OA
ATOM      4  H   UNL     1       0.054  -2.846   3.014  0.00  0.00    +0.155 HD
ENDROOT
BRANCH   2   5
ATOM      5  C   UNL     1       0.089  -5.468   2.850  0.00  0.00    +0.258 C 
ATOM      6  C   UNL     1       0.701  -6.739   2.317  0.00  0.00    +0.270 C 
ATOM      7  O   UNL     1      -0.006  -7.606   1.849  0.00  0.00    -0.271 OA
ATOM      8  N   UNL     1       2.039  -6.908   2.363  0.00  0.00    -0.279 N 
ATOM      9  C   UNL     1       2.827  -5.954   3.021  0.00  0.00    +0.076 A 
ATOM     10  C   UNL     1       4.207  -5.971   2.895  0.00  0.00    +0.027 A 
ATOM     11  C   UNL     1       4.969  -5.015   3.540  0.00  0.00    +0.002 A 
ATOM     12  C   UNL     1       4.358  -4.042   4.309  0.00  0.00    +0.004 A 
ATOM     13  C   UNL     1       2.982  -4.022   4.443  0.00  0.00    +0.047 A 
ATOM     14  C   UNL     1       2.212  -4.980   3.805  0.00  0.00    +0.144 A 
ATOM     15  O   UNL     1       0.861  -4.989   3.954  0.00  0.00    -0.465 OA
ATOM     16  C   UNL     1      -1.342  -5.748   3.312  0.00  0.00    +0.076 C 
ATOM     17  H   UNL     1       2.451  -7.681   1.946  0.00  0.00    +0.155 HD
ENDBRANCH   2   5
BRANCH   1  22
ATOM     18  C   UNL     1      -0.018   1.503   0.010  0.00  0.00    +0.045 C 
ATOM     19  C   UNL     1       0.002  -0.004   0.002  0.00  0.00    -0.027 A 
ATOM     20  C   UNL     1       0.006  -0.713  -1.142  0.00  0.00    -0.008 A 
ATOM     21  S   UNL     1       0.032  -2.400  -0.579  0.00  0.00    -0.078 S 
ATOM     22  C   UNL     1       0.036  -2.158   1.081  0.00  0.00    +0.084 A 
ATOM     23  C   UNL     1       0.024  -0.778   1.222  0.00  0.00    +0.068 A 
ATOM     24  C   UNL     1      -0.007  -0.200  -2.559  0.00  0.00    +0.052 C 
BRANCH  23  25
ATOM     25  C   UNL     1       0.028  -0.138   2.541  0.00  0.00    +0.244 C 
ATOM     26  O   UNL     1      -1.024   0.114   3.099  0.00  0.00    -0.270 OA
ATOM     27  N   UNL     1       1.197   0.172   3.136  0.00  0.00    -0.325 N 
ATOM     28  H   UNL     1       2.035  -0.028   2.692  0.00  0.00    +0.145 HD
ATOM     29  H   UNL     1       1.199   0.596   4.009  0.00  0.00    +0.145 HD
ENDBRANCH  23  25
ENDBRANCH   1  22
TORSDOF 3
