REMARK  Name = ZINC35450323
REMARK  12 active torsions:
REMARK  status: ('A' for Active; 'I' for Inactive)
REMARK    1  A    between atoms: C_1  and  C_2
REMARK    2  A    between atoms: C_2  and  C_3
REMARK    3  A    between atoms: C_3  and  C_5
REMARK    4  A    between atoms: C_3  and  S_6
REMARK    5  A    between atoms: S_6  and  C_7
REMARK    6  A    between atoms: C_14  and  C_26
REMARK    7  A    between atoms: C_20  and  C_24
REMARK    8  A    between atoms: C_20  and  C_25
REMARK    9  A    between atoms: C_28  and  O_34
REMARK   10  A    between atoms: C_31  and  O_32
REMARK   11  A    between atoms: O_32  and  C_33
REMARK   12  A    between atoms: O_34  and  C_35
REMARK                            x       y       z     vdW  Elec       q    Type
REMARK                         _______ _______ _______ _____ _____    ______ ____
ROOT
ATOM      1  C   UNL     1      -3.900  -0.616   1.373  0.00  0.00    +0.171 A 
ATOM      2  N   UNL     1      -4.255  -1.208   0.251  0.00  0.00    -0.208 NA
ATOM      3  C   UNL     1      -5.508  -1.635   0.062  0.00  0.00    +0.135 A 
ATOM      4  C   UNL     1      -6.453  -1.459   1.058  0.00  0.00    +0.069 A 
ATOM      5  C   UNL     1      -6.072  -0.828   2.247  0.00  0.00    +0.258 A 
ATOM      6  O   UNL     1      -6.879  -0.653   3.145  0.00  0.00    -0.267 OA
ATOM      7  N   UNL     1      -4.792  -0.420   2.384  0.00  0.00    -0.302 N 
ATOM      8  C   UNL     1      -7.862  -1.939   0.873  0.00  0.00    +0.096 C 
ATOM      9  C   UNL     1      -8.170  -2.189  -0.582  0.00  0.00    +0.024 C 
ATOM     10  C   UNL     1      -7.184  -2.329  -1.492  0.00  0.00    +0.017 C 
ATOM     11  N   UNL     1      -5.869  -2.248  -1.122  0.00  0.00    -0.302 N 
ATOM     12  C   UNL     1      -7.499  -2.573  -2.948  0.00  0.00    +0.058 C 
ATOM     13  C   UNL     1      -8.809  -3.354  -3.067  0.00  0.00    -0.023 C 
ATOM     14  C   UNL     1      -9.918  -2.545  -2.386  0.00  0.00    +0.086 C 
ATOM     15  C   UNL     1      -9.522  -2.275  -0.961  0.00  0.00    +0.162 C 
ATOM     16  O   UNL     1     -10.386  -2.127  -0.120  0.00  0.00    -0.292 OA
ATOM     17  C   UNL     1      -9.154  -3.561  -4.543  0.00  0.00    +0.011 C 
ATOM     18  C   UNL     1      -8.664  -4.711  -2.375  0.00  0.00    +0.011 C 
ATOM     19  H   UNL     1      -5.184  -2.625  -1.696  0.00  0.00    +0.153 HD
ATOM     20  H   UNL     1      -4.508   0.018   3.201  0.00  0.00    +0.171 HD
ENDROOT
BRANCH   8  21
ATOM     21  C   UNL     1      -8.051  -3.221   1.643  0.00  0.00    +0.010 A 
ATOM     22  C   UNL     1      -7.271  -4.323   1.352  0.00  0.00    +0.053 A 
ATOM     23  C   UNL     1      -7.445  -5.502   2.061  0.00  0.00    +0.121 A 
ATOM     24  C   UNL     1      -8.402  -5.575   3.062  0.00  0.00    +0.049 A 
ATOM     25  C   UNL     1      -9.182  -4.473   3.353  0.00  0.00    +0.049 A 
ATOM     26  C   UNL     1      -9.005  -3.292   2.647  0.00  0.00    +0.124 A 
BRANCH  26  27
ATOM     27  O   UNL     1      -9.769  -2.205   2.937  0.00  0.00    -0.495 OA
ATOM     28  C   UNL     1     -10.731  -2.350   3.984  0.00  0.00    +0.277 C 
ENDBRANCH  26  27
BRANCH  23  29
ATOM     29  O   UNL     1      -6.677  -6.588   1.774  0.00  0.00    -0.495 OA
ATOM     30  C   UNL     1      -6.910  -7.769   2.544  0.00  0.00    +0.277 C 
ENDBRANCH  23  29
ENDBRANCH   8  21
BRANCH   1  31
ATOM     31  S   UNL     1      -2.236  -0.073   1.573  0.00  0.00    -0.085 S 
BRANCH  31  32
ATOM     32  C   UNL     1      -1.433  -0.534   0.013  0.00  0.00    +0.051 C 
ATOM     33  C   UNL     1      -1.416  -2.058  -0.121  0.00  0.00    +0.019 C 
BRANCH  32  35
ATOM     34  C   UNL     1      -0.019   1.526   0.010  0.00  0.00    +0.005 C 
ATOM     35  C   UNL     1       0.002  -0.004   0.002  0.00  0.00    +0.011 C 
ENDBRANCH  32  35
ENDBRANCH  31  32
ENDBRANCH   1  31
TORSDOF 6
