REMARK  Name = ZINC38925897
REMARK  9 active torsions:
REMARK  status: ('A' for Active; 'I' for Inactive)
REMARK    1  A    between atoms: C_1  and  O_2
REMARK    2  A    between atoms: O_2  and  C_3
REMARK    3  A    between atoms: C_6  and  C_13
REMARK    4  A    between atoms: C_7  and  O_11
REMARK    5  A    between atoms: C_8  and  O_9
REMARK    6  A    between atoms: O_9  and  C_10
REMARK    7  A    between atoms: O_11  and  C_12
REMARK    8  A    between atoms: N_14  and  N_15
REMARK    9  A    between atoms: C_16  and  C_22
REMARK                            x       y       z     vdW  Elec       q    Type
REMARK                         _______ _______ _______ _____ _____    ______ ____
ROOT
ATOM      1  C   UNL     1       2.685  -2.496  -4.274  0.00  0.00    +0.142 C 
ATOM      2  N   UNL     1       2.544  -3.776  -4.446  0.00  0.00    -0.183 NA
ENDROOT
BRANCH   2   3
ATOM      3  N   UNL     1       3.073  -4.392  -5.587  0.00  0.00    -0.172 N 
ATOM      4  C   UNL     1       3.113  -5.833  -5.899  0.00  0.00    +0.264 C 
ATOM      5  N   UNL     1       3.773  -5.892  -7.212  0.00  0.00    -0.189 NA
ATOM      6  N   UNL     1       4.043  -4.738  -7.557  0.00  0.00    -0.219 N 
ATOM      7  C   UNL     1       3.655  -3.799  -6.653  0.00  0.00    +0.174 C 
ATOM      8  S   UNL     1       3.874  -2.111  -6.837  0.00  0.00    -0.015 S 
ATOM      9  H   UNL     1       4.484  -4.522  -8.393  0.00  0.00    +0.176 HD
BRANCH   4  10
ATOM     10  C   UNL     1       1.717  -6.396  -5.980  0.00  0.00    +0.001 A 
ATOM     11  C   UNL     1       0.687  -5.851  -5.229  0.00  0.00    +0.025 A 
ATOM     12  C   UNL     1      -0.580  -6.393  -5.329  0.00  0.00    +0.083 A 
ATOM     13  N   UNL     1      -0.814  -7.417  -6.127  0.00  0.00    -0.367 N 
ATOM     14  C   UNL     1       0.141  -7.960  -6.856  0.00  0.00    +0.083 A 
ATOM     15  C   UNL     1       1.431  -7.468  -6.812  0.00  0.00    +0.025 A 
ATOM     16  H   UNL     1      -1.712  -7.779  -6.179  0.00  0.00    +0.165 HD
ENDBRANCH   4  10
ENDBRANCH   2   3
BRANCH   1  20
ATOM     17  C   UNL     1       0.777  -0.561  -1.006  0.00  0.00    +0.165 A 
ATOM     18  C   UNL     1       1.553   0.174  -1.894  0.00  0.00    +0.050 A 
ATOM     19  C   UNL     1       2.174  -0.450  -2.954  0.00  0.00    +0.017 A 
ATOM     20  C   UNL     1       2.024  -1.827  -3.141  0.00  0.00    +0.040 A 
ATOM     21  C   UNL     1       1.241  -2.570  -2.246  0.00  0.00    +0.174 A 
ATOM     22  C   UNL     1       0.625  -1.933  -1.178  0.00  0.00    +0.204 A 
BRANCH  17  24
ATOM     23  C   UNL     1       0.365   1.472   0.155  0.00  0.00    +0.277 C 
ATOM     24  O   UNL     1       0.168   0.062   0.037  0.00  0.00    -0.491 OA
ENDBRANCH  17  24
BRANCH  22  25
ATOM     25  O   UNL     1      -0.132  -2.649  -0.303  0.00  0.00    -0.488 OA
ATOM     26  C   UNL     1      -1.521  -2.786  -0.608  0.00  0.00    +0.277 C 
ENDBRANCH  22  25
BRANCH  21  27
ATOM     27  O   UNL     1       1.090  -3.909  -2.421  0.00  0.00    -0.491 OA
ATOM     28  C   UNL     1       2.044  -4.758  -1.780  0.00  0.00    +0.277 C 
ENDBRANCH  21  27
ENDBRANCH   1  20
TORSDOF 6
