REMARK  Name = ZINC64024379
REMARK  5 active torsions:
REMARK  status: ('A' for Active; 'I' for Inactive)
REMARK    1  A    between atoms: C_1  and  C_2
REMARK    2  A    between atoms: C_2  and  O_3
REMARK    3  A    between atoms: O_3  and  C_4
REMARK    4  A    between atoms: C_7  and  C_10
REMARK    5  A    between atoms: C_25  and  C_27
REMARK                            x       y       z     vdW  Elec       q    Type
REMARK                         _______ _______ _______ _____ _____    ______ ____
ROOT
ATOM      1  C   UNL     1       1.099  -6.038  -1.868  0.00  0.00    +0.133 C 
ATOM      2  C   UNL     1      -0.021  -6.558  -2.775  0.00  0.00    +0.131 C 
ATOM      3  C   UNL     1       0.334  -7.998  -3.123  0.00  0.00    -0.035 C 
ATOM      4  C   UNL     1      -0.703  -8.740  -2.752  0.00  0.00    -0.001 A 
ATOM      5  C   UNL     1      -0.976 -10.180  -2.891  0.00  0.00    +0.010 A 
ATOM      6  C   UNL     1      -2.156 -10.618  -2.378  0.00  0.00    +0.001 A 
ATOM      7  C   UNL     1      -3.080  -9.778  -1.749  0.00  0.00    +0.002 A 
ATOM      8  C   UNL     1      -2.913  -8.442  -1.581  0.00  0.00    +0.026 A 
ATOM      9  C   UNL     1      -1.711  -7.863  -2.083  0.00  0.00    +0.043 A 
ATOM     10  N   UNL     1      -1.308  -6.604  -2.079  0.00  0.00    -0.375 N 
ATOM     11  C   UNL     1       1.674  -8.385  -3.700  0.00  0.00    +0.052 C 
ATOM     12  C   UNL     1       2.746  -7.755  -2.792  0.00  0.00    +0.113 C 
ATOM     13  N   UNL     1       2.385  -6.363  -2.505  0.00  0.00    -0.289 N 
ATOM     14  C   UNL     1       3.238  -5.372  -2.830  0.00  0.00    +0.256 C 
ATOM     15  O   UNL     1       2.996  -4.230  -2.499  0.00  0.00    -0.272 OA
ATOM     16  H   UNL     1      -1.768  -5.846  -1.685  0.00  0.00    +0.160 HD
ENDROOT
BRANCH  14  17
ATOM     17  C   UNL     1       4.494  -5.682  -3.603  0.00  0.00    +0.263 C 
ATOM     18  N   UNL     1       5.525  -6.249  -2.714  0.00  0.00    -0.238 N 
ATOM     19  N   UNL     1       6.618  -5.376  -2.781  0.00  0.00    -0.174 NA
ATOM     20  C   UNL     1       6.390  -4.381  -3.557  0.00  0.00    +0.117 C 
ATOM     21  N   UNL     1       5.107  -4.450  -4.106  0.00  0.00    -0.290 N 
ATOM     22  C   UNL     1       4.515  -3.446  -4.991  0.00  0.00    +0.108 C 
ATOM     23  C   UNL     1       5.643  -2.595  -5.588  0.00  0.00    +0.019 C 
ATOM     24  C   UNL     1       6.542  -2.084  -4.457  0.00  0.00    +0.009 C 
ATOM     25  C   UNL     1       7.356  -3.258  -3.880  0.00  0.00    +0.073 C 
ATOM     26  H   UNL     1       5.459  -7.061  -2.189  0.00  0.00    +0.171 HD
ENDBRANCH  14  17
BRANCH   1  30
ATOM     27  C   UNL     1       0.742  -1.804  -1.410  0.00  0.00    +0.121 A 
ATOM     28  C   UNL     1       1.200  -2.581  -0.356  0.00  0.00    +0.046 A 
ATOM     29  C   UNL     1       1.315  -3.949  -0.506  0.00  0.00    +0.009 A 
ATOM     30  C   UNL     1       0.973  -4.545  -1.706  0.00  0.00    -0.025 A 
ATOM     31  C   UNL     1       0.517  -3.773  -2.759  0.00  0.00    +0.009 A 
ATOM     32  C   UNL     1       0.395  -2.405  -2.611  0.00  0.00    +0.046 A 
BRANCH  27  33
ATOM     33  O   UNL     1       0.628  -0.458  -1.264  0.00  0.00    -0.492 OA
BRANCH  33  35
ATOM     34  C   UNL     1       0.809   1.609  -0.025  0.00  0.00    +0.048 C 
ATOM     35  C   UNL     1       1.004   0.092   0.000  0.00  0.00    +0.225 C 
ENDBRANCH  33  35
ENDBRANCH  27  33
ENDBRANCH   1  30
TORSDOF 4
