REMARK  Name = ZINC66567605
REMARK  12 active torsions:
REMARK  status: ('A' for Active; 'I' for Inactive)
REMARK    1  A    between atoms: C_1  and  C_2
REMARK    2  A    between atoms: C_2  and  N_20
REMARK    3  A    between atoms: N_5  and  C_8
REMARK    4  A    between atoms: C_8  and  C_9
REMARK    5  A    between atoms: N_11  and  C_12
REMARK    6  A    between atoms: N_11  and  C_17
REMARK    7  A    between atoms: N_20  and  C_21
REMARK    8  A    between atoms: C_22  and  O_24
REMARK    9  A    between atoms: O_24  and  C_25
REMARK   10  A    between atoms: C_25  and  C_26
REMARK   11  A    between atoms: C_25  and  C_27
REMARK   12  A    between atoms: C_25  and  C_28
REMARK                            x       y       z     vdW  Elec       q    Type
REMARK                         _______ _______ _______ _____ _____    ______ ____
ROOT
ATOM      1  C   UNL     1       0.494   1.177   0.773  0.00  0.00    +0.032 C 
ATOM      2  C   UNL     1       0.363  -0.244   0.223  0.00  0.00    +0.034 C 
ATOM      3  C   UNL     1      -0.993  -0.828   0.629  0.00  0.00    +0.007 C 
ATOM      4  C   UNL     1      -1.085  -2.276   0.145  0.00  0.00    -0.076 C 
ATOM      5  N   UNL     1      -0.008  -3.068   0.751  0.00  0.00    +0.386 N 
ATOM      6  C   UNL     1       1.295  -2.559   0.309  0.00  0.00    -0.076 C 
ATOM      7  C   UNL     1       1.479  -1.121   0.799  0.00  0.00    +0.007 C 
ATOM      8  H   UNL     1      -0.070  -3.004   1.757  0.00  0.00    -0.081 HD
ENDROOT
BRANCH   2   9
ATOM      9  N   UNL     1       0.468  -0.216  -1.238  0.00  0.00    -0.265 N 
ATOM     10  C   UNL     1       1.631  -0.813  -1.901  0.00  0.00    +0.136 C 
ATOM     11  C   UNL     1      -0.505   0.359  -1.972  0.00  0.00    +0.404 C 
ATOM     12  O   UNL     1      -1.469   0.854  -1.423  0.00  0.00    -0.226 OA
BRANCH  11  13
ATOM     13  O   UNL     1      -0.408   0.385  -3.315  0.00  0.00    -0.445 OA
BRANCH  13  14
ATOM     14  C   UNL     1      -1.476   1.010  -4.030  0.00  0.00    +0.107 C 
ATOM     15  C   UNL     1      -1.591   2.473  -3.598  0.00  0.00    +0.055 C 
ATOM     16  C   UNL     1      -1.192   0.943  -5.532  0.00  0.00    +0.055 C 
ATOM     17  C   UNL     1      -2.788   0.284  -3.726  0.00  0.00    +0.055 C 
ENDBRANCH  13  14
ENDBRANCH  11  13
ENDBRANCH   2   9
BRANCH   5  18
ATOM     18  C   UNL     1      -0.147  -4.473   0.345  0.00  0.00    +0.019 C 
BRANCH  18  19
ATOM     19  C   UNL     1       0.882  -5.308   1.063  0.00  0.00    +0.199 C 
ATOM     20  O   UNL     1       1.576  -4.808   1.923  0.00  0.00    -0.278 OA
ATOM     21  N   UNL     1       1.031  -6.611   0.750  0.00  0.00    -0.297 N 
BRANCH  21  22
ATOM     22  C   UNL     1       1.946  -7.450   1.527  0.00  0.00    +0.076 C 
ATOM     23  C   UNL     1       1.589  -7.376   3.025  0.00  0.00    +0.022 C 
ATOM     24  C   UNL     1       2.960  -7.406   3.745  0.00  0.00    +0.002 C 
ATOM     25  C   UNL     1       3.853  -6.550   2.813  0.00  0.00    +0.002 C 
ATOM     26  C   UNL     1       3.386  -6.925   1.392  0.00  0.00    +0.022 C 
ENDBRANCH  21  22
BRANCH  21  27
ATOM     27  C   UNL     1       0.277  -7.186  -0.366  0.00  0.00    +0.076 C 
ATOM     28  C   UNL     1       0.215  -8.712  -0.465  0.00  0.00    +0.024 C 
ATOM     29  C   UNL     1       1.070  -7.915  -1.453  0.00  0.00    +0.024 C 
ENDBRANCH  21  27
ENDBRANCH  18  19
ENDBRANCH   5  18
TORSDOF 7
