REMARK  Name = ZINC63738768
REMARK  9 active torsions:
REMARK  status: ('A' for Active; 'I' for Inactive)
REMARK    1  A    between atoms: C_1  and  C_2
REMARK    2  A    between atoms: C_2  and  C_4
REMARK    3  A    between atoms: C_2  and  C_24
REMARK    4  A    between atoms: C_10  and  C_12
REMARK    5  A    between atoms: C_18  and  O_22
REMARK    6  A    between atoms: O_22  and  C_23
REMARK    7  A    between atoms: N_26  and  C_27
REMARK    8  A    between atoms: C_27  and  C_28
REMARK    9  A    between atoms: C_28  and  C_29
REMARK                            x       y       z     vdW  Elec       q    Type
REMARK                         _______ _______ _______ _____ _____    ______ ____
ROOT
ATOM      1  C   UNL     1       0.742  -0.511   1.242  0.00  0.00    +0.004 C 
ATOM      2  C   UNL     1       2.177   0.020   1.231  0.00  0.00    +0.023 C 
ATOM      3  C   UNL     1       2.905  -0.461   2.491  0.00  0.00    +0.108 C 
ATOM      4  N   UNL     1       2.804  -1.924   2.566  0.00  0.00    -0.300 N 
ATOM      5  C   UNL     1       1.474  -2.545   2.493  0.00  0.00    +0.108 C 
ATOM      6  C   UNL     1       0.763  -2.041   1.233  0.00  0.00    +0.023 C 
ATOM      7  C   UNL     1       3.909  -2.683   2.698  0.00  0.00    +0.242 C 
ATOM      8  O   UNL     1       5.001  -2.159   2.757  0.00  0.00    -0.273 OA
ENDROOT
BRANCH   7   9
ATOM      9  C   UNL     1       3.789  -4.184   2.773  0.00  0.00    +0.190 C 
ATOM     10  C   UNL     1       3.196  -4.724   1.491  0.00  0.00    +0.016 C 
ATOM     11  C   UNL     1       4.126  -5.550   0.965  0.00  0.00    -0.003 A 
ATOM     12  C   UNL     1       4.151  -6.369  -0.254  0.00  0.00    +0.013 A 
ATOM     13  C   UNL     1       5.246  -7.111  -0.524  0.00  0.00    +0.046 A 
ATOM     14  C   UNL     1       6.362  -7.120   0.334  0.00  0.00    +0.122 A 
ATOM     15  C   UNL     1       6.409  -6.389   1.478  0.00  0.00    +0.071 A 
ATOM     16  C   UNL     1       5.312  -5.575   1.853  0.00  0.00    +0.047 A 
ATOM     17  N   UNL     1       5.119  -4.792   2.891  0.00  0.00    -0.370 N 
ATOM     18  H   UNL     1       5.749  -4.641   3.613  0.00  0.00    +0.161 HD
BRANCH  14  19
ATOM     19  O   UNL     1       7.431  -7.888   0.007  0.00  0.00    -0.495 OA
ATOM     20  C   UNL     1       7.342  -8.641  -1.204  0.00  0.00    +0.277 C 
ENDBRANCH  14  19
ENDBRANCH   7   9
BRANCH   1  22
ATOM     21  C   UNL     1      -0.019   1.526   0.010  0.00  0.00    +0.017 C 
ATOM     22  C   UNL     1       0.002  -0.004   0.002  0.00  0.00    +0.075 C 
BRANCH  22  23
ATOM     23  C   UNL     1      -1.412  -0.526   0.013  0.00  0.00    +0.216 C 
ATOM     24  O   UNL     1      -1.790  -1.233   0.922  0.00  0.00    -0.276 OA
ATOM     25  N   UNL     1      -2.256  -0.206  -0.988  0.00  0.00    -0.315 N 
ATOM     26  H   UNL     1      -1.953   0.360  -1.716  0.00  0.00    +0.149 HD
BRANCH  25  27
ATOM     27  C   UNL     1      -3.630  -0.713  -0.978  0.00  0.00    +0.108 C 
BRANCH  27  28
ATOM     28  C   UNL     1      -4.370  -0.206  -2.217  0.00  0.00    +0.049 C 
BRANCH  28  29
ATOM     29  C   UNL     1      -5.784  -0.728  -2.207  0.00  0.00    -0.072 C 
ATOM     30  C   UNL     1      -6.708   0.034  -1.715  0.00  0.00    -0.028 C 
ATOM     31  C   UNL     1      -8.156  -0.351  -1.627  0.00  0.00    +0.027 C 
ATOM     32  C   UNL     1      -8.444  -1.534  -2.554  0.00  0.00    +0.004 C 
ATOM     33  C   UNL     1      -7.392  -2.620  -2.297  0.00  0.00    +0.005 C 
ATOM     34  C   UNL     1      -6.034  -2.095  -2.772  0.00  0.00    +0.030 C 
ENDBRANCH  28  29
ENDBRANCH  27  28
ENDBRANCH  25  27
ENDBRANCH  22  23
ENDBRANCH   1  22
TORSDOF 7
