REMARK  Name = ZINC20518994
REMARK  5 active torsions:
REMARK  status: ('A' for Active; 'I' for Inactive)
REMARK    1  A    between atoms: N_9  and  N_18
REMARK    2  A    between atoms: C_10  and  C_13
REMARK    3  A    between atoms: C_19  and  C_21
REMARK    4  A    between atoms: C_21  and  C_22
REMARK    5  A    between atoms: C_22  and  C_23
REMARK                            x       y       z     vdW  Elec       q    Type
REMARK                         _______ _______ _______ _____ _____    ______ ____
ROOT
ATOM      1  C   UNL     1      -0.017   1.375   0.010  0.00  0.00    +0.001 A 
ATOM      2  C   UNL     1       1.168   2.095   0.002  0.00  0.00    +0.002 A 
ATOM      3  C   UNL     1       2.386   1.443  -0.008  0.00  0.00    +0.024 A 
ATOM      4  C   UNL     1       2.422   0.059  -0.013  0.00  0.00    +0.041 A 
ATOM      5  C   UNL     1       1.223  -0.674  -0.014  0.00  0.00    +0.059 A 
ATOM      6  C   UNL     1       0.002  -0.004   0.002  0.00  0.00    +0.015 A 
ATOM      7  C   UNL     1       1.296  -2.146  -0.048  0.00  0.00    +0.267 C 
ATOM      8  O   UNL     1       0.292  -2.813   0.114  0.00  0.00    -0.268 OA
ATOM      9  N   UNL     1       2.484  -2.746  -0.259  0.00  0.00    -0.188 N 
ATOM     10  C   UNL     1       3.668  -1.970  -0.631  0.00  0.00    +0.247 C 
ATOM     11  N   UNL     1       3.623  -0.642  -0.009  0.00  0.00    -0.318 N 
ATOM     12  H   UNL     1       4.417  -0.260   0.397  0.00  0.00    +0.148 HD
ENDROOT
BRANCH  10  13
ATOM     13  C   UNL     1       3.712  -1.815  -2.130  0.00  0.00    +0.145 A 
ATOM     14  C   UNL     1       4.250  -0.779  -2.797  0.00  0.00    +0.048 A 
ATOM     15  C   UNL     1       4.072  -1.042  -4.175  0.00  0.00    +0.041 A 
ATOM     16  C   UNL     1       3.435  -2.224  -4.266  0.00  0.00    +0.195 A 
ATOM     17  O   UNL     1       3.224  -2.689  -3.025  0.00  0.00    -0.464 OA
ENDBRANCH  10  13
BRANCH   9  18
ATOM     18  N   UNL     1       2.588  -4.136  -0.119  0.00  0.00    -0.229 N 
ATOM     19  C   UNL     1       2.086  -4.948  -1.071  0.00  0.00    +0.230 C 
ATOM     20  O   UNL     1       1.545  -4.476  -2.047  0.00  0.00    -0.274 OA
ATOM     21  H   UNL     1       3.021  -4.514   0.662  0.00  0.00    +0.173 HD
BRANCH  19  22
ATOM     22  C   UNL     1       2.198  -6.443  -0.920  0.00  0.00    +0.108 C 
BRANCH  22  23
ATOM     23  C   UNL     1       1.554  -7.127  -2.128  0.00  0.00    +0.134 C 
BRANCH  23  24
ATOM     24  C   UNL     1       1.665  -8.622  -1.978  0.00  0.00    +0.356 C 
ATOM     25  O   UNL     1       2.210  -9.097  -0.996  0.00  0.00    -0.246 OA
ATOM     26  O   UNL     1       1.211  -9.357  -2.838  0.00  0.00    -0.246 OA
ENDBRANCH  23  24
ENDBRANCH  22  23
ENDBRANCH  19  22
ENDBRANCH   9  18
TORSDOF 5
