REMARK  Name = ZINC35705047
REMARK  15 active torsions:
REMARK  status: ('A' for Active; 'I' for Inactive)
REMARK    1  A    between atoms: C_1  and  C_2
REMARK    2  A    between atoms: C_2  and  O_3
REMARK    3  A    between atoms: O_3  and  C_4
REMARK    4  A    between atoms: C_4  and  C_6
REMARK    5  A    between atoms: C_7  and  C_33
REMARK    6  A    between atoms: C_11  and  C_13
REMARK    7  A    between atoms: C_18  and  O_19
REMARK    8  A    between atoms: O_19  and  C_20
REMARK    9  A    between atoms: C_21  and  C_24
REMARK   10  A    between atoms: C_25  and  N_27
REMARK   11  A    between atoms: N_27  and  C_28
REMARK   12  A    between atoms: C_28  and  C_29
REMARK   13  A    between atoms: C_29  and  N_30
REMARK   14  A    between atoms: N_30  and  C_31
REMARK   15  A    between atoms: N_30  and  C_32
REMARK                            x       y       z     vdW  Elec       q    Type
REMARK                         _______ _______ _______ _____ _____    ______ ____
ROOT
ATOM      1  C   UNL     1      -2.260  -1.452   0.534  0.00  0.00    +0.088 C 
ATOM      2  C   UNL     1      -2.077  -2.743   0.038  0.00  0.00    +0.086 C 
ATOM      3  N   UNL     1      -3.119  -3.441  -0.411  0.00  0.00    -0.224 NA
ATOM      4  C   UNL     1      -4.359  -3.006  -0.430  0.00  0.00    +0.166 C 
ATOM      5  N   UNL     1      -4.746  -1.771   0.011  0.00  0.00    -0.267 N 
ATOM      6  C   UNL     1      -3.667  -0.897   0.544  0.00  0.00    +0.153 C 
ATOM      7  C   UNL     1      -6.090  -1.466  -0.077  0.00  0.00    +0.048 C 
ATOM      8  C   UNL     1      -6.914  -2.406  -0.590  0.00  0.00    +0.072 C 
ATOM      9  S   UNL     1      -5.780  -3.733  -0.951  0.00  0.00    -0.060 S 
ENDROOT
BRANCH   6  10
ATOM     10  C   UNL     1      -4.013  -0.539   1.966  0.00  0.00    +0.020 A 
ATOM     11  C   UNL     1      -4.671  -1.452   2.768  0.00  0.00    +0.009 A 
ATOM     12  C   UNL     1      -4.989  -1.124   4.073  0.00  0.00    +0.001 A 
ATOM     13  C   UNL     1      -4.651   0.117   4.579  0.00  0.00    +0.004 A 
ATOM     14  C   UNL     1      -3.993   1.033   3.782  0.00  0.00    +0.046 A 
ATOM     15  C   UNL     1      -3.667   0.705   2.473  0.00  0.00    +0.125 A 
BRANCH  15  16
ATOM     16  O   UNL     1      -3.014   1.602   1.689  0.00  0.00    -0.495 OA
ATOM     17  C   UNL     1      -2.599   2.822   2.306  0.00  0.00    +0.277 C 
ENDBRANCH  15  16
ENDBRANCH   6  10
BRANCH   2  18
ATOM     18  C   UNL     1      -0.722  -3.339   0.010  0.00  0.00    +0.001 A 
ATOM     19  C   UNL     1      -0.511  -4.623   0.513  0.00  0.00    +0.010 A 
ATOM     20  C   UNL     1       0.755  -5.172   0.485  0.00  0.00    +0.001 A 
ATOM     21  C   UNL     1       1.813  -4.453  -0.041  0.00  0.00    +0.000 A 
ATOM     22  C   UNL     1       1.610  -3.179  -0.542  0.00  0.00    +0.001 A 
ATOM     23  C   UNL     1       0.348  -2.621  -0.525  0.00  0.00    +0.010 A 
ENDBRANCH   2  18
BRANCH   7  24
ATOM     24  C   UNL     1      -6.606  -0.165   0.371  0.00  0.00    +0.091 C 
ATOM     25  C   UNL     1      -7.935   0.053   0.415  0.00  0.00    +0.239 C 
ATOM     26  O   UNL     1      -8.797  -0.965   0.179  0.00  0.00    -0.271 OA
BRANCH  25  27
ATOM     27  N   UNL     1      -8.419   1.318   0.702  0.00  0.00    -0.314 N 
ATOM     28  H   UNL     1      -7.805   2.063   0.798  0.00  0.00    +0.149 HD
BRANCH  27  29
ATOM     29  C   UNL     1      -9.860   1.532   0.861  0.00  0.00    +0.086 C 
BRANCH  29  30
ATOM     30  C   UNL     1     -10.116   2.978   1.293  0.00  0.00    -0.061 C 
BRANCH  30  31
ATOM     31  N   UNL     1     -11.547   3.159   1.571  0.00  0.00    +0.377 N 
ATOM     32  C   UNL     1     -11.775   4.509   2.105  0.00  0.00    -0.097 C 
ATOM     33  C   UNL     1     -12.312   2.990   0.328  0.00  0.00    -0.097 C 
ATOM     34  H   UNL     1     -11.848   2.474   2.247  0.00  0.00    -0.083 HD
ENDBRANCH  30  31
ENDBRANCH  29  30
ENDBRANCH  27  29
ENDBRANCH  25  27
ENDBRANCH   7  24
BRANCH   1  35
ATOM     35  C   UNL     1      -1.183  -0.702   1.009  0.00  0.00    +0.339 C 
ATOM     36  O   UNL     1      -0.727   0.204   0.333  0.00  0.00    -0.245 OA
BRANCH  35  37
ATOM     37  O   UNL     1      -0.647  -0.980   2.218  0.00  0.00    -0.462 OA
BRANCH  37  39
ATOM     38  C   UNL     1       0.942  -0.640   4.008  0.00  0.00    +0.048 C 
ATOM     39  C   UNL     1       0.378  -0.103   2.691  0.00  0.00    +0.229 C 
ENDBRANCH  37  39
ENDBRANCH  35  37
ENDBRANCH   1  35
TORSDOF 11
