REMARK  Name = ZINC63804114
REMARK  10 active torsions:
REMARK  status: ('A' for Active; 'I' for Inactive)
REMARK    1  A    between atoms: C_1  and  N_2
REMARK    2  A    between atoms: N_2  and  C_3
REMARK    3  A    between atoms: N_2  and  C_4
REMARK    4  A    between atoms: C_4  and  C_5
REMARK    5  A    between atoms: C_4  and  C_19
REMARK    6  A    between atoms: C_5  and  N_6
REMARK    7  A    between atoms: C_7  and  C_9
REMARK    8  A    between atoms: C_9  and  N_10
REMARK    9  A    between atoms: N_10  and  S_11
REMARK   10  A    between atoms: S_11  and  C_14
REMARK                            x       y       z     vdW  Elec       q    Type
REMARK                         _______ _______ _______ _____ _____    ______ ____
ROOT
ATOM      1  N   UNL     1      -0.871  -2.414   1.123  0.00  0.00    -0.316 N 
ATOM      2  C   UNL     1      -0.780  -3.743   1.332  0.00  0.00    +0.229 C 
ATOM      3  O   UNL     1      -1.308  -4.515   0.560  0.00  0.00    -0.274 OA
ATOM      4  H   UNL     1      -0.448  -1.797   1.741  0.00  0.00    +0.149 HD
ENDROOT
BRANCH   1   5
ATOM      5  C   UNL     1      -1.607  -1.903  -0.035  0.00  0.00    +0.089 C 
BRANCH   5   6
ATOM      6  C   UNL     1      -1.399  -0.392  -0.146  0.00  0.00    -0.049 C 
BRANCH   6   7
ATOM      7  C   UNL     1      -2.352   0.179  -1.198  0.00  0.00    -0.023 C 
ATOM      8  C   UNL     1      -2.066   1.669  -1.390  0.00  0.00    +0.002 C 
ATOM      9  C   UNL     1      -3.019   2.240  -2.443  0.00  0.00    +0.000 C 
ATOM     10  C   UNL     1      -4.464   2.054  -1.976  0.00  0.00    +0.000 C 
ATOM     11  C   UNL     1      -4.750   0.563  -1.784  0.00  0.00    +0.000 C 
ATOM     12  C   UNL     1      -3.797  -0.007  -0.732  0.00  0.00    +0.002 C 
ENDBRANCH   6   7
BRANCH   6  14
ATOM     13  C   UNL     1       0.904  -0.660   0.472  0.00  0.00    -0.096 C 
ATOM     14  N   UNL     1      -0.011  -0.116  -0.541  0.00  0.00    +0.379 N 
ATOM     15  C   UNL     1       0.263  -0.748  -1.839  0.00  0.00    -0.096 C 
ATOM     16  H   UNL     1       0.125   0.881  -0.617  0.00  0.00    -0.082 HD
ENDBRANCH   6  14
ENDBRANCH   5   6
ENDBRANCH   1   5
BRANCH   2  17
ATOM     17  C   UNL     1      -0.022  -4.269   2.524  0.00  0.00    +0.201 C 
BRANCH  17  18
ATOM     18  N   UNL     1      -0.071  -5.733   2.526  0.00  0.00    -0.181 NA
ATOM     19  H   UNL     1      -0.711  -6.198   1.965  0.00  0.00    +0.149 HD
BRANCH  18  20
ATOM     20  S   UNL     1       0.968  -6.594   3.487  0.00  0.00    +0.065 S 
ATOM     21  O   UNL     1       0.660  -7.967   3.289  0.00  0.00    -0.153 OA
ATOM     22  O   UNL     1       2.266  -6.064   3.258  0.00  0.00    -0.153 OA
BRANCH  20  23
ATOM     23  C   UNL     1       0.559  -6.222   5.160  0.00  0.00    +0.142 A 
ATOM     24  C   UNL     1      -0.313  -6.850   5.985  0.00  0.00    +0.036 A 
ATOM     25  C   UNL     1      -0.474  -6.378   7.275  0.00  0.00    +0.010 A 
ATOM     26  C   UNL     1       0.246  -5.302   7.676  0.00  0.00    +0.047 A 
ATOM     27  S   UNL     1       1.194  -4.926   6.211  0.00  0.00    -0.077 S 
ENDBRANCH  20  23
ENDBRANCH  18  20
ENDBRANCH  17  18
ENDBRANCH   2  17
TORSDOF 8
