REMARK  Name = ZINC63138039
REMARK  12 active torsions:
REMARK  status: ('A' for Active; 'I' for Inactive)
REMARK    1  A    between atoms: C_1  and  C_2
REMARK    2  A    between atoms: C_2  and  C_3
REMARK    3  A    between atoms: C_2  and  O_4
REMARK    4  A    between atoms: O_4  and  C_5
REMARK    5  A    between atoms: C_5  and  C_6
REMARK    6  A    between atoms: C_6  and  C_7
REMARK    7  A    between atoms: C_7  and  N_8
REMARK    8  A    between atoms: C_28  and  C_30
REMARK    9  A    between atoms: C_33  and  O_38
REMARK   10  A    between atoms: C_34  and  O_36
REMARK   11  A    between atoms: O_36  and  C_37
REMARK   12  A    between atoms: O_38  and  C_39
REMARK                            x       y       z     vdW  Elec       q    Type
REMARK                         _______ _______ _______ _____ _____    ______ ____
ROOT
ATOM      1  N   UNL     1      -5.415  -1.607  -2.204  0.00  0.00    -0.291 N 
ATOM      2  C   UNL     1      -5.498  -3.057  -2.235  0.00  0.00    +0.203 C 
ATOM      3  C   UNL     1      -6.909  -3.543  -2.191  0.00  0.00    +0.234 C 
ATOM      4  O   UNL     1      -7.093  -4.742  -2.213  0.00  0.00    -0.274 OA
ATOM      5  N   UNL     1      -7.985  -2.750  -2.127  0.00  0.00    -0.279 N 
ATOM      6  C   UNL     1      -7.890  -1.295  -2.076  0.00  0.00    +0.167 C 
ATOM      7  C   UNL     1      -6.480  -0.809  -2.127  0.00  0.00    +0.237 C 
ATOM      8  O   UNL     1      -6.291   0.389  -2.100  0.00  0.00    -0.274 OA
ATOM      9  C   UNL     1      -8.569  -0.770  -0.798  0.00  0.00    +0.065 C 
ATOM     10  C   UNL     1      -9.893  -1.485  -0.689  0.00  0.00    -0.034 C 
ATOM     11  C   UNL     1     -11.127  -1.030  -0.512  0.00  0.00    -0.001 A 
ATOM     12  C   UNL     1     -11.645   0.322  -0.247  0.00  0.00    +0.010 A 
ATOM     13  C   UNL     1     -12.996   0.436  -0.140  0.00  0.00    +0.001 A 
ATOM     14  C   UNL     1     -13.872  -0.646  -0.268  0.00  0.00    +0.002 A 
ATOM     15  C   UNL     1     -13.482  -1.925  -0.502  0.00  0.00    +0.026 A 
ATOM     16  C   UNL     1     -12.084  -2.173  -0.626  0.00  0.00    +0.043 A 
ATOM     17  N   UNL     1     -11.442  -3.286  -0.825  0.00  0.00    -0.375 N 
ATOM     18  C   UNL     1     -10.007  -3.001  -0.801  0.00  0.00    +0.131 C 
ATOM     19  C   UNL     1      -9.318  -3.395  -2.110  0.00  0.00    +0.134 C 
ATOM     20  H   UNL     1     -11.845  -4.157  -0.965  0.00  0.00    +0.160 HD
ENDROOT
BRANCH  19  21
ATOM     21  C   UNL     1     -10.134  -2.913  -3.282  0.00  0.00    -0.021 A 
ATOM     22  C   UNL     1     -10.400  -1.564  -3.429  0.00  0.00    +0.009 A 
ATOM     23  C   UNL     1     -11.148  -1.117  -4.502  0.00  0.00    +0.050 A 
ATOM     24  C   UNL     1     -11.633  -2.021  -5.434  0.00  0.00    +0.162 A 
ATOM     25  C   UNL     1     -11.364  -3.379  -5.286  0.00  0.00    +0.162 A 
ATOM     26  C   UNL     1     -10.610  -3.820  -4.210  0.00  0.00    +0.055 A 
BRANCH  25  27
ATOM     27  O   UNL     1     -11.838  -4.270  -6.197  0.00  0.00    -0.491 OA
ATOM     28  C   UNL     1     -11.524  -5.647  -5.981  0.00  0.00    +0.277 C 
ENDBRANCH  25  27
BRANCH  24  29
ATOM     29  O   UNL     1     -12.369  -1.583  -6.490  0.00  0.00    -0.491 OA
ATOM     30  C   UNL     1     -12.605  -0.176  -6.577  0.00  0.00    +0.277 C 
ENDBRANCH  24  29
ENDBRANCH  19  21
BRANCH   1  31
ATOM     31  C   UNL     1      -4.089  -0.988  -2.254  0.00  0.00    +0.110 C 
BRANCH  31  32
ATOM     32  C   UNL     1      -3.553  -0.813  -0.831  0.00  0.00    +0.047 C 
BRANCH  32  33
ATOM     33  C   UNL     1      -2.167  -0.167  -0.884  0.00  0.00    +0.161 C 
BRANCH  33  34
ATOM     34  O   UNL     1      -1.667  -0.003   0.445  0.00  0.00    -0.377 OA
BRANCH  34  36
ATOM     35  C   UNL     1      -0.516   2.116   0.599  0.00  0.00    +0.037 C 
ATOM     36  C   UNL     1      -0.371   0.595   0.509  0.00  0.00    +0.112 C 
ATOM     37  C   UNL     1       0.369   0.079   1.744  0.00  0.00    +0.037 C 
ENDBRANCH  34  36
ENDBRANCH  33  34
ENDBRANCH  32  33
ENDBRANCH  31  32
ENDBRANCH   1  31
TORSDOF 8
