REMARK  Name = ZINC19026700
REMARK  11 active torsions:
REMARK  status: ('A' for Active; 'I' for Inactive)
REMARK    1  A    between atoms: C_1  and  C_2
REMARK    2  A    between atoms: N_13  and  C_31
REMARK    3  A    between atoms: C_14  and  S_16
REMARK    4  A    between atoms: S_16  and  C_17
REMARK    5  A    between atoms: C_17  and  C_18
REMARK    6  A    between atoms: N_20  and  C_21
REMARK    7  A    between atoms: C_24  and  C_27
REMARK    8  A    between atoms: N_29  and  C_30
REMARK    9  A    between atoms: C_31  and  C_32
REMARK   10  A    between atoms: C_32  and  C_33
REMARK   11  A    between atoms: C_32  and  C_34
REMARK                            x       y       z     vdW  Elec       q    Type
REMARK                         _______ _______ _______ _____ _____    ______ ____
ROOT
ATOM      1  C   UNL     1     -15.922  10.198   0.994  0.00  0.00    +0.008 C 
ATOM      2  C   UNL     1     -14.445  10.056   0.621  0.00  0.00    -0.009 C 
ATOM      3  C   UNL     1     -13.603  10.989   1.496  0.00  0.00    +0.008 C 
ATOM      4  C   UNL     1     -12.168  11.040   0.970  0.00  0.00    +0.037 C 
ATOM      5  C   UNL     1     -11.643   9.613   0.832  0.00  0.00    -0.023 A 
ATOM      6  C   UNL     1     -12.493   8.568   0.790  0.00  0.00    -0.004 A 
ATOM      7  S   UNL     1     -11.458   7.138   0.626  0.00  0.00    -0.073 S 
ATOM      8  C   UNL     1      -9.881   7.952   0.614  0.00  0.00    +0.117 A 
ATOM      9  C   UNL     1     -10.213   9.311   0.739  0.00  0.00    +0.076 A 
ATOM     10  C   UNL     1      -9.111  10.223   0.759  0.00  0.00    +0.263 A 
ATOM     11  O   UNL     1      -9.303  11.422   0.865  0.00  0.00    -0.267 OA
ATOM     12  N   UNL     1      -7.859   9.739   0.659  0.00  0.00    -0.287 N 
ATOM     13  C   UNL     1      -7.625   8.400   0.539  0.00  0.00    +0.173 A 
ATOM     14  N   UNL     1      -8.623   7.539   0.514  0.00  0.00    -0.216 NA
ATOM     15  C   UNL     1     -13.989   8.610   0.865  0.00  0.00    +0.046 C 
ENDROOT
BRANCH  13  16
ATOM     16  S   UNL     1      -5.968   7.815   0.410  0.00  0.00    -0.078 S 
BRANCH  16  17
ATOM     17  C   UNL     1      -6.272   6.035   0.281  0.00  0.00    +0.173 C 
BRANCH  17  18
ATOM     18  C   UNL     1      -4.958   5.309   0.158  0.00  0.00    +0.227 C 
ATOM     19  O   UNL     1      -3.918   5.933   0.157  0.00  0.00    -0.275 OA
ATOM     20  N   UNL     1      -4.938   3.966   0.048  0.00  0.00    -0.285 N 
ATOM     21  H   UNL     1      -5.770   3.472  -0.018  0.00  0.00    +0.155 HD
BRANCH  20  22
ATOM     22  C   UNL     1      -3.721   3.286   0.030  0.00  0.00    +0.033 A 
ATOM     23  C   UNL     1      -3.616   2.033   0.627  0.00  0.00    +0.024 A 
ATOM     24  C   UNL     1      -2.416   1.359   0.611  0.00  0.00    +0.015 A 
ATOM     25  C   UNL     1      -1.302   1.934  -0.007  0.00  0.00    +0.037 A 
ATOM     26  C   UNL     1      -1.409   3.194  -0.601  0.00  0.00    +0.015 A 
ATOM     27  C   UNL     1      -2.613   3.861  -0.586  0.00  0.00    +0.024 A 
BRANCH  25  28
ATOM     28  C   UNL     1      -0.013   1.214  -0.026  0.00  0.00    +0.244 C 
ATOM     29  O   UNL     1       0.080   0.120   0.496  0.00  0.00    -0.270 OA
ATOM     30  N   UNL     1       1.059   1.767  -0.627  0.00  0.00    -0.314 N 
ATOM     31  C   UNL     1       2.336   1.050  -0.652  0.00  0.00    +0.128 C 
ATOM     32  H   UNL     1       0.985   2.640  -1.044  0.00  0.00    +0.149 HD
ENDBRANCH  25  28
ENDBRANCH  20  22
ENDBRANCH  17  18
ENDBRANCH  16  17
ENDBRANCH  13  16
BRANCH  12  33
ATOM     33  C   UNL     1      -6.726  10.667   0.679  0.00  0.00    +0.130 C 
BRANCH  33  34
ATOM     34  C   UNL     1      -6.402  11.107  -0.750  0.00  0.00    +0.003 C 
ATOM     35  C   UNL     1      -5.302  12.170  -0.719  0.00  0.00    +0.009 C 
ATOM     36  C   UNL     1      -5.921   9.900  -1.558  0.00  0.00    +0.009 C 
ENDBRANCH  33  34
ENDBRANCH  12  33
TORSDOF 7
