REMARK  Name = ZINC14477522
REMARK  3 active torsions:
REMARK  status: ('A' for Active; 'I' for Inactive)
REMARK    1  A    between atoms: C_6  and  S_7
REMARK    2  A    between atoms: S_7  and  N_10
REMARK    3  A    between atoms: C_22  and  C_25
REMARK                            x       y       z     vdW  Elec       q    Type
REMARK                         _______ _______ _______ _____ _____    ______ ____
ROOT
ATOM      1  C   UNL     1       5.081  -0.085   0.582  0.00  0.00    +0.030 A 
ATOM      2  C   UNL     1       4.655   0.958  -0.218  0.00  0.00    +0.025 A 
ATOM      3  C   UNL     1       3.962   2.023   0.341  0.00  0.00    +0.031 A 
ATOM      4  C   UNL     1       3.692   2.051   1.701  0.00  0.00    -0.018 A 
ATOM      5  C   UNL     1       4.124   0.997   2.494  0.00  0.00    +0.034 A 
ATOM      6  C   UNL     1       4.812  -0.062   1.938  0.00  0.00    +0.106 A 
ATOM      7  C   UNL     1       2.950   3.178   2.347  0.00  0.00    +0.049 C 
ATOM      8  C   UNL     1       1.537   2.777   2.697  0.00  0.00    -0.023 C 
ATOM      9  C   UNL     1       0.721   3.787   2.516  0.00  0.00    -0.030 C 
ATOM     10  C   UNL     1       1.481   5.004   2.027  0.00  0.00    +0.033 C 
ATOM     11  C   UNL     1       2.780   4.401   1.421  0.00  0.00    +0.029 C 
ATOM     12  C   UNL     1       2.452   3.936  -0.000  0.00  0.00    +0.106 C 
ATOM     13  N   UNL     1       3.535   3.071  -0.482  0.00  0.00    -0.336 N 
ATOM     14  H   UNL     1       3.944   3.222  -1.348  0.00  0.00    +0.147 HD
ENDROOT
BRANCH  12  15
ATOM     15  C   UNL     1       1.157   3.165   0.008  0.00  0.00    -0.009 A 
ATOM     16  C   UNL     1       1.158   1.814   0.299  0.00  0.00    +0.008 A 
ATOM     17  C   UNL     1      -0.029   1.107   0.306  0.00  0.00    +0.020 A 
ATOM     18  C   UNL     1      -1.220   1.750   0.018  0.00  0.00    +0.042 A 
ATOM     19  C   UNL     1      -1.222   3.103  -0.269  0.00  0.00    +0.040 A 
ATOM     20  C   UNL     1      -0.033   3.811  -0.276  0.00  0.00    +0.047 A 
ATOM     21 CL   UNL     1      -0.035   5.508  -0.642  0.00  0.00    -0.083 Cl
ATOM     22 CL   UNL     1      -2.710   0.861   0.020  0.00  0.00    -0.083 Cl
ENDBRANCH  12  15
BRANCH   6  23
ATOM     23  S   UNL     1       5.351  -1.392   2.961  0.00  0.00    +0.061 S 
ATOM     24  O   UNL     1       6.448  -1.999   2.294  0.00  0.00    -0.153 OA
ATOM     25  O   UNL     1       5.454  -0.874   4.280  0.00  0.00    -0.153 OA
BRANCH  23  26
ATOM     26  N   UNL     1       4.133  -2.514   2.987  0.00  0.00    -0.177 NA
ATOM     27  C   UNL     1       3.029  -2.558   3.958  0.00  0.00    +0.109 C 
ATOM     28  C   UNL     1       2.159  -3.783   3.606  0.00  0.00    +0.018 C 
ATOM     29  C   UNL     1       3.140  -4.688   2.814  0.00  0.00    +0.018 C 
ATOM     30  C   UNL     1       3.980  -3.638   2.045  0.00  0.00    +0.109 C 
ENDBRANCH  23  26
ENDBRANCH   6  23
TORSDOF 3
