REMARK  Name = ZINC04500348
REMARK  6 active torsions:
REMARK  status: ('A' for Active; 'I' for Inactive)
REMARK    1  A    between atoms: C_1  and  C_2
REMARK    2  A    between atoms: C_9  and  C_11
REMARK    3  A    between atoms: C_11  and  S_12
REMARK    4  A    between atoms: S_12  and  C_13
REMARK    5  A    between atoms: N_26  and  C_27
REMARK    6  A    between atoms: C_27  and  C_28
REMARK                            x       y       z     vdW  Elec       q    Type
REMARK                         _______ _______ _______ _____ _____    ______ ____
ROOT
ATOM      1  C   UNL     1      -0.996   3.760   8.449  0.00  0.00    +0.198 A 
ATOM      2  N   UNL     1      -2.262   3.434   8.538  0.00  0.00    -0.120 NA
ATOM      3  N   UNL     1      -2.746   3.901   9.765  0.00  0.00    -0.109 NA
ATOM      4  C   UNL     1      -1.761   4.508  10.389  0.00  0.00    +0.240 A 
ATOM      5  N   UNL     1      -0.653   4.435   9.589  0.00  0.00    -0.256 N 
ATOM      6  C   UNL     1       0.554   5.000   9.998  0.00  0.00    +0.064 A 
ATOM      7  C   UNL     1       1.683   4.931   9.196  0.00  0.00    +0.027 A 
ATOM      8  C   UNL     1       2.866   5.499   9.625  0.00  0.00    +0.002 A 
ATOM      9  C   UNL     1       2.937   6.138  10.852  0.00  0.00    +0.001 A 
ATOM     10  C   UNL     1       1.824   6.216  11.663  0.00  0.00    +0.015 A 
ATOM     11  C   UNL     1       0.624   5.647  11.241  0.00  0.00    +0.064 A 
ATOM     12  C   UNL     1      -0.588   5.707  12.079  0.00  0.00    +0.263 A 
ATOM     13  O   UNL     1      -0.564   6.260  13.162  0.00  0.00    -0.267 OA
ATOM     14  N   UNL     1      -1.723   5.140  11.622  0.00  0.00    -0.273 N 
ENDROOT
BRANCH   1  15
ATOM     15  S   UNL     1       0.075   3.399   7.097  0.00  0.00    -0.076 S 
BRANCH  15  16
ATOM     16  C   UNL     1      -0.981   2.497   5.930  0.00  0.00    +0.173 C 
BRANCH  16  24
ATOM     17  C   UNL     1      -0.013   1.086   0.008  0.00  0.00    +0.009 C 
ATOM     18  C   UNL     1      -0.729   1.579   1.267  0.00  0.00    +0.003 C 
ATOM     19  C   UNL     1      -2.163   1.046   1.280  0.00  0.00    +0.006 C 
ATOM     20  C   UNL     1      -2.891   1.566   2.522  0.00  0.00    +0.019 C 
ATOM     21  C   UNL     1      -2.175   1.059   3.778  0.00  0.00    +0.108 C 
ATOM     22  N   UNL     1      -0.759   1.444   3.703  0.00  0.00    -0.301 N 
ATOM     23  C   UNL     1       0.012   1.072   2.508  0.00  0.00    +0.111 C 
ATOM     24  C   UNL     1      -0.177   2.123   4.711  0.00  0.00    +0.226 C 
ATOM     25  O   UNL     1       0.993   2.435   4.637  0.00  0.00    -0.275 OA
ENDBRANCH  16  24
ENDBRANCH  15  16
ENDBRANCH   1  15
BRANCH  14  26
ATOM     26  C   UNL     1      -2.935   5.192  12.443  0.00  0.00    +0.155 C 
BRANCH  26  27
ATOM     27  C   UNL     1      -3.716   6.436  12.108  0.00  0.00    -0.013 C 
ATOM     28  C   UNL     1      -4.972   6.343  11.744  0.00  0.00    +0.005 C 
ENDBRANCH  26  27
ENDBRANCH  14  26
TORSDOF 5
