REMARK  Name = ZINC05473156
REMARK  8 active torsions:
REMARK  status: ('A' for Active; 'I' for Inactive)
REMARK    1  A    between atoms: C_1  and  C_2
REMARK    2  A    between atoms: C_2  and  O_3
REMARK    3  A    between atoms: O_3  and  C_4
REMARK    4  A    between atoms: N_6  and  N_7
REMARK    5  A    between atoms: C_11  and  C_14
REMARK    6  A    between atoms: C_14  and  C_15
REMARK    7  A    between atoms: C_14  and  C_16
REMARK    8  A    between atoms: C_14  and  C_17
REMARK                            x       y       z     vdW  Elec       q    Type
REMARK                         _______ _______ _______ _____ _____    ______ ____
ROOT
ATOM      1  N   UNL     1      -0.981  -3.524   1.795  0.00  0.00    -0.187 NA
ATOM      2  C   UNL     1      -0.549  -2.602   1.020  0.00  0.00    +0.037 C 
ATOM      3  C   UNL     1       0.843  -2.036   1.189  0.00  0.00    +0.053 C 
ATOM      4  C   UNL     1       0.743  -0.508   1.252  0.00  0.00    +0.010 C 
ATOM      5  C   UNL     1      -0.000   0.004   0.017  0.00  0.00    -0.005 C 
ATOM      6  C   UNL     1      -1.436  -0.522   0.021  0.00  0.00    +0.010 C 
ATOM      7  C   UNL     1      -1.418  -2.051  -0.089  0.00  0.00    +0.053 C 
ENDROOT
BRANCH   1  10
ATOM      8  C   UNL     1      -2.793  -4.858   2.574  0.00  0.00    +0.420 C 
ATOM      9  O   UNL     1      -3.943  -5.240   2.482  0.00  0.00    -0.225 OA
ATOM     10  N   UNL     1      -2.307  -3.965   1.689  0.00  0.00    -0.172 N 
ATOM     11  H   UNL     1      -2.875  -3.626   0.980  0.00  0.00    +0.181 HD
BRANCH   8  12
ATOM     12  O   UNL     1      -2.004  -5.328   3.559  0.00  0.00    -0.450 OA
BRANCH  12  14
ATOM     13  C   UNL     1      -1.555  -6.704   5.517  0.00  0.00    +0.048 C 
ATOM     14  C   UNL     1      -2.594  -6.288   4.474  0.00  0.00    +0.230 C 
ENDBRANCH  12  14
ENDBRANCH   8  12
ENDBRANCH   1  10
BRANCH   5  15
ATOM     15  C   UNL     1      -0.020   1.534   0.034  0.00  0.00    -0.035 C 
ATOM     16  C   UNL     1       1.416   2.062   0.021  0.00  0.00    +0.011 C 
ATOM     17  C   UNL     1      -0.763   2.048  -1.201  0.00  0.00    +0.011 C 
ATOM     18  C   UNL     1      -0.732   2.022   1.297  0.00  0.00    +0.011 C 
ENDBRANCH   5  15
TORSDOF 4
