REMARK  Name = ZINC38738772
REMARK  12 active torsions:
REMARK  status: ('A' for Active; 'I' for Inactive)
REMARK    1  A    between atoms: C_1  and  C_2
REMARK    2  A    between atoms: C_2  and  C_3
REMARK    3  A    between atoms: C_2  and  C_4
REMARK    4  A    between atoms: C_4  and  C_5
REMARK    5  A    between atoms: C_5  and  C_7
REMARK    6  A    between atoms: C_5  and  N_31
REMARK    7  A    between atoms: N_9  and  C_10
REMARK    8  A    between atoms: C_10  and  C_12
REMARK    9  A    between atoms: C_10  and  C_22
REMARK   10  A    between atoms: C_15  and  S_18
REMARK   11  A    between atoms: S_18  and  C_21
REMARK   12  A    between atoms: C_32  and  C_34
REMARK                            x       y       z     vdW  Elec       q    Type
REMARK                         _______ _______ _______ _____ _____    ______ ____
ROOT
ATOM      1  C   UNL     1      -4.882  -2.888   1.274  0.00  0.00    +0.134 C 
ENDROOT
BRANCH   1   2
ATOM      2  C   UNL     1      -5.851  -1.912   0.658  0.00  0.00    -0.022 A 
ATOM      3  C   UNL     1      -5.668  -0.552   0.828  0.00  0.00    +0.009 A 
ATOM      4  C   UNL     1      -6.549   0.346   0.263  0.00  0.00    +0.046 A 
ATOM      5  C   UNL     1      -7.632  -0.109  -0.485  0.00  0.00    +0.124 A 
ATOM      6  C   UNL     1      -7.810  -1.478  -0.642  0.00  0.00    -0.002 A 
ATOM      7  C   UNL     1      -6.923  -2.373  -0.085  0.00  0.00    +0.013 A 
ATOM      8  C   UNL     1      -9.066  -1.670  -1.470  0.00  0.00    +0.080 C 
ATOM      9  C   UNL     1      -9.724  -0.273  -1.382  0.00  0.00    +0.234 C 
ATOM     10  O   UNL     1      -8.603   0.592  -1.132  0.00  0.00    -0.491 OA
ENDBRANCH   1   2
BRANCH   1  11
ATOM     11  C   UNL     1      -5.213  -3.071   2.733  0.00  0.00    -0.023 A 
ATOM     12  C   UNL     1      -4.806  -2.128   3.658  0.00  0.00    +0.007 A 
ATOM     13  C   UNL     1      -5.109  -2.296   4.996  0.00  0.00    +0.027 A 
ATOM     14  C   UNL     1      -5.821  -3.407   5.409  0.00  0.00    +0.088 A 
ATOM     15  C   UNL     1      -6.229  -4.349   4.484  0.00  0.00    +0.027 A 
ATOM     16  C   UNL     1      -5.930  -4.179   3.145  0.00  0.00    +0.007 A 
BRANCH  14  17
ATOM     17  S   UNL     1      -6.207  -3.622   7.115  0.00  0.00    -0.006 S 
ATOM     18  O   UNL     1      -6.348  -5.026   7.280  0.00  0.00    -0.170 OA
ATOM     19  O   UNL     1      -5.192  -2.908   7.808  0.00  0.00    -0.170 OA
ATOM     20  C   UNL     1      -7.810  -2.802   7.337  0.00  0.00    +0.200 C 
ENDBRANCH  14  17
ENDBRANCH   1  11
BRANCH   1  23
ATOM     21  C   UNL     1      -2.819  -2.590   0.013  0.00  0.00    +0.234 C 
ATOM     22  O   UNL     1      -3.320  -3.216  -0.898  0.00  0.00    -0.274 OA
ATOM     23  N   UNL     1      -3.518  -2.371   1.144  0.00  0.00    -0.303 N 
ATOM     24  H   UNL     1      -3.118  -1.870   1.872  0.00  0.00    +0.150 HD
BRANCH  21  25
ATOM     25  C   UNL     1      -1.416  -2.058  -0.121  0.00  0.00    +0.159 C 
BRANCH  25  26
ATOM     26  N   UNL     1      -0.876  -2.426  -1.433  0.00  0.00    -0.300 N 
ATOM     27  C   UNL     1       0.456  -2.525  -1.610  0.00  0.00    +0.245 C 
ATOM     28  O   UNL     1       1.210  -2.307  -0.682  0.00  0.00    -0.270 OA
ATOM     29  H   UNL     1      -1.478  -2.600  -2.173  0.00  0.00    +0.150 HD
BRANCH  27  30
ATOM     30  C   UNL     1       1.000  -2.897  -2.933  0.00  0.00    +0.037 A 
ATOM     31  C   UNL     1       0.137  -3.141  -4.003  0.00  0.00    +0.013 A 
ATOM     32  C   UNL     1       0.651  -3.487  -5.235  0.00  0.00    +0.001 A 
ATOM     33  C   UNL     1       2.019  -3.593  -5.412  0.00  0.00    +0.000 A 
ATOM     34  C   UNL     1       2.881  -3.352  -4.356  0.00  0.00    +0.001 A 
ATOM     35  C   UNL     1       2.380  -2.999  -3.120  0.00  0.00    +0.013 A 
ENDBRANCH  27  30
ENDBRANCH  25  26
BRANCH  25  36
ATOM     36  C   UNL     1      -1.433  -0.534   0.013  0.00  0.00    +0.034 C 
BRANCH  36  38
ATOM     37  C   UNL     1      -0.019   1.526   0.010  0.00  0.00    +0.007 C 
ATOM     38  C   UNL     1       0.002  -0.004   0.002  0.00  0.00    -0.015 C 
ATOM     39  C   UNL     1       0.742  -0.511   1.242  0.00  0.00    +0.007 C 
ENDBRANCH  36  38
ENDBRANCH  25  36
ENDBRANCH  21  25
ENDBRANCH   1  23
TORSDOF 9
