REMARK  Name = ZINC13088515
REMARK  9 active torsions:
REMARK  status: ('A' for Active; 'I' for Inactive)
REMARK    1  A    between atoms: C_1  and  C_2
REMARK    2  A    between atoms: C_7  and  C_8
REMARK    3  A    between atoms: C_8  and  C_10
REMARK    4  A    between atoms: C_8  and  N_11
REMARK    5  A    between atoms: N_11  and  S_12
REMARK    6  A    between atoms: S_12  and  C_15
REMARK    7  A    between atoms: C_17  and  C_23
REMARK    8  A    between atoms: C_19  and  C_22
REMARK    9  A    between atoms: C_20  and  C_21
REMARK                            x       y       z     vdW  Elec       q    Type
REMARK                         _______ _______ _______ _____ _____    ______ ____
ROOT
ATOM      1  S   UNL     1      -2.583   4.396   0.147  0.00  0.00    +0.059 S 
ATOM      2  O   UNL     1      -2.414   5.803   0.249  0.00  0.00    -0.153 OA
ATOM      3  O   UNL     1      -2.708   3.732  -1.103  0.00  0.00    -0.153 OA
ENDROOT
BRANCH   1   4
ATOM      4  C   UNL     1      -4.025   3.993   1.077  0.00  0.00    +0.109 A 
ATOM      5  C   UNL     1      -5.008   3.205   0.515  0.00  0.00    +0.044 A 
ATOM      6  C   UNL     1      -6.150   2.887   1.253  0.00  0.00    +0.065 A 
ATOM      7  C   UNL     1      -6.288   3.369   2.557  0.00  0.00    +0.018 A 
ATOM      8  C   UNL     1      -5.297   4.156   3.106  0.00  0.00    -0.045 A 
ATOM      9  C   UNL     1      -4.166   4.463   2.370  0.00  0.00    -0.021 A 
ATOM     10  C   UNL     1      -3.085   5.319   2.979  0.00  0.00    +0.046 C 
ATOM     11  C   UNL     1      -5.444   4.677   4.512  0.00  0.00    +0.044 C 
BRANCH   6  12
ATOM     12  C   UNL     1      -7.207   2.044   0.658  0.00  0.00    +0.387 C 
ATOM     13  O   UNL     1      -7.084   1.625  -0.475  0.00  0.00    -0.241 OA
ATOM     14  O   UNL     1      -8.307   1.738   1.373  0.00  0.00    -0.241 OA
ENDBRANCH   6  12
ENDBRANCH   1   4
BRANCH   1  15
ATOM     15  N   UNL     1      -1.293   3.707   0.923  0.00  0.00    -0.183 NA
ATOM     16  H   UNL     1      -0.618   4.269   1.335  0.00  0.00    +0.149 HD
BRANCH  15  17
ATOM     17  C   UNL     1      -1.170   2.248   0.987  0.00  0.00    +0.104 C 
ATOM     18  C   UNL     1      -0.254   1.764  -0.139  0.00  0.00    +0.031 C 
BRANCH  17  25
ATOM     19  C   UNL     1      -1.675  -0.386   2.060  0.00  0.00    +0.044 C 
ATOM     20  C   UNL     1      -0.825   0.591   2.830  0.00  0.00    -0.046 A 
ATOM     21  C   UNL     1      -0.288   0.227   4.051  0.00  0.00    +0.003 A 
ATOM     22  C   UNL     1       0.492   1.123   4.758  0.00  0.00    +0.000 A 
ATOM     23  C   UNL     1       0.734   2.384   4.244  0.00  0.00    +0.000 A 
ATOM     24  C   UNL     1       0.200   2.746   3.022  0.00  0.00    +0.005 A 
ATOM     25  C   UNL     1      -0.584   1.852   2.317  0.00  0.00    -0.026 A 
ENDBRANCH  17  25
ENDBRANCH  15  17
ENDBRANCH   1  15
TORSDOF 5
