REMARK  Name = ZINC60359661
REMARK  9 active torsions:
REMARK  status: ('A' for Active; 'I' for Inactive)
REMARK    1  A    between atoms: C_1  and  N_2
REMARK    2  A    between atoms: N_2  and  C_3
REMARK    3  A    between atoms: C_4  and  C_6
REMARK    4  A    between atoms: N_11  and  C_12
REMARK    5  A    between atoms: C_12  and  C_13
REMARK    6  A    between atoms: C_13  and  C_14
REMARK    7  A    between atoms: C_14  and  N_15
REMARK    8  A    between atoms: C_16  and  C_18
REMARK    9  A    between atoms: C_24  and  C_26
REMARK                            x       y       z     vdW  Elec       q    Type
REMARK                         _______ _______ _______ _____ _____    ______ ____
ROOT
ATOM      1  N   UNL     1       2.765  -5.221  -5.550  0.00  0.00    -0.314 N 
ATOM      2  C   UNL     1       3.753  -6.069  -5.901  0.00  0.00    +0.234 C 
ATOM      3  O   UNL     1       4.550  -6.449  -5.069  0.00  0.00    -0.274 OA
ATOM      4  H   UNL     1       2.128  -4.917  -6.215  0.00  0.00    +0.149 HD
ENDROOT
BRANCH   2   5
ATOM      5  C   UNL     1       3.867  -6.545  -7.326  0.00  0.00    +0.162 C 
ATOM      6  C   UNL     1       2.598  -7.330  -7.721  0.00  0.00    +0.033 C 
ATOM      7  C   UNL     1       3.160  -8.482  -8.595  0.00  0.00    +0.021 C 
ATOM      8  C   UNL     1       4.505  -8.781  -7.887  0.00  0.00    +0.109 C 
ATOM      9  N   UNL     1       5.009  -7.460  -7.458  0.00  0.00    -0.286 N 
ATOM     10  C   UNL     1       6.299  -7.146  -7.226  0.00  0.00    +0.247 C 
ATOM     11  O   UNL     1       6.608  -5.999  -6.967  0.00  0.00    -0.270 OA
BRANCH  10  12
ATOM     12  C   UNL     1       7.338  -8.195  -7.285  0.00  0.00    +0.037 A 
ATOM     13  C   UNL     1       8.677  -7.846  -7.471  0.00  0.00    +0.014 A 
ATOM     14  C   UNL     1       9.642  -8.830  -7.526  0.00  0.00    +0.016 A 
ATOM     15  C   UNL     1       9.285 -10.162  -7.396  0.00  0.00    +0.018 A 
ATOM     16  C   UNL     1       7.959 -10.514  -7.211  0.00  0.00    +0.016 A 
ATOM     17  C   UNL     1       6.985  -9.539  -7.149  0.00  0.00    +0.014 A 
ATOM     18 BR   UNL     1      10.614 -11.505  -7.473  0.00  0.00    -0.050 Br
ENDBRANCH  10  12
ENDBRANCH   2   5
BRANCH   1  19
ATOM     19  C   UNL     1       2.655  -4.759  -4.165  0.00  0.00    +0.102 C 
BRANCH  19  20
ATOM     20  C   UNL     1       1.459  -3.813  -4.037  0.00  0.00    +0.000 C 
BRANCH  20  21
ATOM     21  C   UNL     1       1.343  -3.330  -2.589  0.00  0.00    -0.076 C 
BRANCH  21  26
ATOM     22  C   UNL     1       0.150  -1.861  -1.104  0.00  0.00    +0.019 C 
ATOM     23  C   UNL     1      -1.206  -2.262  -0.485  0.00  0.00    -0.008 C 
ATOM     24  C   UNL     1      -2.089  -2.542  -1.729  0.00  0.00    -0.020 C 
ATOM     25  C   UNL     1      -1.063  -3.168  -2.706  0.00  0.00    -0.078 C 
ATOM     26  N   UNL     1       0.195  -2.422  -2.466  0.00  0.00    +0.387 N 
ATOM     27  H   UNL     1       0.281  -1.675  -3.139  0.00  0.00    -0.081 HD
BRANCH  22  31
ATOM     28  C   UNL     1       0.660   1.796  -0.100  0.00  0.00    +0.131 C 
ATOM     29  N   UNL     1       0.656   0.331  -0.076  0.00  0.00    -0.309 N 
ATOM     30  C   UNL     1       1.079  -0.383   1.131  0.00  0.00    +0.131 C 
ATOM     31  C   UNL     1       0.262  -0.359  -1.164  0.00  0.00    +0.202 C 
ATOM     32  O   UNL     1      -0.003   0.228  -2.192  0.00  0.00    -0.277 OA
ENDBRANCH  22  31
ENDBRANCH  21  26
ENDBRANCH  20  21
ENDBRANCH  19  20
ENDBRANCH   1  19
TORSDOF 7
