REMARK  Name = ZINC41586247
REMARK  8 active torsions:
REMARK  status: ('A' for Active; 'I' for Inactive)
REMARK    1  A    between atoms: C_1  and  C_2
REMARK    2  A    between atoms: C_2  and  O_3
REMARK    3  A    between atoms: O_3  and  C_4
REMARK    4  A    between atoms: C_4  and  C_6
REMARK    5  A    between atoms: N_9  and  C_12
REMARK    6  A    between atoms: C_12  and  C_13
REMARK    7  A    between atoms: C_14  and  O_31
REMARK    8  A    between atoms: C_21  and  C_22
REMARK                            x       y       z     vdW  Elec       q    Type
REMARK                         _______ _______ _______ _____ _____    ______ ____
ROOT
ATOM      1  C   UNL     1       1.669  -6.103  -6.027  0.00  0.00    +0.020 A 
ATOM      2  C   UNL     1       2.751  -6.893  -5.671  0.00  0.00    +0.122 A 
ATOM      3  C   UNL     1       2.755  -8.256  -5.955  0.00  0.00    +0.046 A 
ATOM      4  C   UNL     1       1.689  -8.829  -6.589  0.00  0.00    +0.019 A 
ATOM      5  C   UNL     1       0.594  -8.046  -6.953  0.00  0.00    +0.068 A 
ATOM      6  C   UNL     1       0.575  -6.671  -6.667  0.00  0.00    +0.144 A 
ATOM      7  O   UNL     1      -0.583  -6.130  -7.104  0.00  0.00    -0.451 OA
ATOM      8  C   UNL     1      -1.386  -7.056  -7.680  0.00  0.00    +0.176 C 
ATOM      9  C   UNL     1      -2.611  -6.832  -8.217  0.00  0.00    +0.058 C 
ATOM     10  C   UNL     1      -0.681  -8.347  -7.630  0.00  0.00    +0.231 C 
ATOM     11  O   UNL     1      -1.069  -9.425  -8.044  0.00  0.00    -0.283 OA
ENDROOT
BRANCH   9  12
ATOM     12  C   UNL     1      -3.440  -7.964  -8.653  0.00  0.00    -0.021 A 
ATOM     13  C   UNL     1      -3.489  -9.136  -7.889  0.00  0.00    +0.009 A 
ATOM     14  C   UNL     1      -4.269 -10.193  -8.305  0.00  0.00    +0.016 A 
ATOM     15  C   UNL     1      -5.002 -10.099  -9.477  0.00  0.00    +0.018 A 
ATOM     16  C   UNL     1      -4.959  -8.943 -10.239  0.00  0.00    +0.016 A 
ATOM     17  C   UNL     1      -4.189  -7.874  -9.832  0.00  0.00    +0.009 A 
ATOM     18 BR   UNL     1      -6.069 -11.556 -10.039  0.00  0.00    -0.050 Br
ENDBRANCH   9  12
BRANCH   2  19
ATOM     19  O   UNL     1       3.815  -6.333  -5.042  0.00  0.00    -0.506 OA
ATOM     20  H   UNL     1       3.747  -6.335  -4.077  0.00  0.00    +0.292 HD
ENDBRANCH   2  19
BRANCH   1  21
ATOM     21  C   UNL     1       1.678  -4.629  -5.714  0.00  0.00    -0.036 C 
BRANCH  21  25
ATOM     22  C   UNL     1       1.146  -3.387  -1.673  0.00  0.00    +0.094 C 
ATOM     23  C   UNL     1       0.315  -2.728  -2.778  0.00  0.00    -0.004 C 
ATOM     24  C   UNL     1       0.995  -2.966  -4.129  0.00  0.00    -0.078 C 
ATOM     25  N   UNL     1       1.096  -4.408  -4.383  0.00  0.00    +0.383 N 
ATOM     26  C   UNL     1       1.950  -5.034  -3.367  0.00  0.00    -0.078 C 
ATOM     27  C   UNL     1       1.307  -4.877  -1.987  0.00  0.00    -0.004 C 
ATOM     28  H   UNL     1       0.176  -4.820  -4.348  0.00  0.00    -0.081 HD
BRANCH  22  29
ATOM     29  C   UNL     1       0.442  -3.224  -0.350  0.00  0.00    +0.310 C 
ATOM     30  O   UNL     1       0.104  -4.199   0.278  0.00  0.00    -0.251 OA
BRANCH  29  31
ATOM     31  O   UNL     1       0.191  -1.996   0.131  0.00  0.00    -0.465 OA
BRANCH  31  33
ATOM     32  C   UNL     1      -0.676  -0.449   1.772  0.00  0.00    +0.048 C 
ATOM     33  C   UNL     1      -0.479  -1.917   1.390  0.00  0.00    +0.229 C 
ENDBRANCH  31  33
ENDBRANCH  29  31
ENDBRANCH  22  29
ENDBRANCH  21  25
ENDBRANCH   1  21
TORSDOF 7
