REMARK  Name = ZINC55572842
REMARK  5 active torsions:
REMARK  status: ('A' for Active; 'I' for Inactive)
REMARK    1  A    between atoms: C_1  and  N_2
REMARK    2  A    between atoms: C_4  and  S_7
REMARK    3  A    between atoms: S_7  and  N_10
REMARK    4  A    between atoms: N_10  and  C_11
REMARK    5  A    between atoms: C_15  and  C_17
REMARK                            x       y       z     vdW  Elec       q    Type
REMARK                         _______ _______ _______ _____ _____    ______ ____
ROOT
ATOM      1  C   UNL     1       1.947  -4.978  -2.809  0.00  0.00    +0.075 A 
ATOM      2  C   UNL     1       0.936  -5.753  -3.364  0.00  0.00    +0.027 A 
ATOM      3  C   UNL     1       1.256  -6.837  -4.156  0.00  0.00    +0.002 A 
ATOM      4  C   UNL     1       2.581  -7.152  -4.398  0.00  0.00    +0.005 A 
ATOM      5  C   UNL     1       3.589  -6.383  -3.847  0.00  0.00    -0.023 A 
ATOM      6  C   UNL     1       3.276  -5.293  -3.058  0.00  0.00    +0.032 A 
ENDROOT
BRANCH   5   7
ATOM      7  C   UNL     1       5.031  -6.731  -4.112  0.00  0.00    +0.133 C 
ATOM      8  S   UNL     1       5.351  -6.681  -5.899  0.00  0.00    -0.142 S 
ATOM      9  C   UNL     1       7.071  -7.239  -6.044  0.00  0.00    +0.071 C 
ATOM     10  C   UNL     1       7.202  -8.667  -5.526  0.00  0.00    +0.021 C 
ATOM     11  C   UNL     1       7.091  -8.705  -4.006  0.00  0.00    +0.071 C 
ATOM     12  S   UNL     1       5.375  -8.407  -3.500  0.00  0.00    -0.142 S 
ENDBRANCH   5   7
BRANCH   1  13
ATOM     13  N   UNL     1       1.627  -3.880  -2.007  0.00  0.00    -0.098 NA
BRANCH  13  14
ATOM     14  S   UNL     1       0.041  -3.505  -1.711  0.00  0.00    +0.095 S 
ATOM     15  O   UNL     1      -0.492  -4.572  -0.939  0.00  0.00    -0.148 OA
ATOM     16  O   UNL     1      -0.521  -3.109  -2.955  0.00  0.00    -0.148 OA
BRANCH  14  20
ATOM     17  C   UNL     1      -0.018   1.461   0.010  0.00  0.00    +0.172 C 
ATOM     18  N   UNL     1       0.002  -0.004   0.002  0.00  0.00    -0.273 N 
ATOM     19  C   UNL     1       0.008  -0.792  -1.094  0.00  0.00    +0.136 A 
ATOM     20  C   UNL     1       0.027  -2.079  -0.676  0.00  0.00    +0.148 A 
ATOM     21  C   UNL     1       0.034  -2.078   0.723  0.00  0.00    +0.163 A 
ATOM     22  N   UNL     1       0.025  -0.834   1.130  0.00  0.00    -0.178 NA
ENDBRANCH  14  20
ENDBRANCH  13  14
ENDBRANCH   1  13
TORSDOF 4
