REMARK  Name = ZINC59019259
REMARK  10 active torsions:
REMARK  status: ('A' for Active; 'I' for Inactive)
REMARK    1  A    between atoms: C_4  and  C_7
REMARK    2  A    between atoms: C_7  and  O_8
REMARK    3  A    between atoms: O_8  and  C_9
REMARK    4  A    between atoms: C_14  and  C_15
REMARK    5  A    between atoms: N_16  and  N_17
REMARK    6  A    between atoms: C_20  and  S_23
REMARK    7  A    between atoms: S_23  and  C_24
REMARK    8  A    between atoms: C_24  and  C_25
REMARK    9  A    between atoms: N_27  and  C_28
REMARK   10  A    between atoms: C_31  and  N_34
REMARK                            x       y       z     vdW  Elec       q    Type
REMARK                         _______ _______ _______ _____ _____    ______ ____
ROOT
ATOM      1  N   UNL     1       3.170  -0.429   4.917  0.00  0.00    -0.205 N 
ATOM      2  C   UNL     1       1.973   0.244   4.759  0.00  0.00    +0.232 A 
ATOM      3  N   UNL     1       1.409   0.562   3.613  0.00  0.00    -0.186 NA
ATOM      4  C   UNL     1       0.260   1.207   3.840  0.00  0.00    +0.211 A 
ATOM      5  N   UNL     1       0.077   1.308   5.136  0.00  0.00    -0.144 NA
ATOM      6  N   UNL     1       1.173   0.685   5.753  0.00  0.00    -0.245 N 
ATOM      7  H   UNL     1       3.504  -0.623   5.807  0.00  0.00    +0.177 HD
ATOM      8  H   UNL     1       1.327   0.592   6.707  0.00  0.00    +0.192 HD
ENDROOT
BRANCH   1  10
ATOM      9  C   UNL     1       5.026  -1.463   3.939  0.00  0.00    +0.142 C 
ATOM     10  N   UNL     1       3.901  -0.831   3.791  0.00  0.00    -0.187 NA
BRANCH   9  16
ATOM     11  C   UNL     1       5.316  -1.608   1.468  0.00  0.00    +0.130 A 
ATOM     12  C   UNL     1       6.050  -2.004   0.362  0.00  0.00    +0.046 A 
ATOM     13  C   UNL     1       7.246  -2.677   0.528  0.00  0.00    +0.004 A 
ATOM     14  C   UNL     1       7.720  -2.959   1.798  0.00  0.00    +0.001 A 
ATOM     15  C   UNL     1       7.002  -2.571   2.910  0.00  0.00    +0.013 A 
ATOM     16  C   UNL     1       5.795  -1.886   2.755  0.00  0.00    +0.036 A 
BRANCH  11  17
ATOM     17  O   UNL     1       4.141  -0.947   1.305  0.00  0.00    -0.487 OA
BRANCH  17  18
ATOM     18  C   UNL     1       3.716  -0.699  -0.036  0.00  0.00    +0.264 C 
BRANCH  18  22
ATOM     19  C   UNL     1      -0.009   1.391   0.010  0.00  0.00    +0.000 A 
ATOM     20  C   UNL     1       1.180   2.097   0.012  0.00  0.00    +0.000 A 
ATOM     21  C   UNL     1       2.385   1.421  -0.003  0.00  0.00    +0.007 A 
ATOM     22  C   UNL     1       2.402   0.039  -0.019  0.00  0.00    -0.010 A 
ATOM     23  C   UNL     1       1.214  -0.667  -0.019  0.00  0.00    +0.007 A 
ATOM     24  C   UNL     1       0.008   0.009  -0.006  0.00  0.00    +0.000 A 
ENDBRANCH  18  22
ENDBRANCH  17  18
ENDBRANCH  11  17
ENDBRANCH   9  16
ENDBRANCH   1  10
BRANCH   4  25
ATOM     25  S   UNL     1      -0.831   1.823   2.602  0.00  0.00    -0.075 S 
BRANCH  25  26
ATOM     26  C   UNL     1      -2.183   2.581   3.545  0.00  0.00    +0.173 C 
BRANCH  26  27
ATOM     27  C   UNL     1      -3.200   3.155   2.592  0.00  0.00    +0.227 C 
ATOM     28  O   UNL     1      -3.030   3.062   1.395  0.00  0.00    -0.275 OA
ATOM     29  N   UNL     1      -4.298   3.772   3.071  0.00  0.00    -0.285 N 
ATOM     30  H   UNL     1      -4.469   3.787   4.026  0.00  0.00    +0.155 HD
BRANCH  29  31
ATOM     31  C   UNL     1      -5.194   4.389   2.190  0.00  0.00    +0.034 A 
ATOM     32  C   UNL     1      -5.843   5.558   2.564  0.00  0.00    +0.025 A 
ATOM     33  C   UNL     1      -6.726   6.165   1.693  0.00  0.00    +0.034 A 
ATOM     34  C   UNL     1      -6.964   5.609   0.449  0.00  0.00    +0.126 A 
ATOM     35  C   UNL     1      -6.320   4.444   0.074  0.00  0.00    +0.034 A 
ATOM     36  C   UNL     1      -5.431   3.836   0.939  0.00  0.00    +0.025 A 
BRANCH  34  37
ATOM     37  N   UNL     1      -7.912   6.262  -0.482  0.00  0.00    +0.056 N 
ATOM     38  O   UNL     1      -8.476   7.280  -0.156  0.00  0.00    -0.126 OA
ATOM     39  O   UNL     1      -8.121   5.777  -1.570  0.00  0.00    -0.126 OA
ENDBRANCH  34  37
ENDBRANCH  29  31
ENDBRANCH  26  27
ENDBRANCH  25  26
ENDBRANCH   4  25
TORSDOF 10
