REMARK  Name = ZINC42140212
REMARK  4 active torsions:
REMARK  status: ('A' for Active; 'I' for Inactive)
REMARK    1  A    between atoms: C_4  and  S_6
REMARK    2  A    between atoms: S_6  and  C_7
REMARK    3  A    between atoms: C_8  and  C_14
REMARK    4  A    between atoms: C_10  and  N_13
REMARK                            x       y       z     vdW  Elec       q    Type
REMARK                         _______ _______ _______ _____ _____    ______ ____
ROOT
ATOM      1  C   UNL     1      -0.245  -3.076  -0.012  0.00  0.00    +0.116 A 
ATOM      2  C   UNL     1      -0.431  -4.469  -0.012  0.00  0.00    +0.070 A 
ATOM      3  C   UNL     1      -1.736  -4.975  -0.002  0.00  0.00    +0.040 A 
ATOM      4  C   UNL     1      -2.793  -4.074   0.008  0.00  0.00    +0.044 A 
ATOM      5  C   UNL     1      -2.525  -2.710   0.007  0.00  0.00    +0.134 A 
ATOM      6  N   UNL     1      -1.286  -2.259   0.002  0.00  0.00    -0.246 NA
ENDROOT
BRANCH   2   7
ATOM      7  C   UNL     1       0.727  -5.381  -0.023  0.00  0.00    +0.244 C 
ATOM      8  O   UNL     1       1.856  -4.929  -0.032  0.00  0.00    -0.270 OA
ATOM      9  N   UNL     1       0.535  -6.715  -0.022  0.00  0.00    -0.325 N 
ATOM     10  H   UNL     1      -0.366  -7.075  -0.015  0.00  0.00    +0.145 HD
ATOM     11  H   UNL     1       1.297  -7.314  -0.030  0.00  0.00    +0.145 HD
ENDBRANCH   2   7
BRANCH   4  12
ATOM     12  N   UNL     1      -4.115  -4.534   0.017  0.00  0.00    -0.357 N 
ATOM     13  H   UNL     1      -4.297  -5.487   0.018  0.00  0.00    +0.142 HD
ATOM     14  H   UNL     1      -4.849  -3.901   0.024  0.00  0.00    +0.142 HD
ENDBRANCH   4  12
BRANCH   1  15
ATOM     15  S   UNL     1       1.387  -2.413  -0.024  0.00  0.00    -0.042 S 
BRANCH  15  19
ATOM     16  C   UNL     1      -0.016   1.316   0.009  0.00  0.00    +0.120 A 
ATOM     17  C   UNL     1       1.183   1.949   0.001  0.00  0.00    +0.067 A 
ATOM     18  S   UNL     1       2.296   0.553  -0.017  0.00  0.00    -0.069 S 
ATOM     19  C   UNL     1       1.139  -0.668  -0.012  0.00  0.00    +0.141 A 
ATOM     20  N   UNL     1       0.002  -0.004   0.002  0.00  0.00    -0.241 NA
ENDBRANCH  15  19
ENDBRANCH   1  15
TORSDOF 4
