REMARK  Name = ZINC67062263
REMARK  12 active torsions:
REMARK  status: ('A' for Active; 'I' for Inactive)
REMARK    1  A    between atoms: C_1  and  C_2
REMARK    2  A    between atoms: C_2  and  C_3
REMARK    3  A    between atoms: C_3  and  C_5
REMARK    4  A    between atoms: C_3  and  N_15
REMARK    5  A    between atoms: N_18  and  C_19
REMARK    6  A    between atoms: C_19  and  C_20
REMARK    7  A    between atoms: C_25  and  C_26
REMARK    8  A    between atoms: C_26  and  N_27
REMARK    9  A    between atoms: N_27  and  C_28
REMARK   10  A    between atoms: N_27  and  C_29
REMARK   11  A    between atoms: C_29  and  C_30
REMARK   12  A    between atoms: C_29  and  C_31
REMARK                            x       y       z     vdW  Elec       q    Type
REMARK                         _______ _______ _______ _____ _____    ______ ____
ROOT
ATOM      1  N   UNL     1       1.272   0.753   1.378  0.00  0.00    -0.290 N 
ATOM      2  C   UNL     1       1.862   1.843   1.906  0.00  0.00    +0.300 C 
ATOM      3  O   UNL     1       1.192   2.680   2.480  0.00  0.00    -0.253 OA
ATOM      4  N   UNL     1       3.196   2.007   1.798  0.00  0.00    -0.295 N 
ATOM      5  H   UNL     1       1.794   0.124   0.855  0.00  0.00    +0.151 HD
ATOM      6  H   UNL     1       3.722   1.375   1.284  0.00  0.00    +0.151 HD
ENDROOT
BRANCH   1   7
ATOM      7  C   UNL     1      -0.157   0.516   1.593  0.00  0.00    +0.140 C 
BRANCH   7   8
ATOM      8  C   UNL     1      -0.403  -0.961   1.756  0.00  0.00    +0.129 A 
ATOM      9  N   UNL     1       0.568  -1.912   1.811  0.00  0.00    -0.340 N 
ATOM     10  H   UNL     1       1.525  -1.760   1.754  0.00  0.00    +0.167 HD
ATOM     11  C   UNL     1      -0.059  -3.132   1.965  0.00  0.00    +0.066 A 
ATOM     12  C   UNL     1       0.388  -4.441   2.080  0.00  0.00    +0.028 A 
ATOM     13  C   UNL     1      -0.524  -5.464   2.226  0.00  0.00    +0.002 A 
ATOM     14  C   UNL     1      -1.885  -5.193   2.258  0.00  0.00    +0.002 A 
ATOM     15  C   UNL     1      -2.343  -3.911   2.146  0.00  0.00    +0.030 A 
ATOM     16  C   UNL     1      -1.437  -2.858   1.998  0.00  0.00    +0.089 A 
ATOM     17  N   UNL     1      -1.576  -1.514   1.871  0.00  0.00    -0.231 NA
ENDBRANCH   7   8
BRANCH   7  19
ATOM     18  C   UNL     1      -0.826   2.559   0.319  0.00  0.00    +0.006 C 
ATOM     19  C   UNL     1      -0.947   1.035   0.390  0.00  0.00    +0.027 C 
ENDBRANCH   7  19
ENDBRANCH   1   7
BRANCH   4  20
ATOM     20  C   UNL     1       3.850   3.140   2.457  0.00  0.00    +0.141 C 
BRANCH  20  21
ATOM     21  C   UNL     1       5.330   3.098   2.175  0.00  0.00    -0.029 A 
ATOM     22  C   UNL     1       6.199   2.574   3.114  0.00  0.00    +0.005 A 
ATOM     23  C   UNL     1       7.556   2.536   2.855  0.00  0.00    +0.000 A 
ATOM     24  C   UNL     1       8.045   3.022   1.657  0.00  0.00    +0.000 A 
ATOM     25  C   UNL     1       7.177   3.546   0.718  0.00  0.00    +0.002 A 
ATOM     26  C   UNL     1       5.819   3.580   0.975  0.00  0.00    -0.059 A 
BRANCH  26  27
ATOM     27  C   UNL     1       4.871   4.146  -0.051  0.00  0.00    -0.043 C 
BRANCH  27  28
ATOM     28  N   UNL     1       4.281   3.049  -0.831  0.00  0.00    +0.382 N 
ATOM     29  C   UNL     1       5.340   2.347  -1.567  0.00  0.00    -0.095 C 
ATOM     30  H   UNL     1       3.820   2.404  -0.207  0.00  0.00    -0.081 HD
BRANCH  28  31
ATOM     31  C   UNL     1       3.303   3.595  -1.781  0.00  0.00    -0.075 C 
ATOM     32  C   UNL     1       2.607   2.446  -2.512  0.00  0.00    -0.014 C 
ATOM     33  C   UNL     1       2.263   4.423  -1.024  0.00  0.00    -0.014 C 
ENDBRANCH  28  31
ENDBRANCH  27  28
ENDBRANCH  26  27
ENDBRANCH  20  21
ENDBRANCH   4  20
TORSDOF 8
