REMARK  Name = ZINC04623657
REMARK  5 active torsions:
REMARK  status: ('A' for Active; 'I' for Inactive)
REMARK    1  A    between atoms: C_1  and  O_2
REMARK    2  A    between atoms: O_2  and  C_3
REMARK    3  A    between atoms: C_5  and  C_27
REMARK    4  A    between atoms: C_10  and  C_19
REMARK    5  A    between atoms: C_22  and  C_25
REMARK                            x       y       z     vdW  Elec       q    Type
REMARK                         _______ _______ _______ _____ _____    ______ ____
ROOT
ATOM      1  C   UNL     1      -4.114   7.497  -0.892  0.00  0.00    +0.142 A 
ATOM      2  C   UNL     1      -3.545   8.623  -0.344  0.00  0.00    +0.062 A 
ATOM      3  C   UNL     1      -3.167   8.632   1.004  0.00  0.00    +0.067 A 
ATOM      4  C   UNL     1      -3.366   7.486   1.778  0.00  0.00    +0.021 A 
ATOM      5  C   UNL     1      -3.926   6.359   1.224  0.00  0.00    -0.015 A 
ATOM      6  C   UNL     1      -4.325   6.345  -0.117  0.00  0.00    +0.074 A 
ATOM      7  N   UNL     1      -4.923   5.257  -0.740  0.00  0.00    -0.334 N 
ATOM      8  C   UNL     1      -5.036   4.019   0.047  0.00  0.00    +0.105 C 
ATOM      9  C   UNL     1      -5.392   4.422   1.463  0.00  0.00    +0.029 C 
ATOM     10  C   UNL     1      -4.106   5.118   2.009  0.00  0.00    +0.049 C 
ATOM     11  C   UNL     1      -4.321   5.119   3.476  0.00  0.00    -0.023 C 
ATOM     12  C   UNL     1      -5.088   4.081   3.791  0.00  0.00    -0.030 C 
ATOM     13  C   UNL     1      -5.479   3.318   2.524  0.00  0.00    +0.033 C 
ATOM     14  H   UNL     1      -5.814   5.514  -1.139  0.00  0.00    +0.147 HD
ENDROOT
BRANCH   8  15
ATOM     15  C   UNL     1      -3.720   3.284   0.037  0.00  0.00    -0.027 A 
ATOM     16  C   UNL     1      -2.545   3.978  -0.188  0.00  0.00    +0.006 A 
ATOM     17  C   UNL     1      -1.338   3.310  -0.198  0.00  0.00    +0.015 A 
ATOM     18  C   UNL     1      -1.304   1.932   0.021  0.00  0.00    +0.063 A 
ATOM     19  C   UNL     1      -2.494   1.237   0.242  0.00  0.00    +0.015 A 
ATOM     20  C   UNL     1      -3.694   1.917   0.255  0.00  0.00    +0.006 A 
BRANCH  18  21
ATOM     21  C   UNL     1      -0.014   1.211   0.012  0.00  0.00    +0.387 C 
ATOM     22  O   UNL     1       1.019   1.817  -0.186  0.00  0.00    -0.241 OA
ATOM     23  O   UNL     1       0.016  -0.118   0.229  0.00  0.00    -0.241 OA
ENDBRANCH  18  21
ENDBRANCH   8  15
BRANCH   3  24
ATOM     24  C   UNL     1      -2.565   9.838   1.600  0.00  0.00    +0.387 C 
ATOM     25  O   UNL     1      -2.240   9.838   2.771  0.00  0.00    -0.241 OA
ATOM     26  O   UNL     1      -2.377  10.939   0.847  0.00  0.00    -0.241 OA
ENDBRANCH   3  24
BRANCH   1  28
ATOM     27  C   UNL     1      -4.239   8.700  -2.939  0.00  0.00    +0.277 C 
ATOM     28  O   UNL     1      -4.478   7.500  -2.202  0.00  0.00    -0.493 OA
ENDBRANCH   1  28
TORSDOF 4
