REMARK  Name = ZINC20531920
REMARK  11 active torsions:
REMARK  status: ('A' for Active; 'I' for Inactive)
REMARK    1  A    between atoms: C_1  and  C_2
REMARK    2  A    between atoms: C_2  and  O_3
REMARK    3  A    between atoms: O_3  and  C_4
REMARK    4  A    between atoms: C_12  and  C_18
REMARK    5  A    between atoms: C_13  and  C_17
REMARK    6  A    between atoms: N_20  and  C_21
REMARK    7  A    between atoms: C_21  and  C_22
REMARK    8  A    between atoms: C_22  and  C_23
REMARK    9  A    between atoms: C_23  and  N_24
REMARK   10  A    between atoms: C_26  and  C_33
REMARK   11  A    between atoms: C_29  and  C_32
REMARK                            x       y       z     vdW  Elec       q    Type
REMARK                         _______ _______ _______ _____ _____    ______ ____
ROOT
ATOM      1  C   UNL     1      -0.435   7.131   0.019  0.00  0.00    +0.403 C 
ATOM      2  O   UNL     1      -0.850   7.582  -1.030  0.00  0.00    -0.226 OA
ATOM      3  N   UNL     1       0.470   6.132   0.011  0.00  0.00    -0.267 N 
ATOM      4  C   UNL     1       0.963   5.578  -1.258  0.00  0.00    +0.115 C 
ATOM      5  C   UNL     1       0.755   4.060  -1.247  0.00  0.00    +0.072 C 
ATOM      6  C   UNL     1       1.409   3.468   0.001  0.00  0.00    +0.147 C 
ATOM      7  C   UNL     1       0.773   4.058   1.260  0.00  0.00    +0.072 C 
ATOM      8  C   UNL     1       0.981   5.575   1.271  0.00  0.00    +0.115 C 
ATOM      9  C   UNL     1       1.254   1.967   0.001  0.00  0.00    +0.067 C 
ATOM     10  C   UNL     1       2.495   1.451  -0.014  0.00  0.00    +0.045 C 
ATOM     11  C   UNL     1       3.475   2.549  -0.018  0.00  0.00    +0.336 C 
ATOM     12  O   UNL     1       4.681   2.407  -0.030  0.00  0.00    -0.245 OA
ATOM     13  O   UNL     1       2.837   3.734  -0.005  0.00  0.00    -0.450 OA
ATOM     14  C   UNL     1       2.829  -0.018  -0.026  0.00  0.00    +0.052 C 
ENDROOT
BRANCH   9  15
ATOM     15  C   UNL     1      -0.014   1.211   0.009  0.00  0.00    +0.244 C 
ATOM     16  O   UNL     1       0.002  -0.004   0.002  0.00  0.00    -0.270 OA
ATOM     17  N   UNL     1      -1.191   1.869   0.018  0.00  0.00    -0.312 N 
ATOM     18  H   UNL     1      -1.206   2.969   0.024  0.00  0.00    +0.149 HD
BRANCH  17  19
ATOM     19  C   UNL     1      -2.449   1.119   0.020  0.00  0.00    +0.102 C 
BRANCH  19  20
ATOM     20  C   UNL     1      -3.626   2.098   0.031  0.00  0.00    +0.000 C 
BRANCH  20  21
ATOM     21  C   UNL     1      -4.940   1.315   0.033  0.00  0.00    -0.077 C 
BRANCH  21  22
ATOM     22  N   UNL     1      -6.069   2.254   0.043  0.00  0.00    +0.380 N 
ATOM     23  C   UNL     1      -6.109   3.016   1.298  0.00  0.00    -0.076 C 
ATOM     24  C   UNL     1      -7.204   4.082   1.215  0.00  0.00    -0.031 C 
ATOM     25  C   UNL     1      -8.553   3.402   0.967  0.00  0.00    +0.003 C 
ATOM     26  C   UNL     1      -8.470   2.576  -0.320  0.00  0.00    -0.031 C 
ATOM     27  C   UNL     1      -7.338   1.554  -0.193  0.00  0.00    -0.076 C 
ATOM     28  C   UNL     1      -8.191   3.503  -1.505  0.00  0.00    +0.005 C 
ATOM     29  C   UNL     1      -7.259   4.861   2.531  0.00  0.00    +0.005 C 
ATOM     30  H   UNL     1      -5.924   2.970  -0.779  0.00  0.00    -0.082 HD
ENDBRANCH  21  22
ENDBRANCH  20  21
ENDBRANCH  19  20
ENDBRANCH  17  19
ENDBRANCH   9  15
BRANCH   1  31
ATOM     31  O   UNL     1      -0.878   7.629   1.188  0.00  0.00    -0.451 OA
BRANCH  31  33
ATOM     32  C   UNL     1      -2.234   9.136   2.538  0.00  0.00    +0.048 C 
ATOM     33  C   UNL     1      -1.852   8.704   1.121  0.00  0.00    +0.230 C 
ENDBRANCH  31  33
ENDBRANCH   1  31
TORSDOF 7
