REMARK  Name = ZINC64058181
REMARK  9 active torsions:
REMARK  status: ('A' for Active; 'I' for Inactive)
REMARK    1  A    between atoms: C_1  and  C_2
REMARK    2  A    between atoms: C_2  and  C_3
REMARK    3  A    between atoms: C_3  and  C_4
REMARK    4  A    between atoms: C_6  and  C_10
REMARK    5  A    between atoms: C_10  and  C_12
REMARK    6  A    between atoms: C_10  and  S_13
REMARK    7  A    between atoms: S_13  and  C_14
REMARK    8  A    between atoms: C_18  and  C_20
REMARK    9  A    between atoms: C_21  and  C_22
REMARK                            x       y       z     vdW  Elec       q    Type
REMARK                         _______ _______ _______ _____ _____    ______ ____
ROOT
ATOM      1  C   UNL     1       2.320  -5.315   2.954  0.00  0.00    +0.185 A 
ATOM      2  N   UNL     1       3.136  -5.366   4.030  0.00  0.00    -0.253 N 
ATOM      3  H   UNL     1       4.036  -5.009   4.093  0.00  0.00    +0.191 HD
ATOM      4  N   UNL     1       2.427  -6.037   5.039  0.00  0.00    -0.152 NA
ATOM      5  C   UNL     1       1.250  -6.349   4.537  0.00  0.00    +0.175 A 
ATOM      6  N   UNL     1       1.188  -5.903   3.271  0.00  0.00    -0.202 NA
ENDROOT
BRANCH   5   7
ATOM      7  C   UNL     1       0.176  -7.065   5.249  0.00  0.00    +0.050 C 
ATOM      8  C   UNL     1       0.358  -7.456   6.520  0.00  0.00    +0.011 C 
BRANCH   8   9
ATOM      9  C   UNL     1      -0.716  -8.172   7.232  0.00  0.00    -0.025 A 
ATOM     10  C   UNL     1      -1.922  -8.450   6.584  0.00  0.00    +0.011 A 
ATOM     11  C   UNL     1      -2.923  -9.120   7.255  0.00  0.00    +0.039 A 
ATOM     12  C   UNL     1      -2.734  -9.518   8.569  0.00  0.00    +0.123 A 
ATOM     13  C   UNL     1      -1.540  -9.244   9.217  0.00  0.00    +0.039 A 
ATOM     14  C   UNL     1      -0.529  -8.580   8.555  0.00  0.00    +0.011 A 
ATOM     15  F   UNL     1      -3.719 -10.174   9.222  0.00  0.00    -0.205 F 
ENDBRANCH   8   9
ENDBRANCH   5   7
BRANCH   1  16
ATOM     16  S   UNL     1       2.703  -4.582   1.398  0.00  0.00    -0.079 S 
BRANCH  16  17
ATOM     17  C   UNL     1       1.204  -4.841   0.409  0.00  0.00    +0.103 C 
ATOM     18  C   UNL     1       0.997  -6.339   0.182  0.00  0.00    +0.024 C 
BRANCH  17  21
ATOM     19  C   UNL     1       0.739  -2.004  -1.265  0.00  0.00    +0.103 C 
ATOM     20  N   UNL     1       1.674  -2.717  -0.740  0.00  0.00    -0.346 N 
ATOM     21  C   UNL     1       1.355  -4.136  -0.940  0.00  0.00    +0.256 C 
ATOM     22  O   UNL     1       0.108  -4.146  -1.652  0.00  0.00    -0.247 OA
ATOM     23  N   UNL     1      -0.235  -2.780  -1.824  0.00  0.00    -0.252 N 
ATOM     24  H   UNL     1      -1.031  -2.450  -2.270  0.00  0.00    +0.195 HD
ATOM     25  H   UNL     1       2.460  -2.373  -0.288  0.00  0.00    +0.163 HD
BRANCH  19  26
ATOM     26  C   UNL     1       0.718  -0.497  -1.257  0.00  0.00    +0.073 C 
BRANCH  26  28
ATOM     27  C   UNL     1      -0.019   1.526   0.010  0.00  0.00    +0.004 C 
ATOM     28  C   UNL     1       0.002  -0.004   0.002  0.00  0.00    +0.004 C 
ENDBRANCH  26  28
ENDBRANCH  19  26
ENDBRANCH  17  21
ENDBRANCH  16  17
ENDBRANCH   1  16
TORSDOF 7
