REMARK  Name = ZINC14550678
REMARK  5 active torsions:
REMARK  status: ('A' for Active; 'I' for Inactive)
REMARK    1  A    between atoms: C_3  and  N_33
REMARK    2  A    between atoms: C_6  and  C_7
REMARK    3  A    between atoms: C_18  and  S_23
REMARK    4  A    between atoms: S_23  and  N_26
REMARK    5  A    between atoms: N_26  and  C_27
REMARK                            x       y       z     vdW  Elec       q    Type
REMARK                         _______ _______ _______ _____ _____    ______ ____
ROOT
ATOM      1  C   UNL     1      -3.851  -1.564  -5.317  0.00  0.00    +0.105 C 
ATOM      2  C   UNL     1      -4.868  -2.198  -4.364  0.00  0.00    +0.029 C 
ATOM      3  C   UNL     1      -6.279  -1.695  -4.790  0.00  0.00    +0.033 C 
ATOM      4  C   UNL     1      -6.380  -0.333  -4.131  0.00  0.00    -0.030 C 
ATOM      5  C   UNL     1      -5.546  -0.247  -3.124  0.00  0.00    -0.023 C 
ATOM      6  C   UNL     1      -4.771  -1.535  -2.976  0.00  0.00    +0.049 C 
ATOM      7  C   UNL     1      -3.360  -1.278  -2.549  0.00  0.00    -0.018 A 
ATOM      8  C   UNL     1      -3.117  -0.926  -1.228  0.00  0.00    +0.034 A 
ATOM      9  C   UNL     1      -1.831  -0.677  -0.794  0.00  0.00    +0.106 A 
ATOM     10  C   UNL     1      -0.766  -0.786  -1.669  0.00  0.00    +0.030 A 
ATOM     11  C   UNL     1      -0.995  -1.139  -2.984  0.00  0.00    +0.025 A 
ATOM     12  C   UNL     1      -2.290  -1.384  -3.424  0.00  0.00    +0.031 A 
ATOM     13  N   UNL     1      -2.506  -1.737  -4.760  0.00  0.00    -0.336 N 
ATOM     14  H   UNL     1      -1.783  -2.088  -5.304  0.00  0.00    +0.147 HD
ENDROOT
BRANCH   1  20
ATOM     15  C   UNL     1      -4.995   0.339  -6.473  0.00  0.00    +0.008 A 
ATOM     16  C   UNL     1      -5.272   1.686  -6.610  0.00  0.00    +0.033 A 
ATOM     17  C   UNL     1      -4.695   2.601  -5.749  0.00  0.00    +0.126 A 
ATOM     18  C   UNL     1      -3.845   2.168  -4.748  0.00  0.00    +0.033 A 
ATOM     19  C   UNL     1      -3.572   0.820  -4.608  0.00  0.00    +0.008 A 
ATOM     20  C   UNL     1      -4.149  -0.095  -5.469  0.00  0.00    -0.027 A 
BRANCH  17  21
ATOM     21  N   UNL     1      -4.987   4.044  -5.899  0.00  0.00    +0.056 N 
ATOM     22  O   UNL     1      -4.479   4.851  -5.140  0.00  0.00    -0.126 OA
ATOM     23  O   UNL     1      -5.736   4.426  -6.780  0.00  0.00    -0.126 OA
ENDBRANCH  17  21
ENDBRANCH   1  20
BRANCH   9  24
ATOM     24  S   UNL     1      -1.545  -0.227   0.885  0.00  0.00    +0.059 S 
ATOM     25  O   UNL     1      -0.201  -0.584   1.178  0.00  0.00    -0.153 OA
ATOM     26  O   UNL     1      -2.646  -0.724   1.633  0.00  0.00    -0.153 OA
BRANCH  24  27
ATOM     27  N   UNL     1      -1.624   1.425   0.969  0.00  0.00    -0.187 NA
ATOM     28  H   UNL     1      -0.834   1.938   1.202  0.00  0.00    +0.148 HD
BRANCH  27  29
ATOM     29  C   UNL     1      -2.886   2.114   0.683  0.00  0.00    +0.077 C 
ATOM     30  C   UNL     1      -2.908   2.551  -0.782  0.00  0.00    +0.020 C 
ATOM     31  C   UNL     1      -4.225   3.270  -1.080  0.00  0.00    +0.002 C 
ATOM     32  C   UNL     1      -4.350   4.500  -0.179  0.00  0.00    +0.000 C 
ATOM     33  C   UNL     1      -4.328   4.062   1.287  0.00  0.00    +0.002 C 
ATOM     34  C   UNL     1      -3.011   3.343   1.585  0.00  0.00    +0.020 C 
ENDBRANCH  27  29
ENDBRANCH  24  27
ENDBRANCH   9  24
TORSDOF 5
