REMARK  Name = ZINC67571579
REMARK  4 active torsions:
REMARK  status: ('A' for Active; 'I' for Inactive)
REMARK    1  A    between atoms: C_5  and  C_8
REMARK    2  A    between atoms: C_11  and  C_13
REMARK    3  A    between atoms: C_18  and  C_21
REMARK    4  A    between atoms: C_28  and  C_30
REMARK                            x       y       z     vdW  Elec       q    Type
REMARK                         _______ _______ _______ _____ _____    ______ ____
ROOT
ATOM      1  C   UNL     1       4.860   0.011  -2.170  0.00  0.00    +0.076 C 
ATOM      2  C   UNL     1       4.706   0.829  -3.453  0.00  0.00    +0.013 C 
ATOM      3  C   UNL     1       6.053   1.453  -3.826  0.00  0.00    +0.001 C 
ATOM      4  C   UNL     1       7.084   0.344  -4.048  0.00  0.00    +0.013 C 
ATOM      5  C   UNL     1       7.238  -0.474  -2.764  0.00  0.00    +0.076 C 
ATOM      6  C   UNL     1       5.891  -1.097  -2.391  0.00  0.00    +0.025 C 
ENDROOT
BRANCH   1  13
ATOM      7  C   UNL     1       0.892   1.490   0.546  0.00  0.00    +0.004 C 
ATOM      8  C   UNL     1       2.331   1.957   0.311  0.00  0.00    +0.019 C 
ATOM      9  C   UNL     1       2.747   1.614  -1.123  0.00  0.00    +0.108 C 
ATOM     10  N   UNL     1       2.534   0.177  -1.347  0.00  0.00    -0.290 N 
ATOM     11  C   UNL     1       1.209  -0.393  -1.064  0.00  0.00    +0.162 C 
ATOM     12  C   UNL     1       0.811  -0.028   0.369  0.00  0.00    +0.032 C 
ATOM     13  C   UNL     1       3.534  -0.602  -1.803  0.00  0.00    +0.219 C 
ATOM     14  O   UNL     1       3.366  -1.798  -1.918  0.00  0.00    -0.275 OA
BRANCH  11  15
ATOM     15  C   UNL     1       1.263  -1.892  -1.210  0.00  0.00    +0.231 C 
ATOM     16  O   UNL     1       1.924  -2.553  -0.438  0.00  0.00    -0.274 OA
ATOM     17  N   UNL     1       0.576  -2.497  -2.200  0.00  0.00    -0.328 N 
ATOM     18  H   UNL     1       0.048  -1.968  -2.818  0.00  0.00    +0.145 HD
ATOM     19  H   UNL     1       0.611  -3.462  -2.294  0.00  0.00    +0.145 HD
ENDBRANCH  11  15
ENDBRANCH   1  13
BRANCH   5  20
ATOM     20  C   UNL     1       8.254  -1.566  -2.982  0.00  0.00    +0.219 C 
ATOM     21  O   UNL     1       7.923  -2.729  -2.888  0.00  0.00    -0.275 OA
ATOM     22  N   UNL     1       9.529  -1.250  -3.282  0.00  0.00    -0.290 N 
ATOM     23  C   UNL     1       9.974   0.150  -3.277  0.00  0.00    +0.108 C 
ATOM     24  C   UNL     1      10.627   0.466  -4.626  0.00  0.00    +0.019 C 
ATOM     25  C   UNL     1      11.741  -0.547  -4.899  0.00  0.00    +0.004 C 
ATOM     26  C   UNL     1      11.147  -1.956  -4.967  0.00  0.00    +0.032 C 
ATOM     27  C   UNL     1      10.502  -2.299  -3.616  0.00  0.00    +0.162 C 
BRANCH  27  28
ATOM     28  C   UNL     1       9.798  -3.628  -3.713  0.00  0.00    +0.231 C 
ATOM     29  O   UNL     1       8.934  -3.797  -4.547  0.00  0.00    -0.274 OA
ATOM     30  N   UNL     1      10.128  -4.629  -2.873  0.00  0.00    -0.328 N 
ATOM     31  H   UNL     1      10.819  -4.494  -2.206  0.00  0.00    +0.145 HD
ATOM     32  H   UNL     1       9.675  -5.484  -2.935  0.00  0.00    +0.145 HD
ENDBRANCH  27  28
ENDBRANCH   5  20
TORSDOF 4
