REMARK  Name = ZINC00738920
REMARK  12 active torsions:
REMARK  status: ('A' for Active; 'I' for Inactive)
REMARK    1  A    between atoms: C_1  and  C_2
REMARK    2  A    between atoms: C_5  and  N_8
REMARK    3  A    between atoms: C_9  and  N_20
REMARK    4  A    between atoms: C_10  and  C_14
REMARK    5  A    between atoms: C_11  and  C_13
REMARK    6  A    between atoms: C_21  and  C_23
REMARK    7  A    between atoms: C_23  and  N_24
REMARK    8  A    between atoms: N_24  and  C_25
REMARK    9  A    between atoms: C_25  and  C_26
REMARK   10  A    between atoms: C_25  and  C_27
REMARK   11  A    between atoms: C_28  and  C_30
REMARK   12  A    between atoms: C_33  and  N_36
REMARK                            x       y       z     vdW  Elec       q    Type
REMARK                         _______ _______ _______ _____ _____    ______ ____
ROOT
ATOM      1  N   UNL     1       0.836   1.771   4.872  0.00  0.00    -0.268 N 
ATOM      2  C   UNL     1       1.455   2.934   5.157  0.00  0.00    +0.236 C 
ATOM      3  O   UNL     1       1.494   3.819   4.328  0.00  0.00    -0.274 OA
ATOM      4  H   UNL     1       0.744   1.090   5.557  0.00  0.00    +0.156 HD
ENDROOT
BRANCH   1   6
ATOM      5  N   UNL     1      -0.896   1.043   3.290  0.00  0.00    -0.218 N 
ATOM      6  C   UNL     1       0.330   1.547   3.596  0.00  0.00    +0.137 A 
ATOM      7  C   UNL     1       0.977   1.796   2.399  0.00  0.00    +0.045 A 
ATOM      8  C   UNL     1       0.100   1.425   1.362  0.00  0.00    +0.070 A 
ATOM      9  N   UNL     1      -1.008   0.985   1.896  0.00  0.00    -0.169 NA
ATOM     10  C   UNL     1       0.388   1.524  -0.114  0.00  0.00    +0.068 C 
BRANCH   5  15
ATOM     11  C   UNL     1      -4.873  -0.533   7.020  0.00  0.00    +0.044 C 
ATOM     12  C   UNL     1      -3.817  -0.114   6.029  0.00  0.00    -0.050 A 
ATOM     13  C   UNL     1      -4.177   0.579   4.888  0.00  0.00    +0.005 A 
ATOM     14  C   UNL     1      -3.211   0.964   3.979  0.00  0.00    +0.028 A 
ATOM     15  C   UNL     1      -1.878   0.654   4.211  0.00  0.00    +0.067 A 
ATOM     16  C   UNL     1      -1.520  -0.048   5.355  0.00  0.00    +0.028 A 
ATOM     17  C   UNL     1      -2.490  -0.425   6.263  0.00  0.00    +0.005 A 
ENDBRANCH   5  15
BRANCH   7  18
ATOM     18  C   UNL     1       2.343   2.351   2.238  0.00  0.00    -0.013 A 
ATOM     19  C   UNL     1       3.449   1.630   2.686  0.00  0.00    +0.008 A 
ATOM     20  C   UNL     1       4.718   2.149   2.529  0.00  0.00    +0.001 A 
ATOM     21  C   UNL     1       4.893   3.388   1.937  0.00  0.00    +0.000 A 
ATOM     22  C   UNL     1       3.799   4.110   1.496  0.00  0.00    +0.001 A 
ATOM     23  C   UNL     1       2.526   3.599   1.643  0.00  0.00    +0.008 A 
ENDBRANCH   7  18
ENDBRANCH   1   6
BRANCH   2  24
ATOM     24  C   UNL     1       2.099   3.134   6.504  0.00  0.00    +0.204 C 
BRANCH  24  25
ATOM     25  N   UNL     1       2.588   4.511   6.612  0.00  0.00    -0.286 N 
ATOM     26  C   UNL     1       3.869   4.797   6.305  0.00  0.00    +0.247 C 
ATOM     27  O   UNL     1       4.601   3.926   5.877  0.00  0.00    -0.270 OA
BRANCH  26  28
ATOM     28  C   UNL     1       4.384   6.171   6.490  0.00  0.00    +0.037 A 
ATOM     29  C   UNL     1       3.498   7.246   6.577  0.00  0.00    +0.015 A 
ATOM     30  C   UNL     1       3.986   8.524   6.755  0.00  0.00    +0.033 A 
ATOM     31  C   UNL     1       5.349   8.743   6.836  0.00  0.00    +0.126 A 
ATOM     32  C   UNL     1       6.233   7.683   6.745  0.00  0.00    +0.033 A 
ATOM     33  C   UNL     1       5.759   6.399   6.573  0.00  0.00    +0.015 A 
BRANCH  31  34
ATOM     34  N   UNL     1       5.865  10.118   7.021  0.00  0.00    +0.056 N 
ATOM     35  O   UNL     1       7.065  10.314   7.093  0.00  0.00    -0.126 OA
ATOM     36  O   UNL     1       5.090  11.054   7.101  0.00  0.00    -0.126 OA
ENDBRANCH  31  34
ENDBRANCH  26  28
BRANCH  25  37
ATOM     37  C   UNL     1       1.685   5.577   7.053  0.00  0.00    +0.071 C 
ATOM     38  C   UNL     1       2.420   6.497   8.030  0.00  0.00    +0.028 C 
ATOM     39  C   UNL     1       1.221   6.387   5.840  0.00  0.00    +0.028 C 
ENDBRANCH  25  37
ENDBRANCH  24  25
ENDBRANCH   2  24
TORSDOF 8
