REMARK  Name = ZINC15979123
REMARK  10 active torsions:
REMARK  status: ('A' for Active; 'I' for Inactive)
REMARK    1  A    between atoms: C_1  and  C_2
REMARK    2  A    between atoms: C_2  and  C_3
REMARK    3  A    between atoms: C_2  and  C_4
REMARK    4  A    between atoms: C_7  and  N_10
REMARK    5  A    between atoms: N_12  and  C_32
REMARK    6  A    between atoms: C_15  and  C_18
REMARK    7  A    between atoms: C_18  and  C_19
REMARK    8  A    between atoms: N_21  and  C_22
REMARK    9  A    between atoms: C_32  and  C_33
REMARK   10  A    between atoms: C_33  and  C_34
REMARK                            x       y       z     vdW  Elec       q    Type
REMARK                         _______ _______ _______ _____ _____    ______ ____
ROOT
ATOM      1  N   UNL     1       7.914  -6.185  -3.782  0.00  0.00    -0.226 NA
ATOM      2  C   UNL     1       7.385  -5.836  -2.633  0.00  0.00    +0.164 C 
ATOM      3  N   UNL     1       6.946  -6.655  -1.614  0.00  0.00    -0.249 N 
ATOM      4  C   UNL     1       6.427  -6.177  -0.496  0.00  0.00    +0.235 C 
ATOM      5  O   UNL     1       6.042  -6.901   0.397  0.00  0.00    -0.274 OA
ATOM      6  C   UNL     1       6.342  -4.662  -0.401  0.00  0.00    +0.149 C 
ATOM      7  S   UNL     1       7.064  -4.187  -2.022  0.00  0.00    -0.077 S 
ENDROOT
BRANCH   1  11
ATOM      8  C   UNL     1       9.063  -3.282  -6.499  0.00  0.00    -0.045 A 
ATOM      9  C   UNL     1       9.904  -4.348  -6.234  0.00  0.00    +0.006 A 
ATOM     10  C   UNL     1       9.528  -5.319  -5.329  0.00  0.00    +0.028 A 
ATOM     11  C   UNL     1       8.294  -5.225  -4.681  0.00  0.00    +0.067 A 
ATOM     12  C   UNL     1       7.448  -4.149  -4.958  0.00  0.00    +0.028 A 
ATOM     13  C   UNL     1       7.840  -3.182  -5.861  0.00  0.00    +0.006 A 
BRANCH   8  15
ATOM     14  C   UNL     1       8.467  -2.169  -8.634  0.00  0.00    +0.012 C 
ATOM     15  C   UNL     1       9.481  -2.225  -7.489  0.00  0.00    +0.013 C 
ATOM     16  C   UNL     1       9.537  -0.865  -6.790  0.00  0.00    +0.012 C 
ENDBRANCH   8  15
ENDBRANCH   1  11
BRANCH   6  17
ATOM     17  C   UNL     1       4.890  -4.194  -0.282  0.00  0.00    +0.120 C 
BRANCH  17  18
ATOM     18  C   UNL     1       4.854  -2.693  -0.161  0.00  0.00    +0.219 C 
ATOM     19  O   UNL     1       5.888  -2.059  -0.168  0.00  0.00    -0.275 OA
ATOM     20  N   UNL     1       3.673  -2.054  -0.044  0.00  0.00    -0.285 N 
ATOM     21  H   UNL     1       2.853  -2.564   0.042  0.00  0.00    +0.155 HD
BRANCH  20  22
ATOM     22  C   UNL     1       3.631  -0.659  -0.048  0.00  0.00    +0.041 A 
ATOM     23  C   UNL     1       4.632   0.066  -0.657  0.00  0.00    +0.024 A 
ATOM     24  C   UNL     1       4.599   1.457  -0.666  0.00  0.00    +0.002 A 
ATOM     25  C   UNL     1       3.580   2.140  -0.075  0.00  0.00    +0.008 A 
ATOM     26  C   UNL     1       2.539   1.439   0.557  0.00  0.00    -0.016 A 
ATOM     27  C   UNL     1       2.562   0.022   0.573  0.00  0.00    +0.003 A 
ATOM     28  C   UNL     1       1.521  -0.677   1.204  0.00  0.00    +0.010 A 
ATOM     29  C   UNL     1       0.505   0.013   1.792  0.00  0.00    +0.001 A 
ATOM     30  C   UNL     1       0.482   1.406   1.777  0.00  0.00    +0.001 A 
ATOM     31  C   UNL     1       1.474   2.117   1.175  0.00  0.00    +0.008 A 
ENDBRANCH  20  22
ENDBRANCH  17  18
ENDBRANCH   6  17
BRANCH   3  32
ATOM     32  C   UNL     1       7.060  -8.107  -1.776  0.00  0.00    +0.120 C 
BRANCH  32  33
ATOM     33  C   UNL     1       5.785  -8.648  -2.427  0.00  0.00    +0.050 C 
BRANCH  33  34
ATOM     34  C   UNL     1       5.902 -10.141  -2.593  0.00  0.00    -0.072 C 
ATOM     35  C   UNL     1       5.400 -10.896  -1.669  0.00  0.00    -0.028 C 
ATOM     36  C   UNL     1       5.443 -12.396  -1.692  0.00  0.00    +0.027 C 
ATOM     37  C   UNL     1       5.769 -12.893  -3.103  0.00  0.00    +0.004 C 
ATOM     38  C   UNL     1       6.993 -12.125  -3.617  0.00  0.00    +0.005 C 
ATOM     39  C   UNL     1       6.597 -10.661  -3.817  0.00  0.00    +0.030 C 
ENDBRANCH  33  34
ENDBRANCH  32  33
ENDBRANCH   3  32
TORSDOF 8
