REMARK  Name = ZINC63820459
REMARK  9 active torsions:
REMARK  status: ('A' for Active; 'I' for Inactive)
REMARK    1  A    between atoms: C_1  and  C_2
REMARK    2  A    between atoms: C_4  and  C_17
REMARK    3  A    between atoms: C_5  and  C_16
REMARK    4  A    between atoms: N_7  and  C_8
REMARK    5  A    between atoms: C_17  and  N_18
REMARK    6  A    between atoms: N_18  and  C_19
REMARK    7  A    between atoms: C_19  and  C_20
REMARK    8  A    between atoms: C_20  and  C_22
REMARK    9  A    between atoms: C_20  and  C_27
REMARK                            x       y       z     vdW  Elec       q    Type
REMARK                         _______ _______ _______ _____ _____    ______ ____
ROOT
ATOM      1  N   UNL     1      -3.323   0.857  -0.151  0.00  0.00    +0.382 N 
ATOM      2  H   UNL     1      -3.588   0.793   0.820  0.00  0.00    -0.085 HD
ATOM      3  H   UNL     1      -2.695   1.636  -0.278  0.00  0.00    -0.085 HD
ENDROOT
BRANCH   1   4
ATOM      4  C   UNL     1      -2.652  -0.385  -0.558  0.00  0.00    -0.048 C 
BRANCH   4   7
ATOM      5  C   UNL     1      -0.104   1.525   0.073  0.00  0.00    +0.030 C 
ATOM      6  C   UNL     1      -0.048  -0.004   0.037  0.00  0.00    +0.099 C 
ATOM      7  C   UNL     1      -1.421  -0.590   0.286  0.00  0.00    -0.051 C 
ATOM      8  C   UNL     1      -1.332  -1.314   1.384  0.00  0.00    +0.015 C 
ATOM      9  N   UNL     1      -0.057  -1.288   1.912  0.00  0.00    -0.281 N 
ATOM     10  N   UNL     1       0.777  -0.516   1.150  0.00  0.00    -0.218 NA
ATOM     11  C   UNL     1      -2.483  -2.076   1.989  0.00  0.00    +0.061 C 
ATOM     12  H   UNL     1       0.213  -1.756   2.718  0.00  0.00    +0.166 HD
BRANCH  10  13
ATOM     13  C   UNL     1       1.342   0.587   1.938  0.00  0.00    +0.099 C 
ATOM     14  C   UNL     1       2.749   0.928   1.419  0.00  0.00    +0.045 C 
ATOM     15  C   UNL     1       3.473   1.853   2.428  0.00  0.00    +0.167 C 
ATOM     16  S   UNL     1       2.701   1.386   4.030  0.00  0.00    -0.029 S 
ATOM     17  O   UNL     1       3.666   0.716   4.830  0.00  0.00    -0.174 OA
ATOM     18  O   UNL     1       2.015   2.512   4.559  0.00  0.00    -0.174 OA
ATOM     19  C   UNL     1       1.466   0.158   3.428  0.00  0.00    +0.186 C 
ENDBRANCH  10  13
ENDBRANCH   4   7
ENDBRANCH   1   4
BRANCH   1  20
ATOM     20  C   UNL     1      -4.524   1.057  -0.974  0.00  0.00    -0.069 C 
BRANCH  20  21
ATOM     21  C   UNL     1      -5.223   2.350  -0.550  0.00  0.00    +0.037 C 
BRANCH  21  22
ATOM     22  C   UNL     1      -6.517   2.493  -1.308  0.00  0.00    -0.035 C 
ATOM     23  C   UNL     1      -7.761   2.577  -0.784  0.00  0.00    -0.001 A 
ATOM     24  C   UNL     1      -8.263   2.561   0.595  0.00  0.00    +0.010 A 
ATOM     25  C   UNL     1      -9.594   2.665   0.811  0.00  0.00    +0.001 A 
ATOM     26  C   UNL     1     -10.504   2.787  -0.248  0.00  0.00    +0.002 A 
ATOM     27  C   UNL     1     -10.120   2.810  -1.541  0.00  0.00    +0.026 A 
ATOM     28  C   UNL     1      -8.744   2.708  -1.884  0.00  0.00    +0.043 A 
ATOM     29  N   UNL     1      -8.131   2.704  -3.043  0.00  0.00    -0.380 N 
ATOM     30  C   UNL     1      -6.688   2.577  -2.809  0.00  0.00    +0.145 C 
ATOM     31  H   UNL     1      -8.559   2.778  -3.910  0.00  0.00    +0.160 HD
ENDBRANCH  21  22
BRANCH  21  32
ATOM     32  C   UNL     1      -4.331   3.526  -0.854  0.00  0.00    -0.005 A 
ATOM     33  C   UNL     1      -3.813   4.446  -0.004  0.00  0.00    +0.012 A 
ATOM     34  C   UNL     1      -3.009   5.450  -0.511  0.00  0.00    +0.008 A 
ATOM     35  C   UNL     1      -2.763   5.484  -1.844  0.00  0.00    +0.045 A 
ATOM     36  S   UNL     1      -3.676   4.064  -2.425  0.00  0.00    -0.101 S 
ENDBRANCH  21  32
ENDBRANCH  20  21
ENDBRANCH   1  20
TORSDOF 7
