REMARK  Name = ZINC21882453
REMARK  9 active torsions:
REMARK  status: ('A' for Active; 'I' for Inactive)
REMARK    1  A    between atoms: C_1  and  C_2
REMARK    2  A    between atoms: C_15  and  C_17
REMARK    3  A    between atoms: C_17  and  C_18
REMARK    4  A    between atoms: C_18  and  C_19
REMARK    5  A    between atoms: N_21  and  C_22
REMARK    6  A    between atoms: C_22  and  C_23
REMARK    7  A    between atoms: C_23  and  C_24
REMARK    8  A    between atoms: C_27  and  S_30
REMARK    9  A    between atoms: S_30  and  N_33
REMARK                            x       y       z     vdW  Elec       q    Type
REMARK                         _______ _______ _______ _____ _____    ______ ____
ROOT
ATOM      1  C   UNL     1       0.162   0.960  -4.895  0.00  0.00    +0.103 C 
ENDROOT
BRANCH   1   2
ATOM      2  C   UNL     1      -0.543   1.446  -3.655  0.00  0.00    +0.213 C 
ATOM      3  O   UNL     1      -1.540   2.130  -3.753  0.00  0.00    -0.276 OA
ATOM      4  N   UNL     1      -0.067   1.120  -2.437  0.00  0.00    -0.315 N 
ATOM      5  H   UNL     1       0.837   0.499  -2.348  0.00  0.00    +0.149 HD
BRANCH   4   6
ATOM      6  C   UNL     1      -0.753   1.593  -1.232  0.00  0.00    +0.109 C 
BRANCH   6   7
ATOM      7  C   UNL     1      -0.013   1.086   0.008  0.00  0.00    +0.054 C 
BRANCH   7   8
ATOM      8  C   UNL     1      -0.718   1.572   1.248  0.00  0.00    -0.046 A 
ATOM      9  C   UNL     1      -0.360   2.779   1.819  0.00  0.00    +0.005 A 
ATOM     10  C   UNL     1      -1.010   3.227   2.953  0.00  0.00    +0.029 A 
ATOM     11  C   UNL     1      -2.012   2.463   3.523  0.00  0.00    +0.105 A 
ATOM     12  C   UNL     1      -2.366   1.254   2.955  0.00  0.00    +0.029 A 
ATOM     13  C   UNL     1      -1.719   0.808   1.818  0.00  0.00    +0.005 A 
BRANCH  11  14
ATOM     14  S   UNL     1      -2.837   3.032   4.972  0.00  0.00    +0.056 S 
ATOM     15  O   UNL     1      -2.695   4.446   4.992  0.00  0.00    -0.153 OA
ATOM     16  O   UNL     1      -4.107   2.394   4.993  0.00  0.00    -0.153 OA
BRANCH  14  17
ATOM     17  N   UNL     1      -1.995   2.453   6.274  0.00  0.00    -0.204 NA
ATOM     18  H   UNL     1      -2.480   2.788   7.203  0.00  0.00    +0.144 HD
ATOM     19  H   UNL     1      -0.963   2.834   6.242  0.00  0.00    +0.144 HD
ENDBRANCH  14  17
ENDBRANCH  11  14
ENDBRANCH   7   8
ENDBRANCH   6   7
ENDBRANCH   4   6
ENDBRANCH   1   2
BRANCH   1  20
ATOM     20  C   UNL     1      -0.578   1.467  -6.134  0.00  0.00    +0.083 C 
BRANCH  20  34
ATOM     21  C   UNL     1       4.756  -2.305 -13.695  0.00  0.00    +0.008 C 
ATOM     22  C   UNL     1       3.676  -1.914 -12.685  0.00  0.00    -0.009 C 
ATOM     23  C   UNL     1       3.131  -0.525 -13.028  0.00  0.00    +0.008 C 
ATOM     24  C   UNL     1       1.888  -0.232 -12.186  0.00  0.00    +0.037 C 
ATOM     25  C   UNL     1       2.224  -0.463 -10.715  0.00  0.00    -0.023 A 
ATOM     26  C   UNL     1       3.298  -1.200 -10.361  0.00  0.00    -0.004 A 
ATOM     27  S   UNL     1       3.293  -1.195  -8.588  0.00  0.00    -0.073 S 
ATOM     28  C   UNL     1       1.845  -0.201  -8.329  0.00  0.00    +0.116 A 
ATOM     29  C   UNL     1       1.414   0.093  -9.632  0.00  0.00    +0.075 A 
ATOM     30  C   UNL     1       0.235   0.903  -9.728  0.00  0.00    +0.260 A 
ATOM     31  O   UNL     1      -0.218   1.211 -10.816  0.00  0.00    -0.267 OA
ATOM     32  N   UNL     1      -0.366   1.312  -8.595  0.00  0.00    -0.310 N 
ATOM     33  H   UNL     1      -1.277   1.927  -8.647  0.00  0.00    +0.170 HD
ATOM     34  C   UNL     1       0.127   0.981  -7.374  0.00  0.00    +0.111 A 
ATOM     35  N   UNL     1       1.200   0.244  -7.255  0.00  0.00    -0.227 NA
ATOM     36  C   UNL     1       4.278  -1.873 -11.273  0.00  0.00    +0.046 C 
ENDBRANCH  20  34
ENDBRANCH   1  20
TORSDOF 8
