REMARK  Name = ZINC60529193
REMARK  9 active torsions:
REMARK  status: ('A' for Active; 'I' for Inactive)
REMARK    1  A    between atoms: C_1  and  C_2
REMARK    2  A    between atoms: C_3  and  C_12
REMARK    3  A    between atoms: C_12  and  C_14
REMARK    4  A    between atoms: C_14  and  C_26
REMARK    5  A    between atoms: C_15  and  C_16
REMARK    6  A    between atoms: C_21  and  C_22
REMARK    7  A    between atoms: C_22  and  C_23
REMARK    8  A    between atoms: C_22  and  C_24
REMARK    9  A    between atoms: C_22  and  C_25
REMARK                            x       y       z     vdW  Elec       q    Type
REMARK                         _______ _______ _______ _____ _____    ______ ____
ROOT
ATOM      1  C   UNL     1       0.541   0.837  -3.110  0.00  0.00    +0.100 C 
ATOM      2  C   UNL     1       0.002   1.213  -4.322  0.00  0.00    +0.034 C 
ENDROOT
BRANCH   2   3
ATOM      3  C   UNL     1       0.015   2.619  -4.725  0.00  0.00    +0.017 A 
ATOM      4  C   UNL     1       0.752   3.638  -4.139  0.00  0.00    +0.113 A 
ATOM      5  N   UNL     1       0.475   4.768  -4.810  0.00  0.00    -0.284 N 
ATOM      6  H   UNL     1       0.848   5.643  -4.622  0.00  0.00    +0.188 HD
ATOM      7  N   UNL     1      -0.440   4.471  -5.826  0.00  0.00    -0.178 NA
ATOM      8  C   UNL     1      -0.718   3.198  -5.790  0.00  0.00    +0.075 A 
BRANCH   8   9
ATOM      9  C   UNL     1      -1.657   2.470  -6.718  0.00  0.00    +0.007 C 
ATOM     10  C   UNL     1      -2.789   1.840  -5.904  0.00  0.00    +0.017 C 
ATOM     11  C   UNL     1      -2.244   3.458  -7.728  0.00  0.00    +0.017 C 
ATOM     12  C   UNL     1      -0.892   1.375  -7.462  0.00  0.00    +0.017 C 
ENDBRANCH   8   9
ENDBRANCH   2   3
BRANCH   1  13
ATOM     13  C   UNL     1       0.665  -0.588  -2.770  0.00  0.00    +0.206 C 
ATOM     14  O   UNL     1       0.390  -1.438  -3.598  0.00  0.00    -0.286 OA
BRANCH  13  17
ATOM     15  C   UNL     1      -1.171  -1.262  -0.350  0.00  0.00    +0.064 C 
ATOM     16  C   UNL     1       0.335  -1.288  -0.356  0.00  0.00    +0.025 A 
ATOM     17  C   UNL     1       1.121  -0.988  -1.431  0.00  0.00    +0.051 A 
ATOM     18  C   UNL     1       2.517  -1.143  -0.984  0.00  0.00    +0.011 A 
ATOM     19  C   UNL     1       3.755  -0.985  -1.603  0.00  0.00    +0.011 A 
ATOM     20  C   UNL     1       4.910  -1.215  -0.888  0.00  0.00    +0.001 A 
ATOM     21  C   UNL     1       4.844  -1.603   0.442  0.00  0.00    +0.002 A 
ATOM     22  C   UNL     1       3.627  -1.763   1.067  0.00  0.00    +0.026 A 
ATOM     23  C   UNL     1       2.449  -1.536   0.362  0.00  0.00    +0.047 A 
ATOM     24  N   UNL     1       1.115  -1.606   0.706  0.00  0.00    -0.358 N 
ATOM     25  H   UNL     1       0.781  -1.851   1.583  0.00  0.00    +0.166 HD
ENDBRANCH  13  17
ENDBRANCH   1  13
BRANCH   1  26
ATOM     26  C   UNL     1       0.980   1.835  -2.182  0.00  0.00    +0.103 C 
ATOM     27  N   UNL     1       1.329   2.627  -1.445  0.00  0.00    -0.191 NA
ENDBRANCH   1  26
TORSDOF 5
