REMARK  Name = ZINC40827455
REMARK  5 active torsions:
REMARK  status: ('A' for Active; 'I' for Inactive)
REMARK    1  A    between atoms: C_1  and  C_2
REMARK    2  A    between atoms: C_7  and  N_8
REMARK    3  A    between atoms: C_12  and  N_16
REMARK    4  A    between atoms: N_16  and  C_17
REMARK    5  A    between atoms: N_16  and  C_23
REMARK                            x       y       z     vdW  Elec       q    Type
REMARK                         _______ _______ _______ _____ _____    ______ ____
ROOT
ATOM      1  N   UNL     1      -0.877   2.687   4.463  0.00  0.00    -0.212 N 
ATOM      2  C   UNL     1       0.194   3.491   4.444  0.00  0.00    +0.225 C 
ATOM      3  O   UNL     1       0.163   4.702   4.457  0.00  0.00    -0.275 OA
ATOM      4  C   UNL     1       1.449   2.647   4.403  0.00  0.00    +0.091 C 
ATOM      5  C   UNL     1       0.913   1.201   4.402  0.00  0.00    +0.030 C 
ATOM      6  C   UNL     1      -0.589   1.380   4.448  0.00  0.00    +0.213 C 
ATOM      7  O   UNL     1      -1.403   0.481   4.466  0.00  0.00    -0.277 OA
ENDROOT
BRANCH   1  14
ATOM      8  C   UNL     1      -1.963   3.817   2.088  0.00  0.00    +0.045 C 
ATOM      9  C   UNL     1      -2.759   3.734   3.365  0.00  0.00    -0.029 A 
ATOM     10  C   UNL     1      -4.056   4.208   3.405  0.00  0.00    +0.005 A 
ATOM     11  C   UNL     1      -4.786   4.131   4.576  0.00  0.00    +0.000 A 
ATOM     12  C   UNL     1      -4.221   3.579   5.712  0.00  0.00    +0.002 A 
ATOM     13  C   UNL     1      -2.925   3.103   5.678  0.00  0.00    +0.024 A 
ATOM     14  C   UNL     1      -2.191   3.175   4.502  0.00  0.00    +0.047 A 
ENDBRANCH   1  14
BRANCH   5  15
ATOM     15  N   UNL     1       1.382   0.474   5.590  0.00  0.00    +0.391 N 
ATOM     16  H   UNL     1       1.064  -0.482   5.546  0.00  0.00    -0.080 HD
BRANCH  15  17
ATOM     17  C   UNL     1       2.850   0.501   5.631  0.00  0.00    -0.067 C 
ATOM     18  C   UNL     1       3.342  -0.335   6.815  0.00  0.00    -0.015 C 
ATOM     19  C   UNL     1       4.871  -0.307   6.858  0.00  0.00    -0.002 C 
ATOM     20  C   UNL     1       5.429  -0.887   5.557  0.00  0.00    -0.000 C 
ATOM     21  C   UNL     1       4.937  -0.052   4.374  0.00  0.00    -0.002 C 
ATOM     22  C   UNL     1       3.408  -0.079   4.330  0.00  0.00    -0.015 C 
ENDBRANCH  15  17
BRANCH  15  23
ATOM     23  C   UNL     1       0.846   1.114   6.799  0.00  0.00    -0.067 C 
ATOM     24  C   UNL     1      -0.675   0.957   6.827  0.00  0.00    -0.015 C 
ATOM     25  C   UNL     1      -1.234   1.623   8.086  0.00  0.00    -0.002 C 
ATOM     26  C   UNL     1      -0.875   3.110   8.078  0.00  0.00    -0.000 C 
ATOM     27  C   UNL     1       0.647   3.268   8.050  0.00  0.00    -0.002 C 
ATOM     28  C   UNL     1       1.205   2.601   6.791  0.00  0.00    -0.015 C 
ENDBRANCH  15  23
ENDBRANCH   5  15
TORSDOF 4
