REMARK  Name = ZINC66977196
REMARK  6 active torsions:
REMARK  status: ('A' for Active; 'I' for Inactive)
REMARK    1  A    between atoms: C_4  and  C_7
REMARK    2  A    between atoms: C_7  and  C_9
REMARK    3  A    between atoms: C_7  and  N_16
REMARK    4  A    between atoms: N_19  and  N_20
REMARK    5  A    between atoms: C_21  and  C_23
REMARK    6  A    between atoms: C_23  and  C_24
REMARK                            x       y       z     vdW  Elec       q    Type
REMARK                         _______ _______ _______ _____ _____    ______ ____
ROOT
ATOM      1  N   UNL     1       3.630  -1.873   0.845  0.00  0.00    -0.287 N 
ATOM      2  C   UNL     1       3.871  -1.738   2.164  0.00  0.00    +0.317 C 
ATOM      3  O   UNL     1       4.155  -0.648   2.622  0.00  0.00    -0.251 OA
ATOM      4  N   UNL     1       3.796  -2.811   2.977  0.00  0.00    -0.218 N 
ATOM      5  H   UNL     1       3.403  -2.743   0.480  0.00  0.00    +0.151 HD
ATOM      6  H   UNL     1       3.970  -2.713   3.926  0.00  0.00    +0.174 HD
ENDROOT
BRANCH   4   7
ATOM      7  N   UNL     1       3.469  -4.067   2.450  0.00  0.00    -0.233 N 
ATOM      8  C   UNL     1       3.394  -5.140   3.262  0.00  0.00    +0.234 C 
ATOM      9  O   UNL     1       3.611  -5.018   4.449  0.00  0.00    -0.274 OA
ATOM     10  H   UNL     1       3.295  -4.164   1.500  0.00  0.00    +0.173 HD
BRANCH   8  11
ATOM     11  C   UNL     1       3.041  -6.491   2.695  0.00  0.00    +0.135 C 
BRANCH  11  12
ATOM     12  C   UNL     1       3.025  -7.512   3.804  0.00  0.00    -0.003 A 
ATOM     13  C   UNL     1       4.150  -8.273   4.059  0.00  0.00    +0.007 A 
ATOM     14  C   UNL     1       4.135  -9.210   5.075  0.00  0.00    +0.000 A 
ATOM     15  C   UNL     1       2.995  -9.386   5.838  0.00  0.00    +0.003 A 
ATOM     16  C   UNL     1       1.870  -8.626   5.585  0.00  0.00    +0.038 A 
ATOM     17  C   UNL     1       1.885  -7.684   4.570  0.00  0.00    +0.127 A 
ATOM     18  F   UNL     1       0.786  -6.936   4.325  0.00  0.00    -0.205 F 
ENDBRANCH  11  12
ENDBRANCH   8  11
ENDBRANCH   4   7
BRANCH   1  19
ATOM     19  C   UNL     1       3.711  -0.707  -0.038  0.00  0.00    +0.135 C 
BRANCH  19  20
ATOM     20  C   UNL     1       4.014  -1.161  -1.442  0.00  0.00    -0.023 A 
ATOM     21  C   UNL     1       3.406  -2.295  -1.948  0.00  0.00    +0.008 A 
ATOM     22  C   UNL     1       3.683  -2.711  -3.237  0.00  0.00    +0.038 A 
ATOM     23  C   UNL     1       4.570  -1.992  -4.021  0.00  0.00    +0.123 A 
ATOM     24  C   UNL     1       5.178  -0.857  -3.513  0.00  0.00    +0.038 A 
ATOM     25  C   UNL     1       4.896  -0.439  -2.226  0.00  0.00    +0.008 A 
ATOM     26  F   UNL     1       4.842  -2.399  -5.280  0.00  0.00    -0.205 F 
ENDBRANCH  19  20
BRANCH  19  30
ATOM     27  C   UNL     1      -0.017   1.378   0.010  0.00  0.00    +0.000 A 
ATOM     28  C   UNL     1       1.171   2.086   0.002  0.00  0.00    +0.000 A 
ATOM     29  C   UNL     1       2.377   1.411  -0.013  0.00  0.00    +0.006 A 
ATOM     30  C   UNL     1       2.396   0.029  -0.020  0.00  0.00    -0.023 A 
ATOM     31  C   UNL     1       1.208  -0.679  -0.012  0.00  0.00    +0.006 A 
ATOM     32  C   UNL     1       0.002  -0.004   0.002  0.00  0.00    +0.000 A 
ENDBRANCH  19  30
ENDBRANCH   1  19
TORSDOF 6
