REMARK  Name = ZINC63654883
REMARK  8 active torsions:
REMARK  status: ('A' for Active; 'I' for Inactive)
REMARK    1  A    between atoms: C_1  and  O_2
REMARK    2  A    between atoms: O_2  and  C_3
REMARK    3  A    between atoms: C_6  and  C_9
REMARK    4  A    between atoms: C_11  and  S_19
REMARK    5  A    between atoms: S_19  and  C_20
REMARK    6  A    between atoms: C_20  and  C_21
REMARK    7  A    between atoms: C_21  and  N_22
REMARK    8  A    between atoms: C_23  and  C_25
REMARK                            x       y       z     vdW  Elec       q    Type
REMARK                         _______ _______ _______ _____ _____    ______ ____
ROOT
ATOM      1  C   UNL     1       2.493  -2.504  -4.347  0.00  0.00    +0.147 C 
ATOM      2  C   UNL     1       3.883  -2.971  -3.974  0.00  0.00    +0.021 C 
ATOM      3  C   UNL     1       3.872  -4.353  -4.136  0.00  0.00    +0.010 A 
ATOM      4  C   UNL     1       4.861  -5.342  -3.945  0.00  0.00    +0.011 A 
ATOM      5  C   UNL     1       4.565  -6.645  -4.186  0.00  0.00    +0.001 A 
ATOM      6  C   UNL     1       3.299  -7.039  -4.622  0.00  0.00    +0.002 A 
ATOM      7  C   UNL     1       2.302  -6.142  -4.825  0.00  0.00    +0.026 A 
ATOM      8  C   UNL     1       2.536  -4.763  -4.594  0.00  0.00    +0.044 A 
ATOM      9  N   UNL     1       1.746  -3.710  -4.717  0.00  0.00    -0.373 N 
ATOM     10  H   UNL     1       0.820  -3.731  -5.005  0.00  0.00    +0.161 HD
ENDROOT
BRANCH   1  14
ATOM     11  C   UNL     1       0.637  -0.587  -1.010  0.00  0.00    +0.120 A 
ATOM     12  C   UNL     1       1.193   0.174  -2.027  0.00  0.00    +0.046 A 
ATOM     13  C   UNL     1       1.793  -0.448  -3.105  0.00  0.00    +0.009 A 
ATOM     14  C   UNL     1       1.839  -1.828  -3.170  0.00  0.00    -0.020 A 
ATOM     15  C   UNL     1       1.285  -2.589  -2.158  0.00  0.00    +0.009 A 
ATOM     16  C   UNL     1       0.689  -1.972  -1.075  0.00  0.00    +0.046 A 
BRANCH  11  18
ATOM     17  C   UNL     1       0.029   1.452   0.052  0.00  0.00    +0.277 C 
ATOM     18  O   UNL     1       0.047   0.023   0.052  0.00  0.00    -0.495 OA
ENDBRANCH  11  18
ENDBRANCH   1  14
BRANCH   2  19
ATOM     19  S   UNL     1       5.156  -2.030  -3.474  0.00  0.00    -0.125 S 
BRANCH  19  20
ATOM     20  C   UNL     1       6.447  -3.230  -3.045  0.00  0.00    +0.093 C 
BRANCH  20  21
ATOM     21  C   UNL     1       7.640  -2.498  -2.428  0.00  0.00    +0.115 C 
BRANCH  21  22
ATOM     22  N   UNL     1       8.682  -3.467  -2.081  0.00  0.00    -0.308 N 
ATOM     23  C   UNL     1       9.833  -3.047  -1.520  0.00  0.00    +0.279 C 
ATOM     24  O   UNL     1      10.007  -1.862  -1.301  0.00  0.00    -0.267 OA
ATOM     25  H   UNL     1       8.543  -4.411  -2.255  0.00  0.00    +0.149 HD
BRANCH  23  26
ATOM     26  C   UNL     1      10.876  -4.017  -1.172  0.00  0.00    +0.191 A 
ATOM     27  C   UNL     1      12.080  -3.728  -0.597  0.00  0.00    +0.056 A 
ATOM     28  C   UNL     1      12.757  -4.947  -0.445  0.00  0.00    +0.058 A 
ATOM     29  C   UNL     1      11.946  -5.916  -0.927  0.00  0.00    +0.171 A 
ATOM     30  O   UNL     1      10.811  -5.352  -1.360  0.00  0.00    -0.444 OA
ATOM     31 BR   UNL     1      12.345  -7.764  -0.977  0.00  0.00    -0.008 Br
ENDBRANCH  23  26
ENDBRANCH  21  22
ENDBRANCH  20  21
ENDBRANCH  19  20
ENDBRANCH   2  19
TORSDOF 7
