REMARK  Name = ZINC49435380
REMARK  5 active torsions:
REMARK  status: ('A' for Active; 'I' for Inactive)
REMARK    1  A    between atoms: C_1  and  C_2
REMARK    2  A    between atoms: C_5  and  C_27
REMARK    3  A    between atoms: C_9  and  O_11
REMARK    4  A    between atoms: O_11  and  C_12
REMARK    5  A    between atoms: C_18  and  C_20
REMARK                            x       y       z     vdW  Elec       q    Type
REMARK                         _______ _______ _______ _____ _____    ______ ____
ROOT
ATOM      1  C   UNL     1       0.077  -1.656   5.818  0.00  0.00    +0.179 C 
ATOM      2  C   UNL     1      -1.357  -2.053   6.174  0.00  0.00    +0.063 C 
ATOM      3  C   UNL     1      -1.328  -3.203   7.185  0.00  0.00    +0.111 C 
ATOM      4  N   UNL     1      -0.509  -2.801   8.337  0.00  0.00    -0.300 N 
ATOM      5  C   UNL     1       0.857  -2.316   8.097  0.00  0.00    +0.111 C 
ATOM      6  C   UNL     1       0.804  -1.175   7.076  0.00  0.00    +0.063 C 
ATOM      7  C   UNL     1      -1.002  -2.874   9.589  0.00  0.00    +0.236 C 
ATOM      8  O   UNL     1      -2.132  -3.276   9.773  0.00  0.00    -0.274 OA
ENDROOT
BRANCH   7   9
ATOM      9  C   UNL     1      -0.150  -2.458  10.760  0.00  0.00    +0.159 C 
ATOM     10  C   UNL     1      -0.177  -0.922  10.921  0.00  0.00    +0.041 C 
ATOM     11  C   UNL     1      -0.130  -0.765  12.459  0.00  0.00    +0.098 C 
ATOM     12  C   UNL     1      -0.702  -2.065  12.981  0.00  0.00    +0.214 C 
ATOM     13  O   UNL     1      -1.099  -2.244  14.113  0.00  0.00    -0.276 OA
ATOM     14  N   UNL     1      -0.705  -2.994  12.008  0.00  0.00    -0.304 N 
ATOM     15  H   UNL     1      -1.032  -3.901  12.117  0.00  0.00    +0.149 HD
ENDBRANCH   7   9
BRANCH   1  16
ATOM     16  O   UNL     1       0.054  -0.604   4.851  0.00  0.00    -0.468 OA
BRANCH  16  25
ATOM     17  C   UNL     1      -0.018   1.503   0.010  0.00  0.00    +0.046 C 
ATOM     18  C   UNL     1       0.002  -0.004   0.002  0.00  0.00    -0.024 A 
ATOM     19  C   UNL     1       0.006  -0.675  -1.193  0.00  0.00    +0.006 A 
ATOM     20  C   UNL     1       0.024  -2.061  -1.246  0.00  0.00    +0.005 A 
ATOM     21  C   UNL     1       0.040  -2.784  -0.067  0.00  0.00    -0.035 A 
ATOM     22  C   UNL     1       0.037  -2.120   1.134  0.00  0.00    +0.046 A 
ATOM     23  C   UNL     1       0.023  -0.710   1.227  0.00  0.00    +0.085 A 
ATOM     24  N   UNL     1       0.028  -0.205   2.480  0.00  0.00    -0.206 NA
ATOM     25  C   UNL     1       0.048  -0.968   3.547  0.00  0.00    +0.258 A 
ATOM     26  S   UNL     1       0.052  -2.610   2.842  0.00  0.00    -0.029 S 
ATOM     27  C   UNL     1       0.060  -4.290  -0.101  0.00  0.00    +0.045 C 
ENDBRANCH  16  25
ENDBRANCH   1  16
TORSDOF 3
