REMARK  Name = ZINC62552667
REMARK  5 active torsions:
REMARK  status: ('A' for Active; 'I' for Inactive)
REMARK    1  A    between atoms: C_7  and  O_28
REMARK    2  A    between atoms: N_11  and  S_12
REMARK    3  A    between atoms: S_12  and  C_15
REMARK    4  A    between atoms: C_15  and  C_16
REMARK    5  A    between atoms: C_16  and  N_17
REMARK                            x       y       z     vdW  Elec       q    Type
REMARK                         _______ _______ _______ _____ _____    ______ ____
ROOT
ATOM      1  S   UNL     1       5.021   0.188  -0.395  0.00  0.00    +0.047 S 
ATOM      2  O   UNL     1       5.940  -0.811  -0.815  0.00  0.00    -0.155 OA
ATOM      3  O   UNL     1       4.618   1.220  -1.285  0.00  0.00    -0.155 OA
ENDROOT
BRANCH   1  13
ATOM      4  C   UNL     1       0.006   1.407   0.171  0.00  0.00    +0.000 A 
ATOM      5  C   UNL     1       1.199   2.107   0.164  0.00  0.00    +0.002 A 
ATOM      6  C   UNL     1       2.397   1.425   0.093  0.00  0.00    +0.025 A 
ATOM      7  C   UNL     1       2.404   0.035   0.030  0.00  0.00    +0.056 A 
ATOM      8  C   UNL     1       1.208  -0.665   0.041  0.00  0.00    +0.003 A 
ATOM      9  C   UNL     1       0.011   0.027   0.110  0.00  0.00    +0.008 A 
ATOM     10  C   UNL     1       1.177  -2.170  -0.015  0.00  0.00    +0.148 C 
ATOM     11  C   UNL     1       2.489  -2.711  -0.583  0.00  0.00    +0.057 C 
ATOM     12  C   UNL     1       3.659  -2.087   0.189  0.00  0.00    +0.134 C 
ATOM     13  N   UNL     1       3.629  -0.637  -0.046  0.00  0.00    -0.207 N 
BRANCH  10  14
ATOM     14  O   UNL     1       0.095  -2.589  -0.849  0.00  0.00    -0.387 OA
ATOM     15  H   UNL     1      -0.774  -2.295  -0.542  0.00  0.00    +0.210 HD
ENDBRANCH  10  14
ENDBRANCH   1  13
BRANCH   1  16
ATOM     16  C   UNL     1       5.551   0.899   1.187  0.00  0.00    +0.208 C 
BRANCH  16  17
ATOM     17  C   UNL     1       6.843   1.692   0.983  0.00  0.00    +0.141 C 
BRANCH  17  18
ATOM     18  N   UNL     1       7.271   2.267   2.261  0.00  0.00    -0.232 N 
ATOM     19  C   UNL     1       6.896   3.475   2.717  0.00  0.00    +0.254 C 
ATOM     20  O   UNL     1       6.159   4.252   2.142  0.00  0.00    -0.270 OA
ATOM     21  C   UNL     1       7.528   3.700   4.033  0.00  0.00    +0.049 A 
ATOM     22  C   UNL     1       7.508   4.736   4.953  0.00  0.00    +0.014 A 
ATOM     23  C   UNL     1       8.235   4.628   6.128  0.00  0.00    +0.001 A 
ATOM     24  C   UNL     1       8.980   3.493   6.388  0.00  0.00    +0.001 A 
ATOM     25  C   UNL     1       9.011   2.448   5.477  0.00  0.00    +0.014 A 
ATOM     26  C   UNL     1       8.289   2.543   4.298  0.00  0.00    +0.049 A 
ATOM     27  C   UNL     1       8.088   1.652   3.136  0.00  0.00    +0.254 C 
ATOM     28  O   UNL     1       8.579   0.550   2.994  0.00  0.00    -0.270 OA
ENDBRANCH  17  18
ENDBRANCH  16  17
ENDBRANCH   1  16
TORSDOF 5
