REMARK  Name = ZINC59854059
REMARK  9 active torsions:
REMARK  status: ('A' for Active; 'I' for Inactive)
REMARK    1  A    between atoms: C_1  and  C_2
REMARK    2  A    between atoms: C_2  and  C_3
REMARK    3  A    between atoms: C_3  and  N_4
REMARK    4  A    between atoms: C_5  and  C_7
REMARK    5  A    between atoms: C_7  and  N_8
REMARK    6  A    between atoms: N_16  and  C_17
REMARK    7  A    between atoms: C_17  and  C_19
REMARK    8  A    between atoms: C_17  and  C_20
REMARK    9  A    between atoms: C_20  and  C_21
REMARK                            x       y       z     vdW  Elec       q    Type
REMARK                         _______ _______ _______ _____ _____    ______ ____
ROOT
ATOM      1  N   UNL     1       2.032  -4.604  -3.496  0.00  0.00    -0.291 NA
ATOM      2  C   UNL     1       3.452  -4.228  -3.478  0.00  0.00    +0.104 C 
ATOM      3  C   UNL     1       4.087  -4.577  -4.829  0.00  0.00    +0.124 C 
ATOM      4  N   UNL     1       3.823  -5.996  -5.116  0.00  0.00    -0.283 N 
ATOM      5  C   UNL     1       2.437  -6.479  -5.019  0.00  0.00    +0.124 C 
ATOM      6  C   UNL     1       1.867  -6.055  -3.662  0.00  0.00    +0.104 C 
ATOM      7  C   UNL     1       4.824  -6.830  -5.459  0.00  0.00    +0.302 C 
ATOM      8  O   UNL     1       5.948  -6.396  -5.623  0.00  0.00    -0.253 OA
ATOM      9  N   UNL     1       4.580  -8.145  -5.621  0.00  0.00    -0.296 N 
ATOM     10  H   UNL     1       3.671  -8.481  -5.563  0.00  0.00    +0.151 HD
ENDROOT
BRANCH   9  11
ATOM     11  C   UNL     1       5.686  -9.069  -5.884  0.00  0.00    +0.076 C 
ATOM     12  C   UNL     1       6.317  -9.499  -4.558  0.00  0.00    +0.028 C 
BRANCH  11  13
ATOM     13  C   UNL     1       5.157 -10.302  -6.620  0.00  0.00    +0.063 C 
BRANCH  13  14
ATOM     14  C   UNL     1       4.646  -9.895  -7.978  0.00  0.00    +0.025 A 
ATOM     15  C   UNL     1       3.324  -9.514  -8.135  0.00  0.00    +0.129 A 
ATOM     16  C   UNL     1       2.856  -9.140  -9.384  0.00  0.00    +0.039 A 
ATOM     17  C   UNL     1       3.707  -9.147 -10.473  0.00  0.00    +0.006 A 
ATOM     18  C   UNL     1       5.027  -9.528 -10.317  0.00  0.00    +0.039 A 
ATOM     19  C   UNL     1       5.499  -9.896  -9.068  0.00  0.00    +0.129 A 
ATOM     20  F   UNL     1       6.790 -10.262  -8.915  0.00  0.00    -0.205 F 
ATOM     21  F   UNL     1       2.492  -9.507  -7.071  0.00  0.00    -0.205 F 
ENDBRANCH  13  14
ENDBRANCH  11  13
ENDBRANCH   9  11
BRANCH   1  22
ATOM     22  C   UNL     1       1.347  -4.131  -2.286  0.00  0.00    +0.180 C 
BRANCH  22  24
ATOM     23  N   UNL     1       0.744  -1.964  -1.257  0.00  0.00    -0.314 N 
ATOM     24  C   UNL     1       1.326  -2.624  -2.278  0.00  0.00    +0.227 C 
ATOM     25  O   UNL     1       1.832  -2.006  -3.190  0.00  0.00    -0.274 OA
ATOM     26  H   UNL     1       0.339  -2.459  -0.527  0.00  0.00    +0.149 HD
BRANCH  23  27
ATOM     27  C   UNL     1       0.724  -0.499  -1.248  0.00  0.00    +0.104 C 
BRANCH  27  29
ATOM     28  C   UNL     1      -0.011   1.524   0.020  0.00  0.00    +0.005 C 
ATOM     29  C   UNL     1       0.010  -0.006   0.012  0.00  0.00    +0.015 C 
ENDBRANCH  27  29
ENDBRANCH  23  27
ENDBRANCH  22  24
ENDBRANCH   1  22
TORSDOF 7
