REMARK  Name = ZINC21337457
REMARK  4 active torsions:
REMARK  status: ('A' for Active; 'I' for Inactive)
REMARK    1  A    between atoms: C_5  and  N_7
REMARK    2  A    between atoms: C_8  and  N_9
REMARK    3  A    between atoms: N_9  and  C_10
REMARK    4  A    between atoms: C_16  and  N_25
REMARK                            x       y       z     vdW  Elec       q    Type
REMARK                         _______ _______ _______ _____ _____    ______ ____
ROOT
ATOM      1  N   UNL     1       0.622   1.652   0.183  0.00  0.00    -0.252 N 
ATOM      2  C   UNL     1       1.651   1.080  -0.518  0.00  0.00    +0.098 C 
ATOM      3  C   UNL     1       1.386  -0.405  -0.650  0.00  0.00    +0.054 C 
ATOM      4  C   UNL     1       0.048  -0.599   0.082  0.00  0.00    +0.057 C 
ATOM      5  C   UNL     1      -0.325   0.781   0.560  0.00  0.00    +0.073 C 
ATOM      6  S   UNL     1      -1.646   1.150   1.383  0.00  0.00    -0.038 S 
ATOM      7  C   UNL     1      -1.006  -1.135  -0.882  0.00  0.00    +0.019 C 
ATOM      8  C   UNL     1      -0.587  -2.519  -1.382  0.00  0.00    +0.001 C 
ATOM      9  C   UNL     1      -0.435  -3.466  -0.190  0.00  0.00    +0.000 C 
ATOM     10  C   UNL     1       0.641  -2.929   0.756  0.00  0.00    +0.001 C 
ATOM     11  C   UNL     1       0.227  -1.545   1.264  0.00  0.00    +0.019 C 
ENDROOT
BRANCH   1  16
ATOM     12  C   UNL     1       1.066   4.853   1.941  0.00  0.00    +0.002 A 
ATOM     13  C   UNL     1       0.449   5.723   1.062  0.00  0.00    +0.002 A 
ATOM     14  C   UNL     1      -0.112   5.247  -0.108  0.00  0.00    +0.022 A 
ATOM     15  C   UNL     1      -0.056   3.897  -0.403  0.00  0.00    +0.063 A 
ATOM     16  C   UNL     1       0.564   3.021   0.478  0.00  0.00    +0.058 A 
ATOM     17  C   UNL     1       1.121   3.503   1.655  0.00  0.00    +0.025 A 
ATOM     18 CL   UNL     1      -0.761   3.299  -1.873  0.00  0.00    -0.082 Cl
ENDBRANCH   1  16
BRANCH   3  19
ATOM     19  N   UNL     1       1.261  -0.784  -2.064  0.00  0.00    -0.326 N 
ATOM     20  C   UNL     1       2.495  -1.420  -2.549  0.00  0.00    +0.133 C 
ATOM     21  C   UNL     1       2.301  -1.852  -4.005  0.00  0.00    +0.178 C 
ATOM     22  O   UNL     1       1.934  -0.714  -4.790  0.00  0.00    -0.377 OA
ATOM     23  C   UNL     1       0.737  -0.070  -4.345  0.00  0.00    +0.178 C 
ATOM     24  C   UNL     1       0.914   0.380  -2.893  0.00  0.00    +0.133 C 
ENDBRANCH   3  19
BRANCH   2  25
ATOM     25  N   UNL     1       2.680   1.705  -0.989  0.00  0.00    -0.390 NA
ATOM     26  H   UNL     1       2.401   2.223  -1.918  0.00  0.00    +0.125 HD
ATOM     27  H   UNL     1       3.031   2.441  -0.250  0.00  0.00    +0.125 HD
BRANCH  25  28
ATOM     28  C   UNL     1       3.889   0.960  -1.348  0.00  0.00    +0.054 C 
ATOM     29  C   UNL     1       5.058   1.439  -0.486  0.00  0.00    +0.021 C 
ATOM     30  C   UNL     1       6.321   0.660  -0.862  0.00  0.00    +0.002 C 
ATOM     31  C   UNL     1       6.645   0.896  -2.338  0.00  0.00    +0.000 C 
ATOM     32  C   UNL     1       5.475   0.417  -3.200  0.00  0.00    +0.002 C 
ATOM     33  C   UNL     1       4.213   1.196  -2.825  0.00  0.00    +0.021 C 
ENDBRANCH  25  28
ENDBRANCH   2  25
TORSDOF 4
