REMARK  Name = ZINC39979151
REMARK  8 active torsions:
REMARK  status: ('A' for Active; 'I' for Inactive)
REMARK    1  A    between atoms: C_1  and  C_2
REMARK    2  A    between atoms: C_14  and  C_19
REMARK    3  A    between atoms: C_16  and  C_18
REMARK    4  A    between atoms: C_19  and  C_20
REMARK    5  A    between atoms: C_26  and  C_29
REMARK    6  A    between atoms: C_29  and  C_30
REMARK    7  A    between atoms: C_30  and  O_32
REMARK    8  A    between atoms: O_32  and  C_33
REMARK                            x       y       z     vdW  Elec       q    Type
REMARK                         _______ _______ _______ _____ _____    ______ ____
ROOT
ATOM      1  C   UNL     1      -0.018   1.503   0.010  0.00  0.00    +0.047 C 
ATOM      2  C   UNL     1       0.002  -0.004   0.002  0.00  0.00    -0.005 A 
ATOM      3  C   UNL     1       0.009  -0.802  -1.074  0.00  0.00    +0.199 A 
ATOM      4  O   UNL     1       0.028  -2.092  -0.694  0.00  0.00    -0.463 OA
ATOM      5  C   UNL     1       0.033  -2.197   0.651  0.00  0.00    +0.139 A 
ATOM      6  C   UNL     1       0.025  -0.892   1.171  0.00  0.00    +0.024 A 
ATOM      7  C   UNL     1       0.039  -0.690   2.549  0.00  0.00    +0.019 A 
ATOM      8  C   UNL     1       0.059  -1.762   3.403  0.00  0.00    -0.001 A 
ATOM      9  C   UNL     1       0.064  -3.056   2.897  0.00  0.00    +0.139 A 
ATOM     10  C   UNL     1       0.048  -3.273   1.526  0.00  0.00    +0.093 A 
ATOM     11  O   UNL     1       0.063  -4.144   3.715  0.00  0.00    -0.425 OA
ATOM     12  C   UNL     1       0.281  -3.937   5.029  0.00  0.00    +0.316 C 
ATOM     13  O   UNL     1       0.978  -4.678   5.680  0.00  0.00    -0.250 OA
ATOM     14  C   UNL     1      -0.391  -2.729   5.652  0.00  0.00    +0.114 C 
ATOM     15  C   UNL     1       0.084  -1.490   4.887  0.00  0.00    +0.034 C 
ATOM     16  C   UNL     1      -0.841  -0.312   5.202  0.00  0.00    +0.013 C 
ENDROOT
BRANCH  14  17
ATOM     17  C   UNL     1      -1.911  -2.862   5.535  0.00  0.00    +0.111 C 
BRANCH  17  18
ATOM     18  C   UNL     1      -2.376  -4.038   6.354  0.00  0.00    +0.219 C 
ATOM     19  O   UNL     1      -1.571  -4.704   6.971  0.00  0.00    -0.275 OA
ATOM     20  N   UNL     1      -3.686  -4.350   6.402  0.00  0.00    -0.265 N 
ATOM     21  C   UNL     1      -4.115  -5.435   7.158  0.00  0.00    +0.165 A 
ATOM     22  N   UNL     1      -5.341  -5.887   7.316  0.00  0.00    -0.229 NA
ATOM     23  H   UNL     1      -4.330  -3.817   5.909  0.00  0.00    +0.157 HD
ATOM     24  C   UNL     1      -5.587  -6.939   8.075  0.00  0.00    +0.061 A 
ATOM     25  C   UNL     1      -4.524  -7.526   8.678  0.00  0.00    +0.072 A 
ATOM     26  S   UNL     1      -3.193  -6.493   8.086  0.00  0.00    -0.060 S 
BRANCH  24  27
ATOM     27  C   UNL     1      -6.987  -7.463   8.263  0.00  0.00    +0.176 C 
BRANCH  27  28
ATOM     28  C   UNL     1      -7.877  -6.353   8.760  0.00  0.00    +0.313 C 
ATOM     29  O   UNL     1      -7.420  -5.250   8.944  0.00  0.00    -0.250 OA
BRANCH  28  30
ATOM     30  O   UNL     1      -9.176  -6.591   9.000  0.00  0.00    -0.468 OA
ATOM     31  C   UNL     1      -9.960  -5.493   9.470  0.00  0.00    +0.280 C 
ENDBRANCH  28  30
ENDBRANCH  27  28
ENDBRANCH  24  27
ENDBRANCH  17  18
ENDBRANCH  14  17
TORSDOF 5
