REMARK  Name = ZINC59890974
REMARK  14 active torsions:
REMARK  status: ('A' for Active; 'I' for Inactive)
REMARK    1  A    between atoms: C_1  and  C_2
REMARK    2  A    between atoms: C_7  and  C_9
REMARK    3  A    between atoms: C_7  and  N_31
REMARK    4  A    between atoms: C_9  and  N_10
REMARK    5  A    between atoms: C_11  and  C_13
REMARK    6  A    between atoms: C_13  and  C_14
REMARK    7  A    between atoms: C_14  and  C_15
REMARK    8  A    between atoms: C_19  and  S_25
REMARK    9  A    between atoms: N_23  and  C_24
REMARK   10  A    between atoms: S_25  and  N_28
REMARK   11  A    between atoms: N_28  and  C_29
REMARK   12  A    between atoms: N_28  and  C_30
REMARK   13  A    between atoms: N_31  and  C_32
REMARK   14  A    between atoms: N_31  and  C_33
REMARK                            x       y       z     vdW  Elec       q    Type
REMARK                         _______ _______ _______ _____ _____    ______ ____
ROOT
ATOM      1  C   UNL     1       1.377  -5.841   2.938  0.00  0.00    +0.103 C 
ENDROOT
BRANCH   1   3
ATOM      2  N   UNL     1       1.174  -3.642   1.823  0.00  0.00    -0.317 N 
ATOM      3  C   UNL     1       1.458  -4.336   2.943  0.00  0.00    +0.213 C 
ATOM      4  O   UNL     1       1.778  -3.749   3.954  0.00  0.00    -0.276 OA
ATOM      5  H   UNL     1       0.917  -4.112   1.013  0.00  0.00    +0.149 HD
BRANCH   2   6
ATOM      6  C   UNL     1       1.252  -2.179   1.827  0.00  0.00    +0.092 C 
BRANCH   6  12
ATOM      7  C   UNL     1       0.738   1.931  -0.968  0.00  0.00    +0.007 C 
ATOM      8  C   UNL     1       0.792   0.402  -0.993  0.00  0.00    -0.015 C 
ATOM      9  C   UNL     1      -0.521  -0.145  -1.556  0.00  0.00    +0.003 C 
ATOM     10  C   UNL     1      -0.468  -1.674  -1.580  0.00  0.00    -0.001 C 
ATOM     11  C   UNL     1      -0.264  -2.201  -0.158  0.00  0.00    -0.010 C 
ATOM     12  C   UNL     1       1.049  -1.653   0.405  0.00  0.00    -0.050 C 
ATOM     13  C   UNL     1       0.995  -0.124   0.430  0.00  0.00    -0.007 C 
BRANCH  12  14
ATOM     14  N   UNL     1       2.166  -2.091  -0.443  0.00  0.00    +0.381 N 
ATOM     15  C   UNL     1       3.437  -1.690   0.175  0.00  0.00    -0.096 C 
ATOM     16  C   UNL     1       2.129  -3.552  -0.586  0.00  0.00    -0.096 C 
ATOM     17  H   UNL     1       2.085  -1.662  -1.353  0.00  0.00    -0.082 HD
ENDBRANCH  12  14
ENDBRANCH   6  12
ENDBRANCH   2   6
ENDBRANCH   1   3
BRANCH   1  18
ATOM     18  C   UNL     1       1.744  -6.376   4.323  0.00  0.00    +0.083 C 
BRANCH  18  19
ATOM     19  C   UNL     1       1.663  -7.881   4.319  0.00  0.00    +0.111 A 
ATOM     20  N   UNL     1       0.598  -8.570   4.604  0.00  0.00    -0.232 NA
ATOM     21  C   UNL     1       0.872  -9.897   4.503  0.00  0.00    +0.091 A 
ATOM     22  C   UNL     1       0.114 -11.055   4.694  0.00  0.00    +0.058 A 
ATOM     23  C   UNL     1       0.687 -12.281   4.512  0.00  0.00    +0.108 A 
ATOM     24  C   UNL     1       2.019 -12.392   4.138  0.00  0.00    +0.030 A 
ATOM     25  C   UNL     1       2.786 -11.263   3.944  0.00  0.00    +0.030 A 
ATOM     26  C   UNL     1       2.221 -10.008   4.124  0.00  0.00    +0.069 A 
ATOM     27  N   UNL     1       2.692  -8.715   4.010  0.00  0.00    -0.331 N 
ATOM     28  C   UNL     1       4.050  -8.317   3.630  0.00  0.00    +0.150 C 
BRANCH  23  29
ATOM     29  S   UNL     1      -0.274 -13.738   4.755  0.00  0.00    +0.060 S 
ATOM     30  O   UNL     1       0.641 -14.784   5.053  0.00  0.00    -0.153 OA
ATOM     31  O   UNL     1      -1.336 -13.383   5.630  0.00  0.00    -0.153 OA
BRANCH  29  32
ATOM     32  N   UNL     1      -0.967 -14.115   3.299  0.00  0.00    -0.183 NA
ATOM     33  C   UNL     1      -0.267 -14.996   2.361  0.00  0.00    +0.131 C 
ATOM     34  C   UNL     1      -2.280 -13.569   2.949  0.00  0.00    +0.131 C 
ENDBRANCH  29  32
ENDBRANCH  23  29
ENDBRANCH  18  19
ENDBRANCH   1  18
TORSDOF 8
