REMARK  Name = ZINC02106571
REMARK  7 active torsions:
REMARK  status: ('A' for Active; 'I' for Inactive)
REMARK    1  A    between atoms: C_1  and  O_2
REMARK    2  A    between atoms: O_2  and  C_3
REMARK    3  A    between atoms: C_3  and  C_5
REMARK    4  A    between atoms: C_6  and  N_20
REMARK    5  A    between atoms: C_8  and  N_19
REMARK    6  A    between atoms: C_9  and  C_17
REMARK    7  A    between atoms: C_10  and  C_12
REMARK                            x       y       z     vdW  Elec       q    Type
REMARK                         _______ _______ _______ _____ _____    ______ ____
ROOT
ATOM      1  C   UNL     1      -1.936  -0.809  -1.246  0.00  0.00    +0.077 C 
ATOM      2  C   UNL     1      -2.975   0.048  -1.414  0.00  0.00    +0.076 C 
ATOM      3  S   UNL     1      -3.679   0.967  -0.096  0.00  0.00    -0.058 S 
ATOM      4  C   UNL     1      -3.129   0.041   1.289  0.00  0.00    +0.079 C 
ATOM      5  C   UNL     1      -2.087  -0.806   1.242  0.00  0.00    +0.069 C 
ATOM      6  C   UNL     1      -1.245  -1.083   0.045  0.00  0.00    +0.108 C 
ENDROOT
BRANCH   6   7
ATOM      7  C   UNL     1      -0.005  -0.230   0.120  0.00  0.00    +0.003 A 
ATOM      8  C   UNL     1       1.294  -0.614   0.162  0.00  0.00    +0.012 A 
ATOM      9  C   UNL     1       2.277   0.355   0.230  0.00  0.00    +0.008 A 
ATOM     10  C   UNL     1       1.913   1.660   0.252  0.00  0.00    +0.045 A 
ATOM     11  S   UNL     1       0.133   1.549   0.175  0.00  0.00    -0.101 S 
ENDBRANCH   6   7
BRANCH   4  12
ATOM     12  N   UNL     1      -3.796   0.190   2.481  0.00  0.00    -0.352 N 
ATOM     13  H   UNL     1      -3.474  -0.378   3.366  0.00  0.00    +0.143 HD
ATOM     14  H   UNL     1      -4.653   0.876   2.550  0.00  0.00    +0.143 HD
ENDBRANCH   4  12
BRANCH   2  15
ATOM     15  N   UNL     1      -3.500   0.201  -2.672  0.00  0.00    -0.352 N 
ATOM     16  H   UNL     1      -4.342   0.889  -2.837  0.00  0.00    +0.143 HD
ATOM     17  H   UNL     1      -3.078  -0.363  -3.517  0.00  0.00    +0.143 HD
ENDBRANCH   2  15
BRANCH   1  18
ATOM     18  C   UNL     1      -1.474  -1.490  -2.380  0.00  0.00    +0.338 C 
ATOM     19  O   UNL     1      -1.805  -2.647  -2.572  0.00  0.00    -0.245 OA
BRANCH  18  21
ATOM     20  C   UNL     1      -0.230  -1.620  -4.393  0.00  0.00    +0.280 C 
ATOM     21  O   UNL     1      -0.662  -0.865  -3.260  0.00  0.00    -0.465 OA
ENDBRANCH  18  21
ENDBRANCH   1  18
BRANCH   5  22
ATOM     22  C   UNL     1      -1.758  -1.504   2.449  0.00  0.00    +0.098 C 
ATOM     23  N   UNL     1      -1.497  -2.057   3.406  0.00  0.00    -0.191 NA
ENDBRANCH   5  22
TORSDOF 6
