REMARK  Name = ZINC36586932
REMARK  15 active torsions:
REMARK  status: ('A' for Active; 'I' for Inactive)
REMARK    1  A    between atoms: C_1  and  C_2
REMARK    2  A    between atoms: C_5  and  S_8
REMARK    3  A    between atoms: S_8  and  C_11
REMARK    4  A    between atoms: C_11  and  N_12
REMARK    5  A    between atoms: C_13  and  C_15
REMARK    6  A    between atoms: C_15  and  C_17
REMARK    7  A    between atoms: C_15  and  N_24
REMARK    8  A    between atoms: C_22  and  C_23
REMARK    9  A    between atoms: N_24  and  C_35
REMARK   10  A    between atoms: C_25  and  C_27
REMARK   11  A    between atoms: C_31  and  O_34
REMARK   12  A    between atoms: C_32  and  O_33
REMARK   13  A    between atoms: C_35  and  C_36
REMARK   14  A    between atoms: C_35  and  C_37
REMARK   15  A    between atoms: C_35  and  C_38
REMARK                            x       y       z     vdW  Elec       q    Type
REMARK                         _______ _______ _______ _____ _____    ______ ____
ROOT
ATOM      1  C   UNL     1       2.592  -5.299   2.946  0.00  0.00    +0.193 C 
ENDROOT
BRANCH   1   2
ATOM      2  C   UNL     1       3.527  -4.128   3.109  0.00  0.00    -0.015 A 
ATOM      3  C   UNL     1       4.796  -4.323   3.623  0.00  0.00    +0.006 A 
ATOM      4  C   UNL     1       5.653  -3.249   3.772  0.00  0.00    +0.000 A 
ATOM      5  C   UNL     1       5.242  -1.980   3.408  0.00  0.00    +0.000 A 
ATOM      6  C   UNL     1       3.974  -1.786   2.894  0.00  0.00    +0.004 A 
ATOM      7  C   UNL     1       3.118  -2.861   2.740  0.00  0.00    -0.045 A 
ATOM      8  C   UNL     1       1.737  -2.649   2.175  0.00  0.00    +0.044 C 
ENDBRANCH   1   2
BRANCH   1  10
ATOM      9  N   UNL     1       3.192  -5.169   0.550  0.00  0.00    -0.294 N 
ATOM     10  C   UNL     1       2.808  -5.929   1.595  0.00  0.00    +0.239 C 
ATOM     11  O   UNL     1       2.636  -7.121   1.447  0.00  0.00    -0.273 OA
ATOM     12  H   UNL     1       3.330  -4.216   0.668  0.00  0.00    +0.150 HD
BRANCH   9  13
ATOM     13  C   UNL     1       3.400  -5.782  -0.764  0.00  0.00    +0.278 C 
BRANCH  13  14
ATOM     14  S   UNL     1       1.889  -5.616  -1.755  0.00  0.00    +0.013 S 
ATOM     15  O   UNL     1       0.756  -5.997  -0.987  0.00  0.00    -0.168 OA
ATOM     16  O   UNL     1       2.096  -6.149  -3.056  0.00  0.00    -0.168 OA
BRANCH  14  21
ATOM     17  C   UNL     1       1.237   0.321  -2.613  0.00  0.00    +0.044 C 
ATOM     18  C   UNL     1       1.400  -1.162  -2.399  0.00  0.00    -0.050 A 
ATOM     19  C   UNL     1       2.126  -1.915  -3.303  0.00  0.00    +0.005 A 
ATOM     20  C   UNL     1       2.275  -3.276  -3.106  0.00  0.00    +0.027 A 
ATOM     21  C   UNL     1       1.700  -3.882  -2.005  0.00  0.00    +0.090 A 
ATOM     22  C   UNL     1       0.975  -3.128  -1.101  0.00  0.00    +0.027 A 
ATOM     23  C   UNL     1       0.829  -1.768  -1.295  0.00  0.00    +0.005 A 
ENDBRANCH  14  21
ENDBRANCH  13  14
ENDBRANCH   9  13
ENDBRANCH   1  10
BRANCH   1  24
ATOM     24  N   UNL     1       2.860  -6.287   3.994  0.00  0.00    -0.277 N 
ATOM     25  C   UNL     1       3.715  -7.303   3.760  0.00  0.00    +0.252 C 
ATOM     26  O   UNL     1       3.858  -8.180   4.590  0.00  0.00    -0.270 OA
BRANCH  25  27
ATOM     27  C   UNL     1       4.477  -7.350   2.498  0.00  0.00    +0.082 A 
ATOM     28  C   UNL     1       4.752  -6.170   1.799  0.00  0.00    +0.017 A 
ATOM     29  C   UNL     1       5.464  -6.218   0.621  0.00  0.00    +0.005 A 
ATOM     30  C   UNL     1       5.911  -7.431   0.122  0.00  0.00    +0.049 A 
ATOM     31  C   UNL     1       5.647  -8.607   0.802  0.00  0.00    +0.159 A 
ATOM     32  C   UNL     1       4.933  -8.574   1.997  0.00  0.00    +0.171 A 
BRANCH  32  33
ATOM     33  O   UNL     1       4.677  -9.725   2.670  0.00  0.00    -0.503 OA
ATOM     34  H   UNL     1       3.850 -10.155   2.414  0.00  0.00    +0.292 HD
ENDBRANCH  32  33
BRANCH  31  35
ATOM     35  O   UNL     1       6.089  -9.794   0.306  0.00  0.00    -0.503 OA
ATOM     36  H   UNL     1       6.970 -10.045   0.615  0.00  0.00    +0.292 HD
ENDBRANCH  31  35
ENDBRANCH  25  27
BRANCH  24  37
ATOM     37  C   UNL     1       2.199  -6.171   5.296  0.00  0.00    +0.030 C 
ATOM     38  C   UNL     1       1.226  -4.990   5.271  0.00  0.00    +0.031 C 
ATOM     39  C   UNL     1       1.429  -7.460   5.594  0.00  0.00    +0.031 C 
ATOM     40  C   UNL     1       3.251  -5.943   6.384  0.00  0.00    +0.031 C 
ENDBRANCH  24  37
ENDBRANCH   1  24
TORSDOF 10
