REMARK  Name = ZINC12870663
REMARK  9 active torsions:
REMARK  status: ('A' for Active; 'I' for Inactive)
REMARK    1  A    between atoms: C_1  and  C_2
REMARK    2  A    between atoms: C_2  and  C_3
REMARK    3  A    between atoms: C_2  and  C_4
REMARK    4  A    between atoms: C_2  and  N_5
REMARK    5  A    between atoms: C_6  and  C_8
REMARK    6  A    between atoms: C_8  and  C_10
REMARK    7  A    between atoms: C_8  and  N_16
REMARK    8  A    between atoms: N_16  and  C_17
REMARK    9  A    between atoms: C_27  and  C_29
REMARK                            x       y       z     vdW  Elec       q    Type
REMARK                         _______ _______ _______ _____ _____    ______ ____
ROOT
ATOM      1  N   UNL     1       3.582   3.289  -0.985  0.00  0.00    -0.249 N 
ATOM      2  C   UNL     1       4.648   4.097  -1.154  0.00  0.00    +0.272 C 
ATOM      3  O   UNL     1       4.523   5.155  -1.740  0.00  0.00    -0.268 OA
ENDROOT
BRANCH   1   4
ATOM      4  C   UNL     1       2.359   3.617  -1.571  0.00  0.00    +0.045 A 
ATOM      5  C   UNL     1       1.492   4.479  -0.934  0.00  0.00    +0.024 A 
ATOM      6  C   UNL     1       0.270   4.813  -1.510  0.00  0.00    +0.002 A 
ATOM      7  C   UNL     1      -0.103   4.299  -2.715  0.00  0.00    +0.008 A 
ATOM      8  C   UNL     1       0.752   3.417  -3.397  0.00  0.00    -0.016 A 
ATOM      9  C   UNL     1       2.001   3.075  -2.823  0.00  0.00    +0.004 A 
ATOM     10  C   UNL     1       2.852   2.189  -3.503  0.00  0.00    +0.010 A 
ATOM     11  C   UNL     1       2.471   1.679  -4.707  0.00  0.00    +0.001 A 
ATOM     12  C   UNL     1       1.245   2.019  -5.274  0.00  0.00    +0.001 A 
ATOM     13  C   UNL     1       0.393   2.871  -4.641  0.00  0.00    +0.008 A 
ENDBRANCH   1   4
BRANCH   2  14
ATOM     14  C   UNL     1       5.966   3.698  -0.627  0.00  0.00    +0.157 A 
ATOM     15  C   UNL     1       7.082   4.521  -0.658  0.00  0.00    +0.101 A 
ATOM     16  S   UNL     1       8.267   3.501   0.087  0.00  0.00    +0.029 S 
ATOM     17  N   UNL     1       7.375   2.229   0.365  0.00  0.00    -0.110 NA
ATOM     18  N   UNL     1       6.202   2.516  -0.070  0.00  0.00    -0.136 NA
ENDBRANCH   2  14
BRANCH   1  19
ATOM     19  C   UNL     1       3.708   2.068  -0.186  0.00  0.00    +0.198 C 
BRANCH  19  20
ATOM     20  C   UNL     1       2.428   1.277  -0.273  0.00  0.00    -0.018 A 
ATOM     21  C   UNL     1       1.250   1.813   0.213  0.00  0.00    +0.006 A 
ATOM     22  C   UNL     1       0.076   1.089   0.133  0.00  0.00    +0.000 A 
ATOM     23  C   UNL     1       0.079  -0.173  -0.432  0.00  0.00    +0.000 A 
ATOM     24  C   UNL     1       1.257  -0.710  -0.916  0.00  0.00    +0.000 A 
ATOM     25  C   UNL     1       2.432   0.015  -0.837  0.00  0.00    +0.006 A 
ENDBRANCH  19  20
BRANCH  19  27
ATOM     26  N   UNL     1       4.130   1.463   2.175  0.00  0.00    -0.309 N 
ATOM     27  C   UNL     1       3.977   2.433   1.251  0.00  0.00    +0.239 C 
ATOM     28  O   UNL     1       4.056   3.598   1.576  0.00  0.00    -0.273 OA
ATOM     29  H   UNL     1       4.066   0.531   1.915  0.00  0.00    +0.149 HD
BRANCH  26  31
ATOM     30  C   UNL     1       3.233   2.662   4.109  0.00  0.00    +0.031 C 
ATOM     31  C   UNL     1       4.391   1.818   3.572  0.00  0.00    +0.026 C 
ATOM     32  C   UNL     1       4.522   0.542   4.406  0.00  0.00    +0.031 C 
ATOM     33  C   UNL     1       5.691   2.620   3.660  0.00  0.00    +0.031 C 
ENDBRANCH  26  31
ENDBRANCH  19  27
ENDBRANCH   1  19
TORSDOF 6
