REMARK  Name = ZINC37151525
REMARK  9 active torsions:
REMARK  status: ('A' for Active; 'I' for Inactive)
REMARK    1  A    between atoms: C_1  and  C_2
REMARK    2  A    between atoms: C_2  and  C_3
REMARK    3  A    between atoms: C_3  and  C_5
REMARK    4  A    between atoms: C_3  and  N_13
REMARK    5  A    between atoms: C_10  and  O_11
REMARK    6  A    between atoms: N_13  and  C_14
REMARK    7  A    between atoms: C_14  and  C_16
REMARK    8  A    between atoms: C_14  and  C_17
REMARK    9  A    between atoms: C_21  and  O_23
REMARK                            x       y       z     vdW  Elec       q    Type
REMARK                         _______ _______ _______ _____ _____    ______ ____
ROOT
ATOM      1  N   UNL     1      -0.193  -0.230  -2.565  0.00  0.00    +0.388 N 
ATOM      2  H   UNL     1       0.204  -0.748  -3.336  0.00  0.00    -0.084 HD
ATOM      3  H   UNL     1      -1.161  -0.488  -2.450  0.00  0.00    -0.084 HD
ENDROOT
BRANCH   1   4
ATOM      4  C   UNL     1      -0.099   1.210  -2.842  0.00  0.00    -0.043 C 
ATOM      5  C   UNL     1      -0.824   1.989  -1.744  0.00  0.00    -0.009 C 
BRANCH   4   6
ATOM      6  C   UNL     1      -0.737   1.507  -4.175  0.00  0.00    -0.058 A 
ATOM      7  C   UNL     1      -1.909   0.870  -4.537  0.00  0.00    +0.002 A 
ATOM      8  C   UNL     1      -2.497   1.141  -5.759  0.00  0.00    +0.004 A 
ATOM      9  C   UNL     1      -1.913   2.050  -6.621  0.00  0.00    +0.045 A 
ATOM     10  C   UNL     1      -0.738   2.690  -6.260  0.00  0.00    +0.117 A 
ATOM     11  C   UNL     1      -0.153   2.421  -5.030  0.00  0.00    +0.047 A 
BRANCH  10  12
ATOM     12  O   UNL     1      -0.162   3.584  -7.106  0.00  0.00    -0.507 OA
ATOM     13  H   UNL     1      -0.464   4.495  -6.981  0.00  0.00    +0.292 HD
ENDBRANCH  10  12
ENDBRANCH   4   6
ENDBRANCH   1   4
BRANCH   1  14
ATOM     14  C   UNL     1       0.546  -0.541  -1.335  0.00  0.00    -0.037 C 
BRANCH  14  15
ATOM     15  C   UNL     1       2.017  -0.301  -1.558  0.00  0.00    -0.019 A 
ATOM     16  C   UNL     1       2.524  -0.257  -2.842  0.00  0.00    +0.020 A 
ATOM     17  C   UNL     1       3.874  -0.036  -3.048  0.00  0.00    +0.018 A 
ATOM     18  C   UNL     1       4.720   0.140  -1.967  0.00  0.00    +0.019 A 
ATOM     19  C   UNL     1       4.218   0.097  -0.681  0.00  0.00    +0.047 A 
ATOM     20  C   UNL     1       2.863  -0.119  -0.473  0.00  0.00    +0.119 A 
ATOM     21 BR   UNL     1       4.564   0.024  -4.807  0.00  0.00    -0.050 Br
BRANCH  20  22
ATOM     22  O   UNL     1       2.366  -0.157   0.791  0.00  0.00    -0.507 OA
ATOM     23  H   UNL     1       2.370  -1.039   1.189  0.00  0.00    +0.292 HD
ENDBRANCH  20  22
ENDBRANCH  14  15
BRANCH  14  25
ATOM     24  C   UNL     1      -1.151  -2.220  -0.599  0.00  0.00    +0.002 C 
ATOM     25  C   UNL     1       0.320  -2.007  -0.960  0.00  0.00    -0.014 C 
ENDBRANCH  14  25
ENDBRANCH   1  14
TORSDOF 7
