REMARK  Name = ZINC36508351
REMARK  21 active torsions:
REMARK  status: ('A' for Active; 'I' for Inactive)
REMARK    1  A    between atoms: C_1  and  C_2
REMARK    2  A    between atoms: C_2  and  C_3
REMARK    3  A    between atoms: C_3  and  C_4
REMARK    4  A    between atoms: C_4  and  C_5
REMARK    5  A    between atoms: C_5  and  C_6
REMARK    6  A    between atoms: C_6  and  N_7
REMARK    7  A    between atoms: N_7  and  C_8
REMARK    8  A    between atoms: C_8  and  C_10
REMARK    9  A    between atoms: C_8  and  C_19
REMARK   10  A    between atoms: C_11  and  O_18
REMARK   11  A    between atoms: C_13  and  O_17
REMARK   12  A    between atoms: C_15  and  O_16
REMARK   13  A    between atoms: N_21  and  C_22
REMARK   14  A    between atoms: C_22  and  C_23
REMARK   15  A    between atoms: C_22  and  C_24
REMARK   16  A    between atoms: C_22  and  C_25
REMARK   17  A    between atoms: C_25  and  C_26
REMARK   18  A    between atoms: C_26  and  C_27
REMARK   19  A    between atoms: C_26  and  C_28
REMARK   20  A    between atoms: C_26  and  C_29
REMARK   21  A    between atoms: C_30  and  C_32
REMARK                            x       y       z     vdW  Elec       q    Type
REMARK                         _______ _______ _______ _____ _____    ______ ____
ROOT
ATOM      1  C   UNL     1      -5.168  -4.313  -0.399  0.00  0.00    +0.199 C 
ENDROOT
BRANCH   1   2
ATOM      2  C   UNL     1      -5.219  -5.689   0.214  0.00  0.00    +0.065 A 
ATOM      3  C   UNL     1      -5.831  -6.730  -0.467  0.00  0.00    +0.129 A 
ATOM      4  C   UNL     1      -5.877  -7.996   0.098  0.00  0.00    +0.091 A 
ATOM      5  C   UNL     1      -5.311  -8.220   1.344  0.00  0.00    +0.124 A 
ATOM      6  C   UNL     1      -4.698  -7.179   2.024  0.00  0.00    +0.091 A 
ATOM      7  C   UNL     1      -4.648  -5.915   1.458  0.00  0.00    +0.129 A 
BRANCH   7   8
ATOM      8  O   UNL     1      -4.043  -4.895   2.123  0.00  0.00    -0.506 OA
ATOM      9  H   UNL     1      -4.600  -4.479   2.795  0.00  0.00    +0.292 HD
ENDBRANCH   7   8
BRANCH   5  10
ATOM     10  O   UNL     1      -5.357  -9.460   1.897  0.00  0.00    -0.507 OA
ATOM     11  H   UNL     1      -4.601 -10.020   1.672  0.00  0.00    +0.292 HD
ENDBRANCH   5  10
BRANCH   3  12
ATOM     12  O   UNL     1      -6.386  -6.510  -1.688  0.00  0.00    -0.506 OA
ATOM     13  H   UNL     1      -5.802  -6.720  -2.429  0.00  0.00    +0.292 HD
ENDBRANCH   3  12
ENDBRANCH   1   2
BRANCH   1  14
ATOM     14  C   UNL     1      -6.572  -3.806  -0.612  0.00  0.00    +0.239 C 
ATOM     15  O   UNL     1      -7.048  -3.000   0.159  0.00  0.00    -0.273 OA
ATOM     16  N   UNL     1      -7.297  -4.249  -1.658  0.00  0.00    -0.308 N 
ATOM     17  H   UNL     1      -6.906  -4.873  -2.289  0.00  0.00    +0.149 HD
BRANCH  16  18
ATOM     18  C   UNL     1      -8.676  -3.788  -1.841  0.00  0.00    +0.030 C 
ATOM     19  C   UNL     1      -9.555  -4.355  -0.724  0.00  0.00    +0.031 C 
ATOM     20  C   UNL     1      -8.713  -2.260  -1.793  0.00  0.00    +0.031 C 
BRANCH  18  21
ATOM     21  C   UNL     1      -9.198  -4.269  -3.196  0.00  0.00    +0.031 C 
BRANCH  21  22
ATOM     22  C   UNL     1      -8.157  -3.977  -4.277  0.00  0.00    -0.036 C 
ATOM     23  C   UNL     1      -7.008  -4.981  -4.163  0.00  0.00    +0.010 C 
ATOM     24  C   UNL     1      -8.806  -4.100  -5.657  0.00  0.00    +0.010 C 
ATOM     25  C   UNL     1      -7.615  -2.558  -4.093  0.00  0.00    +0.010 C 
ENDBRANCH  21  22
ENDBRANCH  18  21
ENDBRANCH  16  18
ENDBRANCH   1  14
BRANCH   1  26
ATOM     26  N   UNL     1      -4.452  -3.404   0.498  0.00  0.00    -0.285 N 
ATOM     27  C   UNL     1      -4.977  -3.088   1.698  0.00  0.00    +0.220 C 
ATOM     28  O   UNL     1      -6.017  -3.598   2.058  0.00  0.00    -0.275 OA
BRANCH  27  29
ATOM     29  C   UNL     1      -4.273  -2.102   2.593  0.00  0.00    +0.075 C 
ATOM     30  C   UNL     1      -3.011  -2.747   3.170  0.00  0.00    +0.013 C 
ATOM     31  C   UNL     1      -2.296  -1.745   4.079  0.00  0.00    +0.001 C 
ATOM     32  C   UNL     1      -3.228  -1.337   5.222  0.00  0.00    +0.000 C 
ATOM     33  C   UNL     1      -4.489  -0.692   4.645  0.00  0.00    +0.001 C 
ATOM     34  C   UNL     1      -5.205  -1.694   3.736  0.00  0.00    +0.013 C 
ENDBRANCH  27  29
BRANCH  26  35
ATOM     35  C   UNL     1      -3.163  -2.838   0.091  0.00  0.00    +0.109 C 
BRANCH  35  36
ATOM     36  C   UNL     1      -3.401  -1.601  -0.776  0.00  0.00    +0.019 C 
BRANCH  36  37
ATOM     37  C   UNL     1      -2.055  -1.010  -1.202  0.00  0.00    +0.002 C 
BRANCH  37  38
ATOM     38  C   UNL     1      -2.293   0.228  -2.069  0.00  0.00    -0.000 C 
BRANCH  38  40
ATOM     39  C   UNL     1      -1.185   2.057  -3.362  0.00  0.00    +0.004 C 
ATOM     40  C   UNL     1      -0.947   0.819  -2.494  0.00  0.00    -0.003 C 
ENDBRANCH  38  40
ENDBRANCH  37  38
ENDBRANCH  36  37
ENDBRANCH  35  36
ENDBRANCH  26  35
ENDBRANCH   1  26
TORSDOF 15
