REMARK  Name = ZINC12814979
REMARK  7 active torsions:
REMARK  status: ('A' for Active; 'I' for Inactive)
REMARK    1  A    between atoms: C_3  and  C_6
REMARK    2  A    between atoms: C_6  and  C_8
REMARK    3  A    between atoms: C_6  and  N_53
REMARK    4  A    between atoms: C_8  and  N_9
REMARK    5  A    between atoms: C_10  and  C_12
REMARK    6  A    between atoms: C_12  and  N_13
REMARK    7  A    between atoms: C_20  and  C_23
REMARK                            x       y       z     vdW  Elec       q    Type
REMARK                         _______ _______ _______ _____ _____    ______ ____
ROOT
ATOM      1  N   UNL     1      -5.323  -1.371   1.703  0.00  0.00    -0.315 N 
ATOM      2  C   UNL     1      -4.155  -0.755   1.428  0.00  0.00    +0.233 C 
ATOM      3  O   UNL     1      -3.485  -0.297   2.329  0.00  0.00    -0.274 OA
ATOM      4  H   UNL     1      -5.859  -1.738   0.982  0.00  0.00    +0.149 HD
ENDROOT
BRANCH   1   5
ATOM      5  C   UNL     1      -5.782  -1.486   3.089  0.00  0.00    +0.096 C 
BRANCH   5   6
ATOM      6  C   UNL     1      -7.176  -2.115   3.114  0.00  0.00    +0.016 C 
BRANCH   6  11
ATOM      7  C   UNL     1      -7.771  -0.730   5.026  0.00  0.00    -0.078 C 
ATOM      8  C   UNL     1      -8.779  -0.862   6.195  0.00  0.00    -0.020 C 
ATOM      9  C   UNL     1      -9.809  -1.878   5.651  0.00  0.00    -0.020 C 
ATOM     10  C   UNL     1      -9.068  -2.647   4.542  0.00  0.00    -0.078 C 
ATOM     11  N   UNL     1      -7.708  -2.107   4.510  0.00  0.00    +0.387 N 
ATOM     12  H   UNL     1      -7.096  -2.674   5.107  0.00  0.00    -0.081 HD
ENDBRANCH   6  11
BRANCH   6  15
ATOM     13  C   UNL     1      -7.194  -5.342   1.333  0.00  0.00    +0.041 A 
ATOM     14  C   UNL     1      -7.421  -3.947   1.371  0.00  0.00    +0.043 A 
ATOM     15  C   UNL     1      -7.097  -3.533   2.610  0.00  0.00    +0.093 A 
ATOM     16  O   UNL     1      -6.695  -4.599   3.322  0.00  0.00    -0.469 OA
ATOM     17  C   UNL     1      -6.752  -5.699   2.553  0.00  0.00    +0.195 A 
ENDBRANCH   6  15
ENDBRANCH   5   6
ENDBRANCH   1   5
BRANCH   2  18
ATOM     18  C   UNL     1      -3.683  -0.636   0.002  0.00  0.00    +0.221 C 
BRANCH  18  19
ATOM     19  N   UNL     1      -2.399   0.068  -0.030  0.00  0.00    -0.290 N 
ATOM     20  C   UNL     1      -2.385   1.421  -0.146  0.00  0.00    +0.203 A 
ATOM     21  N   UNL     1      -1.260   2.084  -0.174  0.00  0.00    -0.230 NA
ATOM     22  C   UNL     1      -0.090   1.454  -0.097  0.00  0.00    +0.116 A 
ATOM     23  C   UNL     1      -0.007   0.057   0.025  0.00  0.00    +0.080 A 
ATOM     24  C   UNL     1      -1.257  -0.639   0.057  0.00  0.00    +0.263 A 
ATOM     25  O   UNL     1      -1.287  -1.853   0.161  0.00  0.00    -0.267 OA
ATOM     26  C   UNL     1       1.349  -0.477   0.103  0.00  0.00    +0.010 A 
ATOM     27  C   UNL     1       2.393   0.388   0.052  0.00  0.00    +0.057 A 
ATOM     28  S   UNL     1       1.604   1.979  -0.103  0.00  0.00    -0.076 S 
BRANCH  26  29
ATOM     29  C   UNL     1       1.580  -1.931   0.233  0.00  0.00    +0.021 A 
ATOM     30  C   UNL     1       2.404  -2.743  -0.499  0.00  0.00    +0.016 A 
ATOM     31  C   UNL     1       2.458  -4.085  -0.188  0.00  0.00    +0.008 A 
ATOM     32  C   UNL     1       1.688  -4.561   0.822  0.00  0.00    +0.046 A 
ATOM     33  S   UNL     1       0.851  -3.087   1.382  0.00  0.00    -0.097 S 
ENDBRANCH  26  29
ENDBRANCH  18  19
ENDBRANCH   2  18
TORSDOF 7
