REMARK  Name = ZINC14611594
REMARK  13 active torsions:
REMARK  status: ('A' for Active; 'I' for Inactive)
REMARK    1  A    between atoms: C_1  and  C_2
REMARK    2  A    between atoms: N_6  and  O_30
REMARK    3  A    between atoms: C_8  and  C_9
REMARK    4  A    between atoms: C_12  and  O_15
REMARK    5  A    between atoms: O_15  and  C_16
REMARK    6  A    between atoms: C_16  and  C_17
REMARK    7  A    between atoms: C_18  and  C_19
REMARK    8  A    between atoms: C_18  and  C_20
REMARK    9  A    between atoms: C_20  and  C_21
REMARK   10  A    between atoms: C_21  and  C_22
REMARK   11  A    between atoms: C_23  and  C_24
REMARK   12  A    between atoms: C_23  and  C_25
REMARK   13  A    between atoms: N_28  and  O_29
REMARK                            x       y       z     vdW  Elec       q    Type
REMARK                         _______ _______ _______ _____ _____    ______ ____
ROOT
ATOM      1  C   UNL     1       1.003   2.059  -5.027  0.00  0.00    -0.023 A 
ATOM      2  C   UNL     1      -0.280   2.505  -4.686  0.00  0.00    +0.011 A 
ATOM      3  C   UNL     1      -0.665   2.540  -3.365  0.00  0.00    +0.046 A 
ATOM      4  C   UNL     1       0.217   2.135  -2.370  0.00  0.00    +0.121 A 
ATOM      5  C   UNL     1       1.493   1.697  -2.702  0.00  0.00    +0.046 A 
ATOM      6  C   UNL     1       1.887   1.652  -4.021  0.00  0.00    +0.011 A 
ENDROOT
BRANCH   1  13
ATOM      7  C   UNL     1       5.439  -0.606  -7.062  0.00  0.00    +0.040 C 
ATOM      8  C   UNL     1       4.068  -0.983  -7.627  0.00  0.00    +0.191 C 
ATOM      9  C   UNL     1       3.108  -1.160  -6.491  0.00  0.00    +0.265 C 
ATOM     10  O   UNL     1       3.154  -2.186  -5.846  0.00  0.00    -0.271 OA
ATOM     11  N   UNL     1       2.199  -0.231  -6.157  0.00  0.00    -0.145 N 
ATOM     12  C   UNL     1       2.093   0.946  -6.913  0.00  0.00    +0.128 C 
ATOM     13  C   UNL     1       1.420   2.020  -6.436  0.00  0.00    +0.039 C 
ATOM     14  C   UNL     1       2.727   0.981  -8.240  0.00  0.00    +0.286 C 
ATOM     15  O   UNL     1       2.427   1.848  -9.040  0.00  0.00    -0.266 OA
ATOM     16  N   UNL     1       3.644   0.051  -8.559  0.00  0.00    -0.167 N 
BRANCH  16  17
ATOM     17  O   UNL     1       4.215   0.075  -9.855  0.00  0.00    -0.291 OA
ATOM     18  H   UNL     1       3.885   0.789 -10.417  0.00  0.00    +0.242 HD
ENDBRANCH  16  17
BRANCH  11  19
ATOM     19  O   UNL     1       1.348  -0.438  -5.044  0.00  0.00    -0.288 OA
ATOM     20  H   UNL     1       1.445  -1.308  -4.632  0.00  0.00    +0.242 HD
ENDBRANCH  11  19
ENDBRANCH   1  13
BRANCH   4  21
ATOM     21  O   UNL     1      -0.169   2.171  -1.069  0.00  0.00    -0.488 OA
BRANCH  21  22
ATOM     22  C   UNL     1       0.787   1.741  -0.097  0.00  0.00    +0.256 C 
BRANCH  22  23
ATOM     23  C   UNL     1       0.186   1.851   1.281  0.00  0.00    +0.012 C 
ATOM     24  C   UNL     1       0.886   2.367   2.261  0.00  0.00    -0.073 C 
ATOM     25  C   UNL     1       2.330   2.739   2.042  0.00  0.00    +0.039 C 
BRANCH  24  26
ATOM     26  C   UNL     1       0.247   2.589   3.608  0.00  0.00    +0.034 C 
BRANCH  26  27
ATOM     27  C   UNL     1       0.540   1.392   4.515  0.00  0.00    +0.031 C 
BRANCH  27  28
ATOM     28  C   UNL     1      -0.099   1.614   5.861  0.00  0.00    -0.028 C 
ATOM     29  C   UNL     1      -0.967   0.749   6.324  0.00  0.00    -0.080 C 
ATOM     30  C   UNL     1      -1.241  -0.524   5.566  0.00  0.00    +0.038 C 
ATOM     31  C   UNL     1      -1.692   1.027   7.616  0.00  0.00    +0.038 C 
ENDBRANCH  27  28
ENDBRANCH  26  27
ENDBRANCH  24  26
ENDBRANCH  22  23
ENDBRANCH  21  22
ENDBRANCH   4  21
TORSDOF 9
