REMARK  Name = ZINC56727499
REMARK  9 active torsions:
REMARK  status: ('A' for Active; 'I' for Inactive)
REMARK    1  A    between atoms: C_1  and  C_2
REMARK    2  A    between atoms: C_5  and  S_24
REMARK    3  A    between atoms: C_6  and  N_8
REMARK    4  A    between atoms: N_11  and  C_12
REMARK    5  A    between atoms: C_12  and  C_14
REMARK    6  A    between atoms: C_12  and  C_15
REMARK    7  A    between atoms: C_15  and  N_16
REMARK    8  A    between atoms: C_20  and  C_23
REMARK    9  A    between atoms: S_24  and  C_27
REMARK                            x       y       z     vdW  Elec       q    Type
REMARK                         _______ _______ _______ _____ _____    ______ ____
ROOT
ATOM      1  N   UNL     1       0.051  -2.797   2.393  0.00  0.00    -0.268 N 
ATOM      2  C   UNL     1       0.149  -2.135   3.562  0.00  0.00    +0.304 C 
ATOM      3  O   UNL     1       0.133  -0.919   3.575  0.00  0.00    -0.253 OA
ATOM      4  N   UNL     1       0.266  -2.819   4.717  0.00  0.00    -0.298 N 
ATOM      5  H   UNL     1      -0.002  -3.766   2.387  0.00  0.00    +0.156 HD
ATOM      6  H   UNL     1       0.279  -3.789   4.707  0.00  0.00    +0.150 HD
ENDROOT
BRANCH   1  12
ATOM      7  C   UNL     1      -1.306   1.188  -0.147  0.00  0.00    +0.044 C 
ATOM      8  C   UNL     1      -0.625  -0.154  -0.073  0.00  0.00    -0.049 A 
ATOM      9  C   UNL     1      -0.022  -0.687  -1.198  0.00  0.00    +0.005 A 
ATOM     10  C   UNL     1       0.604  -1.918  -1.135  0.00  0.00    +0.029 A 
ATOM     11  C   UNL     1       0.630  -2.620   0.055  0.00  0.00    +0.109 A 
ATOM     12  C   UNL     1       0.026  -2.088   1.187  0.00  0.00    +0.060 A 
ATOM     13  C   UNL     1      -0.597  -0.849   1.120  0.00  0.00    +0.028 A 
BRANCH  11  14
ATOM     14  S   UNL     1       1.428  -4.189   0.135  0.00  0.00    -0.004 S 
ATOM     15  O   UNL     1       0.468  -5.054   0.725  0.00  0.00    -0.170 OA
ATOM     16  O   UNL     1       1.901  -4.423  -1.185  0.00  0.00    -0.170 OA
ATOM     17  C   UNL     1       2.826  -3.944   1.265  0.00  0.00    +0.200 C 
ENDBRANCH  11  14
ENDBRANCH   1  12
BRANCH   4  18
ATOM     18  C   UNL     1       0.373  -2.099   5.988  0.00  0.00    +0.055 C 
ATOM     19  C   UNL     1       1.833  -1.718   6.237  0.00  0.00    +0.026 C 
BRANCH  18  20
ATOM     20  C   UNL     1      -0.122  -2.995   7.126  0.00  0.00    -0.057 C 
BRANCH  20  21
ATOM     21  N   UNL     1      -1.484  -3.458   6.827  0.00  0.00    +0.381 N 
ATOM     22  C   UNL     1      -2.396  -2.308   6.803  0.00  0.00    -0.079 C 
ATOM     23  C   UNL     1      -3.800  -2.774   6.413  0.00  0.00    -0.018 C 
ATOM     24  C   UNL     1      -4.295  -3.798   7.438  0.00  0.00    -0.001 C 
ATOM     25  C   UNL     1      -3.297  -4.958   7.509  0.00  0.00    -0.031 C 
ATOM     26  C   UNL     1      -1.912  -4.411   7.858  0.00  0.00    -0.076 C 
ATOM     27  C   UNL     1      -3.743  -5.950   8.585  0.00  0.00    +0.005 C 
ATOM     28  H   UNL     1      -1.494  -3.911   5.926  0.00  0.00    -0.082 HD
ENDBRANCH  20  21
ENDBRANCH  18  20
ENDBRANCH   4  18
TORSDOF 5
