REMARK  Name = ZINC22011950
REMARK  6 active torsions:
REMARK  status: ('A' for Active; 'I' for Inactive)
REMARK    1  A    between atoms: C_2  and  C_10
REMARK    2  A    between atoms: C_10  and  C_11
REMARK    3  A    between atoms: C_11  and  C_13
REMARK    4  A    between atoms: C_11  and  N_29
REMARK    5  A    between atoms: C_13  and  C_14
REMARK    6  A    between atoms: C_23  and  C_24
REMARK                            x       y       z     vdW  Elec       q    Type
REMARK                         _______ _______ _______ _____ _____    ______ ____
ROOT
ATOM      1  C   UNL     1      -4.259   0.200   1.473  0.00  0.00    +0.080 C 
ENDROOT
BRANCH   1   2
ATOM      2  C   UNL     1      -4.675  -0.061   2.898  0.00  0.00    +0.214 C 
ATOM      3  O   UNL     1      -3.944   0.261   3.811  0.00  0.00    -0.276 OA
ATOM      4  N   UNL     1      -5.858  -0.651   3.158  0.00  0.00    -0.292 N 
ATOM      5  C   UNL     1      -6.282  -0.920   4.540  0.00  0.00    +0.130 C 
ATOM      6  C   UNL     1      -7.549  -0.103   4.843  0.00  0.00    +0.144 C 
ATOM      7  N   UNL     1      -8.485  -0.237   3.728  0.00  0.00    -0.305 N 
ATOM      8  C   UNL     1      -8.159  -0.651   2.477  0.00  0.00    +0.151 A 
ATOM      9  N   UNL     1      -9.241  -0.629   1.763  0.00  0.00    -0.132 NA
ATOM     10  N   UNL     1     -10.228  -0.234   2.492  0.00  0.00    -0.125 NA
ATOM     11  C   UNL     1      -9.809   0.016   3.706  0.00  0.00    +0.238 A 
ATOM     12  C   UNL     1      -6.763  -1.050   2.063  0.00  0.00    +0.184 C 
BRANCH  11  13
ATOM     13  C   UNL     1     -10.648   0.496   4.862  0.00  0.00    +0.452 C 
ATOM     14  F   UNL     1     -12.002   0.319   4.561  0.00  0.00    -0.163 F 
ATOM     15  F   UNL     1     -10.325  -0.237   6.009  0.00  0.00    -0.163 F 
ATOM     16  F   UNL     1     -10.395   1.853   5.090  0.00  0.00    -0.163 F 
ENDBRANCH  11  13
ENDBRANCH   1   2
BRANCH   1  17
ATOM     17  C   UNL     1      -2.886   0.873   1.458  0.00  0.00    -0.062 C 
BRANCH  17  18
ATOM     18  N   UNL     1      -1.879  -0.054   1.993  0.00  0.00    +0.381 N 
ATOM     19  H   UNL     1      -2.143  -0.325   3.026  0.00  0.00    -0.090 HD
ATOM     20  H   UNL     1      -0.892   0.431   1.981  0.00  0.00    -0.090 HD
ATOM     21  H   UNL     1      -1.850  -0.961   1.371  0.00  0.00    -0.090 HD
ENDBRANCH  17  18
BRANCH  17  22
ATOM     22  C   UNL     1      -2.519   1.250   0.021  0.00  0.00    +0.022 C 
BRANCH  22  24
ATOM     23  C   UNL     1      -1.244   3.405   0.031  0.00  0.00    +0.047 A 
ATOM     24  C   UNL     1      -1.224   2.022   0.019  0.00  0.00    -0.011 A 
ATOM     25  C   UNL     1      -0.016   1.347   0.009  0.00  0.00    +0.129 A 
ATOM     26  C   UNL     1       1.173   2.055   0.002  0.00  0.00    +0.080 A 
ATOM     27  C   UNL     1       1.154   3.438   0.009  0.00  0.00    +0.161 A 
ATOM     28  C   UNL     1      -0.057   4.114   0.024  0.00  0.00    +0.159 A 
ATOM     29  F   UNL     1      -0.077   5.465   0.031  0.00  0.00    -0.202 F 
ATOM     30  F   UNL     1       2.314   4.131   0.001  0.00  0.00    -0.202 F 
ATOM     31  F   UNL     1       0.002  -0.004   0.002  0.00  0.00    -0.205 F 
ENDBRANCH  22  24
ENDBRANCH  17  22
ENDBRANCH   1  17
TORSDOF 6
