REMARK  Name = ZINC64188130
REMARK  9 active torsions:
REMARK  status: ('A' for Active; 'I' for Inactive)
REMARK    1  A    between atoms: C_1  and  C_2
REMARK    2  A    between atoms: C_2  and  C_4
REMARK    3  A    between atoms: C_2  and  S_15
REMARK    4  A    between atoms: C_4  and  C_6
REMARK    5  A    between atoms: S_15  and  C_16
REMARK    6  A    between atoms: C_20  and  C_25
REMARK    7  A    between atoms: N_21  and  C_22
REMARK    8  A    between atoms: C_25  and  C_26
REMARK    9  A    between atoms: C_26  and  C_27
REMARK                            x       y       z     vdW  Elec       q    Type
REMARK                         _______ _______ _______ _____ _____    ______ ____
ROOT
ATOM      1  C   UNL     1       2.558   0.037   1.263  0.00  0.00    +0.237 C 
ATOM      2  N   UNL     1       3.062  -0.535   0.002  0.00  0.00    -0.238 N 
ATOM      3  N   UNL     1       3.406   0.554  -0.808  0.00  0.00    -0.174 NA
ATOM      4  C   UNL     1       3.183   1.670  -0.218  0.00  0.00    +0.118 C 
ATOM      5  N   UNL     1       2.663   1.492   1.058  0.00  0.00    -0.286 N 
ATOM      6  H   UNL     1       3.139  -1.476  -0.222  0.00  0.00    +0.171 HD
ENDROOT
BRANCH   5   7
ATOM      7  C   UNL     1       2.292   2.540   2.012  0.00  0.00    +0.077 C 
ATOM      8  C   UNL     1       2.158   3.967   1.476  0.00  0.00    +0.024 C 
ATOM      9  C   UNL     1       3.351   3.589   2.356  0.00  0.00    +0.024 C 
ENDBRANCH   5   7
BRANCH   1  10
ATOM     10  S   UNL     1       0.830  -0.445   1.535  0.00  0.00    -0.107 S 
BRANCH  10  12
ATOM     11  C   UNL     1       0.029   1.666  -0.010  0.00  0.00    +0.027 C 
ATOM     12  C   UNL     1      -0.028   0.138   0.046  0.00  0.00    +0.117 C 
BRANCH  12  13
ATOM     13  C   UNL     1      -1.466  -0.310   0.088  0.00  0.00    +0.174 C 
ATOM     14  O   UNL     1      -2.000  -0.540   1.154  0.00  0.00    -0.291 OA
BRANCH  13  15
ATOM     15  C   UNL     1      -2.192  -0.463  -1.112  0.00  0.00    +0.024 C 
ATOM     16  C   UNL     1      -3.511  -0.857  -1.248  0.00  0.00    +0.006 A 
ATOM     17  C   UNL     1      -4.509  -1.216  -0.311  0.00  0.00    +0.010 A 
ATOM     18  C   UNL     1      -5.744  -1.569  -0.733  0.00  0.00    +0.001 A 
ATOM     19  C   UNL     1      -6.097  -1.597  -2.092  0.00  0.00    +0.002 A 
ATOM     20  C   UNL     1      -5.218  -1.273  -3.066  0.00  0.00    +0.026 A 
ATOM     21  C   UNL     1      -3.850  -0.877  -2.692  0.00  0.00    +0.043 A 
ATOM     22  N   UNL     1      -2.822  -0.522  -3.408  0.00  0.00    -0.380 N 
ATOM     23  C   UNL     1      -1.694  -0.223  -2.521  0.00  0.00    +0.152 C 
ATOM     24  H   UNL     1      -2.806  -0.461  -4.376  0.00  0.00    +0.160 HD
ENDBRANCH  13  15
ENDBRANCH  12  13
ENDBRANCH  10  12
ENDBRANCH   1  10
BRANCH   4  25
ATOM     25  C   UNL     1       3.454   3.018  -0.836  0.00  0.00    +0.082 C 
BRANCH  25  26
ATOM     26  C   UNL     1       4.173   2.831  -2.173  0.00  0.00    +0.103 C 
BRANCH  26  27
ATOM     27  C   UNL     1       4.444   4.179  -2.791  0.00  0.00    +0.211 C 
ATOM     28  O   UNL     1       4.096   5.189  -2.217  0.00  0.00    -0.276 OA
ATOM     29  N   UNL     1       5.072   4.261  -3.980  0.00  0.00    -0.329 N 
ATOM     30  H   UNL     1       5.351   3.453  -4.438  0.00  0.00    +0.145 HD
ATOM     31  H   UNL     1       5.247   5.129  -4.377  0.00  0.00    +0.145 HD
ENDBRANCH  26  27
ENDBRANCH  25  26
ENDBRANCH   4  25
TORSDOF 8
