REMARK  Name = ZINC41030463
REMARK  7 active torsions:
REMARK  status: ('A' for Active; 'I' for Inactive)
REMARK    1  A    between atoms: C_1  and  O_2
REMARK    2  A    between atoms: O_2  and  C_3
REMARK    3  A    between atoms: C_8  and  S_9
REMARK    4  A    between atoms: S_9  and  C_10
REMARK    5  A    between atoms: C_13  and  S_17
REMARK    6  A    between atoms: C_15  and  N_16
REMARK    7  A    between atoms: S_17  and  N_20
REMARK                            x       y       z     vdW  Elec       q    Type
REMARK                         _______ _______ _______ _____ _____    ______ ____
ROOT
ATOM      1  C   UNL     1      -0.322  -4.642   0.129  0.00  0.00    +0.034 A 
ATOM      2  C   UNL     1      -1.679  -4.929   0.115  0.00  0.00    +0.019 A 
ATOM      3  C   UNL     1      -2.109  -6.238   0.228  0.00  0.00    +0.030 A 
ATOM      4  C   UNL     1      -1.191  -7.263   0.357  0.00  0.00    +0.107 A 
ATOM      5  C   UNL     1       0.164  -6.986   0.373  0.00  0.00    +0.052 A 
ATOM      6  C   UNL     1       0.605  -5.677   0.254  0.00  0.00    +0.040 A 
ENDROOT
BRANCH   6   7
ATOM      7  N   UNL     1       1.976  -5.395   0.263  0.00  0.00    -0.357 N 
ATOM      8  H   UNL     1       2.283  -4.479   0.183  0.00  0.00    +0.142 HD
ATOM      9  H   UNL     1       2.619  -6.116   0.349  0.00  0.00    +0.142 HD
ENDBRANCH   6   7
BRANCH   4  10
ATOM     10  S   UNL     1      -1.749  -8.928   0.503  0.00  0.00    +0.056 S 
ATOM     11  O   UNL     1      -0.714  -9.648   1.159  0.00  0.00    -0.153 OA
ATOM     12  O   UNL     1      -3.075  -8.870   1.010  0.00  0.00    -0.153 OA
BRANCH  10  13
ATOM     13  N   UNL     1      -1.855  -9.545  -1.030  0.00  0.00    -0.204 NA
ATOM     14  H   UNL     1      -1.714 -10.493  -1.183  0.00  0.00    +0.144 HD
ATOM     15  H   UNL     1      -2.057  -8.959  -1.776  0.00  0.00    +0.144 HD
ENDBRANCH  10  13
ENDBRANCH   4  10
BRANCH   1  16
ATOM     16  S   UNL     1       0.230  -2.975  -0.016  0.00  0.00    -0.084 S 
BRANCH  16  22
ATOM     17  C   UNL     1      -1.837  -2.089  -1.581  0.00  0.00    +0.134 A 
ATOM     18  C   UNL     1      -3.001  -1.374  -1.812  0.00  0.00    +0.047 A 
ATOM     19  C   UNL     1      -3.570  -0.631  -0.794  0.00  0.00    +0.004 A 
ATOM     20  C   UNL     1      -2.981  -0.599   0.457  0.00  0.00    +0.001 A 
ATOM     21  C   UNL     1      -1.820  -1.309   0.696  0.00  0.00    +0.019 A 
ATOM     22  C   UNL     1      -1.246  -2.062  -0.320  0.00  0.00    +0.054 A 
BRANCH  17  24
ATOM     23  C   UNL     1      -1.938  -2.801  -3.848  0.00  0.00    +0.277 C 
ATOM     24  O   UNL     1      -1.277  -2.820  -2.582  0.00  0.00    -0.494 OA
ENDBRANCH  17  24
ENDBRANCH  16  22
ENDBRANCH   1  16
TORSDOF 6
