REMARK  Name = ZINC13064464
REMARK  9 active torsions:
REMARK  status: ('A' for Active; 'I' for Inactive)
REMARK    1  A    between atoms: C_1  and  C_2
REMARK    2  A    between atoms: C_2  and  C_3
REMARK    3  A    between atoms: C_3  and  C_5
REMARK    4  A    between atoms: C_3  and  N_66
REMARK    5  A    between atoms: N_9  and  C_10
REMARK    6  A    between atoms: C_10  and  C_11
REMARK    7  A    between atoms: C_16  and  C_17
REMARK    8  A    between atoms: C_16  and  N_66
REMARK    9  A    between atoms: C_33  and  N_66
REMARK                            x       y       z     vdW  Elec       q    Type
REMARK                         _______ _______ _______ _____ _____    ______ ____
ROOT
ATOM      1  N   UNL     1      -3.048   1.025  -1.028  0.00  0.00    +0.391 N 
ATOM      2  H   UNL     1      -3.271   1.968  -1.367  0.00  0.00    -0.080 HD
ENDROOT
BRANCH   1   3
ATOM      3  C   UNL     1      -2.023   0.428  -1.910  0.00  0.00    -0.067 C 
ATOM      4  C   UNL     1      -0.918   1.469  -2.183  0.00  0.00    -0.015 C 
ATOM      5  C   UNL     1      -0.536   1.236  -3.667  0.00  0.00    -0.002 C 
ATOM      6  C   UNL     1      -1.902   0.924  -4.327  0.00  0.00    -0.002 C 
ATOM      7  C   UNL     1      -2.648   0.081  -3.272  0.00  0.00    -0.015 C 
ENDBRANCH   1   3
BRANCH   1   8
ATOM      8  C   UNL     1      -4.277   0.203  -1.054  0.00  0.00    +0.003 C 
BRANCH   8   9
ATOM      9  C   UNL     1      -3.987  -1.195  -0.572  0.00  0.00    +0.139 A 
ATOM     10  N   UNL     1      -3.071  -1.550   0.296  0.00  0.00    -0.115 NA
ATOM     11  N   UNL     1      -3.138  -2.828   0.446  0.00  0.00    -0.023 NA
ATOM     12  N   UNL     1      -4.067  -3.299  -0.311  0.00  0.00    -0.044 NA
ATOM     13  N   UNL     1      -4.614  -2.323  -0.955  0.00  0.00    -0.223 N 
BRANCH  13  14
ATOM     14  C   UNL     1      -5.711  -2.424  -1.921  0.00  0.00    +0.221 C 
BRANCH  14  15
ATOM     15  C   UNL     1      -5.146  -2.626  -3.303  0.00  0.00    +0.126 A 
ATOM     16  C   UNL     1      -4.874  -3.812  -3.877  0.00  0.00    +0.046 A 
ATOM     17  C   UNL     1      -4.365  -3.536  -5.167  0.00  0.00    +0.041 A 
ATOM     18  C   UNL     1      -4.348  -2.197  -5.301  0.00  0.00    +0.195 A 
ATOM     19  O   UNL     1      -4.822  -1.651  -4.169  0.00  0.00    -0.466 OA
ENDBRANCH  14  15
ENDBRANCH  13  14
ENDBRANCH   8   9
BRANCH   8  21
ATOM     20  C   UNL     1      -5.626   2.264  -0.640  0.00  0.00    +0.002 C 
ATOM     21  C   UNL     1      -5.325   0.848  -0.146  0.00  0.00    -0.011 C 
ENDBRANCH   8  21
ENDBRANCH   1   8
BRANCH   1  22
ATOM     22  C   UNL     1      -2.533   1.121   0.353  0.00  0.00    -0.036 C 
BRANCH  22  23
ATOM     23  C   UNL     1      -1.511   2.227   0.414  0.00  0.00    +0.001 A 
ATOM     24  C   UNL     1      -1.889   3.510   0.185  0.00  0.00    +0.017 A 
ATOM     25  C   UNL     1      -0.873   4.560   0.245  0.00  0.00    +0.002 A 
ATOM     26  C   UNL     1      -1.204   5.900   0.012  0.00  0.00    +0.059 A 
ATOM     27  C   UNL     1      -0.225   6.869   0.077  0.00  0.00    +0.163 A 
ATOM     28  C   UNL     1       1.095   6.517   0.376  0.00  0.00    +0.164 A 
ATOM     29  C   UNL     1       1.431   5.194   0.606  0.00  0.00    +0.075 A 
ATOM     30  C   UNL     1       0.457   4.206   0.544  0.00  0.00    +0.053 A 
ATOM     31  N   UNL     1       0.775   2.882   0.772  0.00  0.00    -0.322 N 
ATOM     32  H   UNL     1       1.691   2.639   0.977  0.00  0.00    +0.169 HD
ATOM     33  C   UNL     1      -0.167   1.925   0.714  0.00  0.00    +0.251 A 
ATOM     34  O   UNL     1       0.150   0.766   0.922  0.00  0.00    -0.268 OA
ATOM     35  O   UNL     1       2.066   7.467   0.446  0.00  0.00    -0.485 OA
ATOM     36  C   UNL     1       1.774   8.732  -0.156  0.00  0.00    +0.270 C 
ATOM     37  C   UNL     1       0.369   9.163   0.284  0.00  0.00    +0.270 C 
ATOM     38  O   UNL     1      -0.563   8.168  -0.155  0.00  0.00    -0.485 OA
ENDBRANCH  22  23
ENDBRANCH   1  22
TORSDOF 8
