REMARK  Name = ZINC02253769
REMARK  9 active torsions:
REMARK  status: ('A' for Active; 'I' for Inactive)
REMARK    1  A    between atoms: C_1  and  C_2
REMARK    2  A    between atoms: C_2  and  C_3
REMARK    3  A    between atoms: C_2  and  C_4
REMARK    4  A    between atoms: C_2  and  O_5
REMARK    5  A    between atoms: O_5  and  C_6
REMARK    6  A    between atoms: C_6  and  C_8
REMARK    7  A    between atoms: N_19  and  C_22
REMARK    8  A    between atoms: C_20  and  N_21
REMARK    9  A    between atoms: C_22  and  C_23
REMARK                            x       y       z     vdW  Elec       q    Type
REMARK                         _______ _______ _______ _____ _____    ______ ____
ROOT
ATOM      1  C   UNL     1       1.026   3.216  -0.697  0.00  0.00    +0.126 A 
ATOM      2  C   UNL     1       1.196   3.817   0.636  0.00  0.00    +0.124 A 
ATOM      3  C   UNL     1       1.362   5.253   0.396  0.00  0.00    +0.162 A 
ATOM      4  N   UNL     1       1.540   6.063   1.418  0.00  0.00    -0.226 NA
ATOM      5  C   UNL     1       1.559   5.572   2.664  0.00  0.00    +0.092 A 
ATOM      6  C   UNL     1       1.745   6.431   3.762  0.00  0.00    +0.030 A 
ATOM      7  C   UNL     1       1.770   5.923   5.024  0.00  0.00    +0.002 A 
ATOM      8  C   UNL     1       1.615   4.556   5.249  0.00  0.00    +0.002 A 
ATOM      9  C   UNL     1       1.434   3.693   4.212  0.00  0.00    +0.030 A 
ATOM     10  C   UNL     1       1.402   4.182   2.893  0.00  0.00    +0.090 A 
ATOM     11  N   UNL     1       1.224   3.343   1.866  0.00  0.00    -0.241 NA
ATOM     12  N   UNL     1       1.282   5.446  -0.968  0.00  0.00    -0.308 N 
ATOM     13  C   UNL     1       1.087   4.263  -1.612  0.00  0.00    +0.114 A 
ENDROOT
BRANCH  13  14
ATOM     14  N   UNL     1       0.967   4.123  -2.969  0.00  0.00    -0.344 N 
ATOM     15  H   UNL     1       0.918   3.238  -3.363  0.00  0.00    +0.144 HD
ATOM     16  H   UNL     1       0.930   4.909  -3.536  0.00  0.00    +0.144 HD
ENDBRANCH  13  14
BRANCH   1  17
ATOM     17  C   UNL     1       0.833   1.844  -0.990  0.00  0.00    +0.345 C 
ATOM     18  O   UNL     1       1.793   1.125  -1.196  0.00  0.00    -0.245 OA
BRANCH  17  19
ATOM     19  O   UNL     1      -0.415   1.334  -1.042  0.00  0.00    -0.455 OA
BRANCH  19  21
ATOM     20  C   UNL     1       0.198  -0.875  -0.279  0.00  0.00    +0.055 C 
ATOM     21  C   UNL     1      -0.536  -0.057  -1.343  0.00  0.00    +0.106 C 
ATOM     22  C   UNL     1      -2.015  -0.450  -1.357  0.00  0.00    +0.055 C 
ATOM     23  C   UNL     1       0.079  -0.337  -2.716  0.00  0.00    +0.055 C 
ENDBRANCH  19  21
ENDBRANCH  17  19
ENDBRANCH   1  17
BRANCH  12  24
ATOM     24  C   UNL     1       1.393   6.747  -1.632  0.00  0.00    +0.161 C 
BRANCH  24  25
ATOM     25  C   UNL     1       2.822   6.977  -2.050  0.00  0.00    -0.009 A 
ATOM     26  C   UNL     1       3.241   6.607  -3.315  0.00  0.00    +0.007 A 
ATOM     27  C   UNL     1       4.552   6.818  -3.699  0.00  0.00    +0.000 A 
ATOM     28  C   UNL     1       5.445   7.400  -2.818  0.00  0.00    +0.001 A 
ATOM     29  C   UNL     1       5.027   7.771  -1.554  0.00  0.00    +0.020 A 
ATOM     30  C   UNL     1       3.714   7.565  -1.171  0.00  0.00    +0.046 A 
ATOM     31 CL   UNL     1       3.187   8.037   0.414  0.00  0.00    -0.083 Cl
ENDBRANCH  24  25
ENDBRANCH  12  24
TORSDOF 6
