REMARK  Name = ZINC17124070
REMARK  4 active torsions:
REMARK  status: ('A' for Active; 'I' for Inactive)
REMARK    1  A    between atoms: C_3  and  N_21
REMARK    2  A    between atoms: C_6  and  C_7
REMARK    3  A    between atoms: N_8  and  N_9
REMARK    4  A    between atoms: C_10  and  C_15
REMARK                            x       y       z     vdW  Elec       q    Type
REMARK                         _______ _______ _______ _____ _____    ______ ____
ROOT
ATOM      1  N   UNL     1      -4.837   0.936   0.029  0.00  0.00    -0.186 N 
ATOM      2  C   UNL     1      -5.550   0.506   1.128  0.00  0.00    +0.186 A 
ATOM      3  N   UNL     1      -6.614  -0.118   0.676  0.00  0.00    -0.126 NA
ATOM      4  N   UNL     1      -6.618  -0.109  -0.609  0.00  0.00    -0.119 NA
ATOM      5  C   UNL     1      -5.558   0.527  -1.060  0.00  0.00    +0.223 A 
ATOM      6  S   UNL     1      -5.142   0.798  -2.751  0.00  0.00    -0.007 SA
ENDROOT
BRANCH   2   7
ATOM      7  C   UNL     1      -5.186   0.708   2.545  0.00  0.00    +0.024 A 
ATOM      8  C   UNL     1      -3.891   1.101   2.906  0.00  0.00    +0.031 A 
ATOM      9  C   UNL     1      -3.596   1.283   4.241  0.00  0.00    +0.111 A 
ATOM     10  N   UNL     1      -4.511   1.082   5.171  0.00  0.00    -0.263 NA
ATOM     11  C   UNL     1      -5.741   0.707   4.874  0.00  0.00    +0.111 A 
ATOM     12  C   UNL     1      -6.125   0.507   3.565  0.00  0.00    +0.031 A 
ENDBRANCH   2   7
BRANCH   1  14
ATOM     13  C   UNL     1      -2.501   1.010   0.019  0.00  0.00    +0.141 C 
ATOM     14  N   UNL     1      -3.631   1.648   0.028  0.00  0.00    -0.170 NA
BRANCH  13  20
ATOM     15  C   UNL     1      -0.013   1.076   0.008  0.00  0.00    +0.012 A 
ATOM     16  C   UNL     1       1.171   1.783   0.001  0.00  0.00    +0.033 A 
ATOM     17  C   UNL     1       1.155   3.167   0.008  0.00  0.00    +0.126 A 
ATOM     18  C   UNL     1      -0.048   3.851   0.022  0.00  0.00    +0.033 A 
ATOM     19  C   UNL     1      -1.240   3.156   0.030  0.00  0.00    +0.012 A 
ATOM     20  C   UNL     1      -1.231   1.759   0.017  0.00  0.00    -0.005 A 
BRANCH  17  21
ATOM     21  N   UNL     1       2.429   3.919  -0.001  0.00  0.00    +0.056 N 
ATOM     22  O   UNL     1       3.490   3.320  -0.014  0.00  0.00    -0.126 OA
ATOM     23  O   UNL     1       2.418   5.137   0.005  0.00  0.00    -0.126 OA
ENDBRANCH  17  21
ENDBRANCH  13  20
ENDBRANCH   1  14
TORSDOF 4
