REMARK  Name = ZINC39989936
REMARK  9 active torsions:
REMARK  status: ('A' for Active; 'I' for Inactive)
REMARK    1  A    between atoms: C_1  and  C_2
REMARK    2  A    between atoms: C_2  and  C_3
REMARK    3  A    between atoms: C_3  and  N_4
REMARK    4  A    between atoms: C_5  and  N_28
REMARK    5  A    between atoms: C_6  and  C_14
REMARK    6  A    between atoms: C_7  and  C_13
REMARK    7  A    between atoms: C_8  and  C_11
REMARK    8  A    between atoms: N_18  and  C_22
REMARK    9  A    between atoms: C_22  and  C_23
REMARK                            x       y       z     vdW  Elec       q    Type
REMARK                         _______ _______ _______ _____ _____    ______ ____
ROOT
ATOM      1  N   UNL     1      -1.239  -2.213   0.378  0.00  0.00    -0.295 N 
ATOM      2  C   UNL     1      -1.329  -2.752  -0.865  0.00  0.00    +0.112 A 
ATOM      3  C   UNL     1      -1.730  -4.088  -1.036  0.00  0.00    +0.019 A 
ATOM      4  C   UNL     1      -2.039  -4.866   0.092  0.00  0.00    -0.017 A 
ATOM      5  C   UNL     1      -1.938  -4.290   1.355  0.00  0.00    +0.120 A 
ATOM      6  C   UNL     1      -1.524  -2.939   1.474  0.00  0.00    +0.270 A 
ATOM      7  O   UNL     1      -1.429  -2.431   2.577  0.00  0.00    -0.266 OA
ATOM      8  C   UNL     1      -2.472  -6.301  -0.063  0.00  0.00    +0.046 C 
ENDROOT
BRANCH   3   9
ATOM      9  C   UNL     1      -1.827  -4.663  -2.379  0.00  0.00    +0.032 C 
ATOM     10  C   UNL     1      -0.996  -5.677  -2.746  0.00  0.00    +0.077 C 
ATOM     11  C   UNL     1      -0.946  -6.413  -3.969  0.00  0.00    +0.259 C 
ATOM     12  O   UNL     1      -1.720  -6.172  -4.878  0.00  0.00    -0.269 OA
ATOM     13  N   UNL     1      -0.035  -7.364  -4.084  0.00  0.00    -0.248 N 
ATOM     14  C   UNL     1       0.823  -7.631  -3.075  0.00  0.00    +0.121 C 
ATOM     15  S   UNL     1       2.067  -8.804  -3.007  0.00  0.00    -0.027 S 
ATOM     16  S   UNL     1       0.333  -6.446  -1.831  0.00  0.00    -0.061 S 
BRANCH  13  17
ATOM     17  C   UNL     1       0.046  -8.139  -5.324  0.00  0.00    +0.189 C 
BRANCH  17  18
ATOM     18  C   UNL     1       0.992  -7.460  -6.281  0.00  0.00    +0.122 A 
ATOM     19  C   UNL     1       2.315  -7.684  -6.370  0.00  0.00    +0.046 A 
ATOM     20  C   UNL     1       2.806  -6.838  -7.391  0.00  0.00    +0.041 A 
ATOM     21  C   UNL     1       1.754  -6.147  -7.864  0.00  0.00    +0.195 A 
ATOM     22  O   UNL     1       0.656  -6.532  -7.192  0.00  0.00    -0.466 OA
ENDBRANCH  17  18
ENDBRANCH  13  17
ENDBRANCH   3   9
BRANCH   2  23
ATOM     23  N   UNL     1      -1.028  -1.991  -1.957  0.00  0.00    -0.312 N 
ATOM     24  C   UNL     1       0.325  -1.998  -2.535  0.00  0.00    +0.134 C 
ATOM     25  C   UNL     1       0.205  -2.246  -4.043  0.00  0.00    +0.178 C 
ATOM     26  O   UNL     1      -0.720  -1.310  -4.602  0.00  0.00    -0.377 OA
ATOM     27  C   UNL     1      -2.051  -1.430  -4.096  0.00  0.00    +0.178 C 
ATOM     28  C   UNL     1      -2.049  -1.144  -2.594  0.00  0.00    +0.134 C 
ENDBRANCH   2  23
BRANCH   5  29
ATOM     29  C   UNL     1      -2.246  -5.057   2.525  0.00  0.00    +0.105 C 
ATOM     30  N   UNL     1      -2.490  -5.665   3.453  0.00  0.00    -0.191 NA
ENDBRANCH   5  29
BRANCH   1  31
ATOM     31  C   UNL     1      -0.819  -0.818   0.528  0.00  0.00    +0.126 C 
BRANCH  31  33
ATOM     32  C   UNL     1       1.127   0.693   0.949  0.00  0.00    +0.005 C 
ATOM     33  C   UNL     1       0.688  -0.764   0.792  0.00  0.00    +0.018 C 
ENDBRANCH  31  33
ENDBRANCH   1  31
TORSDOF 7
