REMARK  Name = ZINC62824225
REMARK  6 active torsions:
REMARK  status: ('A' for Active; 'I' for Inactive)
REMARK    1  A    between atoms: C_1  and  C_2
REMARK    2  A    between atoms: C_2  and  C_3
REMARK    3  A    between atoms: C_2  and  C_4
REMARK    4  A    between atoms: C_4  and  C_21
REMARK    5  A    between atoms: N_8  and  C_11
REMARK    6  A    between atoms: C_16  and  C_17
REMARK                            x       y       z     vdW  Elec       q    Type
REMARK                         _______ _______ _______ _____ _____    ______ ____
ROOT
ATOM      1  C   UNL     1      -1.433  -0.534   0.013  0.00  0.00    +0.056 C 
ATOM      2  C   UNL     1      -1.446  -2.071  -0.106  0.00  0.00    +0.113 C 
ATOM      3  C   UNL     1      -2.197  -2.321  -1.396  0.00  0.00    +0.227 C 
ATOM      4  O   UNL     1      -2.436  -3.411  -1.869  0.00  0.00    -0.275 OA
ATOM      5  N   UNL     1      -2.557  -1.148  -1.930  0.00  0.00    -0.209 N 
ATOM      6  C   UNL     1      -2.179  -0.076  -1.222  0.00  0.00    +0.233 C 
ATOM      7  O   UNL     1      -2.400   1.077  -1.522  0.00  0.00    -0.274 OA
ATOM      8  C   UNL     1      -2.162  -0.083   1.280  0.00  0.00    +0.021 C 
ENDROOT
BRANCH   5   9
ATOM      9  C   UNL     1      -3.266  -1.049  -3.128  0.00  0.00    +0.058 A 
ATOM     10  C   UNL     1      -4.654  -1.033  -3.117  0.00  0.00    +0.026 A 
ATOM     11  C   UNL     1      -5.355  -0.936  -4.302  0.00  0.00    +0.016 A 
ATOM     12  C   UNL     1      -4.681  -0.854  -5.511  0.00  0.00    +0.014 A 
ATOM     13  C   UNL     1      -3.303  -0.869  -5.543  0.00  0.00    +0.031 A 
ATOM     14  C   UNL     1      -2.580  -0.960  -4.349  0.00  0.00    +0.086 A 
ATOM     15  I   UNL     1      -5.763  -0.709  -7.299  0.00  0.00    -0.044 I 
BRANCH  14  16
ATOM     16  C   UNL     1      -1.108  -0.970  -4.374  0.00  0.00    +0.388 C 
ATOM     17  O   UNL     1      -0.514  -0.892  -5.441  0.00  0.00    -0.241 OA
ATOM     18  O   UNL     1      -0.479  -1.056  -3.328  0.00  0.00    -0.241 OA
ENDBRANCH  14  16
ENDBRANCH   5   9
BRANCH   1  20
ATOM     19  C   UNL     1      -0.019   1.526   0.010  0.00  0.00    +0.008 C 
ATOM     20  C   UNL     1       0.002  -0.004   0.002  0.00  0.00    -0.002 C 
ATOM     21  C   UNL     1       0.742  -0.511   1.242  0.00  0.00    +0.008 C 
ENDBRANCH   1  20
TORSDOF 3
