REMARK  Name = ZINC60390841
REMARK  16 active torsions:
REMARK  status: ('A' for Active; 'I' for Inactive)
REMARK    1  A    between atoms: C_1  and  N_2
REMARK    2  A    between atoms: N_2  and  C_3
REMARK    3  A    between atoms: N_2  and  C_4
REMARK    4  A    between atoms: C_4  and  C_6
REMARK    5  A    between atoms: C_4  and  C_28
REMARK    6  A    between atoms: C_6  and  N_7
REMARK    7  A    between atoms: C_8  and  C_10
REMARK    8  A    between atoms: C_10  and  C_12
REMARK    9  A    between atoms: C_10  and  N_16
REMARK   10  A    between atoms: C_12  and  C_13
REMARK   11  A    between atoms: C_13  and  S_14
REMARK   12  A    between atoms: S_14  and  C_15
REMARK   13  A    between atoms: C_17  and  C_19
REMARK   14  A    between atoms: C_23  and  N_25
REMARK   15  A    between atoms: C_32  and  O_34
REMARK   16  A    between atoms: O_34  and  C_35
REMARK                            x       y       z     vdW  Elec       q    Type
REMARK                         _______ _______ _______ _____ _____    ______ ____
ROOT
ATOM      1  N   UNL     1       0.205  -2.151   0.753  0.00  0.00    -0.315 N 
ATOM      2  C   UNL     1       0.642  -3.421   0.864  0.00  0.00    +0.233 C 
ATOM      3  O   UNL     1       0.254  -4.266   0.085  0.00  0.00    -0.274 OA
ATOM      4  H   UNL     1       0.515  -1.476   1.377  0.00  0.00    +0.149 HD
ENDROOT
BRANCH   1   5
ATOM      5  C   UNL     1      -0.737  -1.791  -0.309  0.00  0.00    +0.093 C 
BRANCH   5   6
ATOM      6  C   UNL     1      -1.168  -0.333  -0.135  0.00  0.00    -0.021 C 
BRANCH   6   7
ATOM      7  C   UNL     1      -1.944  -0.188   1.148  0.00  0.00    -0.056 A 
ATOM      8  C   UNL     1      -3.276  -0.557   1.195  0.00  0.00    +0.002 A 
ATOM      9  C   UNL     1      -3.991  -0.425   2.370  0.00  0.00    +0.004 A 
ATOM     10  C   UNL     1      -3.377   0.076   3.502  0.00  0.00    +0.045 A 
ATOM     11  C   UNL     1      -2.041   0.447   3.457  0.00  0.00    +0.120 A 
ATOM     12  C   UNL     1      -1.324   0.308   2.278  0.00  0.00    +0.047 A 
BRANCH  11  13
ATOM     13  O   UNL     1      -1.434   0.940   4.569  0.00  0.00    -0.495 OA
ATOM     14  C   UNL     1      -2.232   1.050   5.749  0.00  0.00    +0.277 C 
ENDBRANCH  11  13
ENDBRANCH   6   7
BRANCH   6  16
ATOM     15  C   UNL     1      -2.469   1.449  -1.076  0.00  0.00    -0.096 C 
ATOM     16  N   UNL     1      -2.014   0.066  -1.268  0.00  0.00    +0.382 N 
ATOM     17  C   UNL     1      -1.241  -0.028  -2.514  0.00  0.00    -0.096 C 
ATOM     18  H   UNL     1      -2.814  -0.547  -1.322  0.00  0.00    -0.082 HD
ENDBRANCH   6  16
ENDBRANCH   5   6
ENDBRANCH   1   5
BRANCH   2  19
ATOM     19  C   UNL     1       1.611  -3.792   1.957  0.00  0.00    +0.160 C 
BRANCH  19  20
ATOM     20  N   UNL     1       1.929  -5.220   1.865  0.00  0.00    -0.300 N 
ATOM     21  C   UNL     1       3.093  -5.684   2.359  0.00  0.00    +0.245 C 
ATOM     22  O   UNL     1       3.880  -4.919   2.882  0.00  0.00    -0.270 OA
ATOM     23  H   UNL     1       1.301  -5.830   1.447  0.00  0.00    +0.150 HD
BRANCH  21  24
ATOM     24  C   UNL     1       3.413  -7.125   2.266  0.00  0.00    +0.039 A 
ATOM     25  C   UNL     1       2.515  -8.005   1.661  0.00  0.00    +0.013 A 
ATOM     26  C   UNL     1       2.820  -9.347   1.576  0.00  0.00    +0.003 A 
ATOM     27  C   UNL     1       4.014  -9.822   2.090  0.00  0.00    +0.033 A 
ATOM     28  C   UNL     1       4.909  -8.955   2.692  0.00  0.00    +0.127 A 
ATOM     29  C   UNL     1       4.618  -7.609   2.777  0.00  0.00    +0.045 A 
BRANCH  28  30
ATOM     30  N   UNL     1       6.183  -9.472   3.239  0.00  0.00    +0.056 N 
ATOM     31  O   UNL     1       6.441 -10.651   3.160  0.00  0.00    -0.126 OA
ATOM     32  O   UNL     1       6.966  -8.716   3.765  0.00  0.00    -0.126 OA
ENDBRANCH  28  30
ENDBRANCH  21  24
ENDBRANCH  19  20
BRANCH  19  33
ATOM     33  C   UNL     1       0.981  -3.498   3.320  0.00  0.00    +0.042 C 
BRANCH  33  34
ATOM     34  C   UNL     1       2.008  -3.756   4.423  0.00  0.00    +0.071 C 
BRANCH  34  35
ATOM     35  S   UNL     1       1.261  -3.406   6.039  0.00  0.00    -0.164 S 
ATOM     36  C   UNL     1       2.590  -3.757   7.223  0.00  0.00    +0.084 C 
ENDBRANCH  34  35
ENDBRANCH  33  34
ENDBRANCH  19  33
ENDBRANCH   2  19
TORSDOF 12
