REMARK  Name = ZINC05049529
REMARK  6 active torsions:
REMARK  status: ('A' for Active; 'I' for Inactive)
REMARK    1  A    between atoms: C_10  and  C_11
REMARK    2  A    between atoms: C_11  and  S_24
REMARK    3  A    between atoms: S_24  and  C_25
REMARK    4  A    between atoms: C_25  and  C_26
REMARK    5  A    between atoms: C_26  and  C_28
REMARK    6  A    between atoms: C_26  and  N_50
REMARK                            x       y       z     vdW  Elec       q    Type
REMARK                         _______ _______ _______ _____ _____    ______ ____
ROOT
ATOM      1  C   UNK     1       0.155   1.153  -2.845  0.00  0.00    +0.093 C 
ATOM      2  C   UNK     1       1.533   1.706  -2.573  0.00  0.00    -0.015 A 
ATOM      3  C   UNK     1       2.406   1.539  -1.519  0.00  0.00    +0.006 A 
ATOM      4  C   UNK     1       3.633   2.178  -1.529  0.00  0.00    +0.000 A 
ATOM      5  C   UNK     1       3.987   2.985  -2.595  0.00  0.00    +0.001 A 
ATOM      6  C   UNK     1       3.118   3.160  -3.656  0.00  0.00    +0.009 A 
ATOM      7  C   UNK     1       1.878   2.517  -3.653  0.00  0.00    -0.012 A 
ATOM      8  C   UNK     1       0.771   2.523  -4.641  0.00  0.00    -0.012 A 
ATOM      9  C   UNK     1      -0.266   1.717  -4.180  0.00  0.00    -0.015 A 
ATOM     10  C   UNK     1      -1.412   1.562  -4.931  0.00  0.00    +0.006 A 
ATOM     11  C   UNK     1      -1.536   2.209  -6.147  0.00  0.00    +0.000 A 
ATOM     12  C   UNK     1      -0.511   3.012  -6.614  0.00  0.00    +0.001 A 
ATOM     13  C   UNK     1       0.639   3.172  -5.870  0.00  0.00    +0.009 A 
ENDROOT
BRANCH   1  23
ATOM     14  C   UNK     1       2.733  -2.307  -5.599  0.00  0.00    +0.001 A 
ATOM     15  C   UNK     1       2.703  -0.914  -5.555  0.00  0.00    +0.001 A 
ATOM     16  C   UNK     1       1.886  -0.258  -4.686  0.00  0.00    +0.009 A 
ATOM     17  C   UNK     1       1.059  -0.993  -3.819  0.00  0.00    -0.013 A 
ATOM     18  C   UNK     1       1.093  -2.410  -3.861  0.00  0.00    -0.018 A 
ATOM     19  C   UNK     1       1.954  -3.051  -4.768  0.00  0.00    +0.008 A 
ATOM     20  C   UNK     1       0.263  -3.144  -2.998  0.00  0.00    +0.008 A 
ATOM     21  C   UNK     1      -0.558  -2.489  -2.133  0.00  0.00    +0.001 A 
ATOM     22  C   UNK     1      -0.588  -1.096  -2.088  0.00  0.00    +0.006 A 
ATOM     23  C   UNK     1       0.202  -0.351  -2.909  0.00  0.00    -0.015 A 
ENDBRANCH   1  23
BRANCH   1  24
ATOM     24  S   UNK     1      -0.999   1.687  -1.551  0.00  0.00    -0.141 S 
BRANCH  24  25
ATOM     25  C   UNK     1      -0.220   1.127  -0.011  0.00  0.00    +0.065 C 
BRANCH  25  26
ATOM     26  C   UNK     1      -1.163   1.393   1.164  0.00  0.00    +0.050 C 
BRANCH  26  29
ATOM     27  H   UNK     1      -2.112   3.028   1.979  0.00  0.00    -0.089 HD
ATOM     28  H   UNK     1      -0.591   3.358   1.393  0.00  0.00    -0.089 HD
ATOM     29  N   UNK     1      -1.451   2.837   1.228  0.00  0.00    +0.388 N 
ATOM     30  H   UNK     1      -1.860   3.140   0.337  0.00  0.00    -0.089 HD
ENDBRANCH  26  29
BRANCH  26  31
ATOM     31  C   UNK     1      -0.516   0.928   2.443  0.00  0.00    +0.343 C 
ATOM     32  O   UNK     1       0.018   1.727   3.175  0.00  0.00    -0.248 OA
ATOM     33  O   UNK     1      -0.533  -0.374   2.768  0.00  0.00    -0.248 OA
ENDBRANCH  26  31
ENDBRANCH  25  26
ENDBRANCH  24  25
ENDBRANCH   1  24
TORSDOF 6
