REMARK  Name = ZINC20663032
REMARK  8 active torsions:
REMARK  status: ('A' for Active; 'I' for Inactive)
REMARK    1  A    between atoms: C_1  and  C_2
REMARK    2  A    between atoms: C_5  and  C_9
REMARK    3  A    between atoms: C_7  and  C_8
REMARK    4  A    between atoms: N_11  and  C_12
REMARK    5  A    between atoms: C_12  and  C_22
REMARK    6  A    between atoms: C_13  and  C_14
REMARK    7  A    between atoms: C_18  and  O_20
REMARK    8  A    between atoms: O_20  and  C_21
REMARK                            x       y       z     vdW  Elec       q    Type
REMARK                         _______ _______ _______ _____ _____    ______ ____
ROOT
ATOM      1  C   UNL     1      -2.204   6.398   4.094  0.00  0.00    +0.097 C 
ATOM      2  C   UNL     1      -2.143   5.053   4.230  0.00  0.00    +0.036 C 
ENDROOT
BRANCH   1   3
ATOM      3  C   UNL     1      -1.567   7.050   2.941  0.00  0.00    +0.261 C 
ATOM      4  O   UNL     1      -0.703   7.888   3.117  0.00  0.00    -0.269 OA
ATOM      5  N   UNL     1      -1.939   6.719   1.689  0.00  0.00    -0.296 N 
ATOM      6  C   UNL     1      -1.242   7.280   0.525  0.00  0.00    +0.113 C 
ATOM      7  C   UNL     1      -2.237   7.854  -0.466  0.00  0.00    +0.027 C 
ATOM      8  C   UNL     1      -3.353   6.854  -0.773  0.00  0.00    +0.018 C 
ATOM      9  C   UNL     1      -4.063   6.509   0.539  0.00  0.00    +0.054 C 
ATOM     10  C   UNL     1      -3.058   5.792   1.457  0.00  0.00    +0.117 C 
ATOM     11  C   UNL     1      -4.496   7.778   1.235  0.00  0.00    +0.027 A 
ATOM     12  C   UNL     1      -5.552   7.692   2.087  0.00  0.00    +0.022 A 
ATOM     13  C   UNL     1      -5.970   8.809   2.818  0.00  0.00    +0.007 A 
ATOM     14  C   UNL     1      -5.287   9.981   2.677  0.00  0.00    +0.070 A 
ATOM     15  C   UNL     1      -4.205  10.037   1.788  0.00  0.00    +0.251 A 
ATOM     16  O   UNL     1      -3.558  11.067   1.691  0.00  0.00    -0.268 OA
ATOM     17  N   UNL     1      -3.869   8.960   1.036  0.00  0.00    -0.312 N 
ATOM     18  C   UNL     1      -2.836   9.161   0.020  0.00  0.00    +0.130 C 
ENDBRANCH   1   3
BRANCH   2  19
ATOM     19  C   UNL     1      -1.281   4.262   3.339  0.00  0.00    -0.020 A 
ATOM     20  C   UNL     1      -0.135   4.837   2.778  0.00  0.00    +0.008 A 
ATOM     21  C   UNL     1       0.671   4.091   1.944  0.00  0.00    +0.004 A 
ATOM     22  C   UNL     1       0.354   2.775   1.663  0.00  0.00    +0.045 A 
ATOM     23  C   UNL     1      -0.784   2.196   2.210  0.00  0.00    +0.121 A 
ATOM     24  C   UNL     1      -1.602   2.933   3.049  0.00  0.00    +0.053 A 
BRANCH  23  25
ATOM     25  O   UNL     1      -1.092   0.903   1.925  0.00  0.00    -0.495 OA
ATOM     26  C   UNL     1      -0.205   0.202   1.052  0.00  0.00    +0.277 C 
ENDBRANCH  23  25
ENDBRANCH   2  19
BRANCH   1  29
ATOM     27  C   UNL     1      -3.036   8.491   4.856  0.00  0.00    +0.248 C 
ATOM     28  O   UNL     1      -2.683   9.000   3.810  0.00  0.00    -0.270 OA
ATOM     29  N   UNL     1      -2.873   7.167   5.050  0.00  0.00    -0.277 N 
ATOM     30  H   UNL     1      -3.267   6.692   5.961  0.00  0.00    +0.155 HD
BRANCH  27  35
ATOM     31  C   UNL     1      -5.402  11.734   8.979  0.00  0.00    +0.044 C 
ATOM     32  C   UNL     1      -4.783  10.884   7.899  0.00  0.00    -0.047 A 
ATOM     33  C   UNL     1      -4.617   9.526   8.102  0.00  0.00    +0.004 A 
ATOM     34  C   UNL     1      -4.056   8.742   7.115  0.00  0.00    +0.013 A 
ATOM     35  C   UNL     1      -3.644   9.324   5.915  0.00  0.00    +0.037 A 
ATOM     36  C   UNL     1      -3.814  10.695   5.718  0.00  0.00    +0.016 A 
ATOM     37  C   UNL     1      -4.382  11.467   6.710  0.00  0.00    -0.047 A 
ATOM     38  C   UNL     1      -4.567  12.947   6.499  0.00  0.00    +0.044 C 
ENDBRANCH  27  35
ENDBRANCH   1  29
TORSDOF 5
