REMARK  Name = ZINC29763597
REMARK  3 active torsions:
REMARK  status: ('A' for Active; 'I' for Inactive)
REMARK    1  A    between atoms: C_1  and  N_2
REMARK    2  A    between atoms: C_4  and  N_5
REMARK    3  A    between atoms: C_10  and  C_11
REMARK                            x       y       z     vdW  Elec       q    Type
REMARK                         _______ _______ _______ _____ _____    ______ ____
ROOT
ATOM      1  C   UNL     1       6.212   6.160  -2.292  0.00  0.00    +0.153 C 
ATOM      2  N   UNL     1       4.905   6.240  -1.634  0.00  0.00    -0.304 N 
ATOM      3  C   UNL     1       4.821   6.319  -0.266  0.00  0.00    +0.106 A 
ATOM      4  C   UNL     1       5.861   6.335   0.652  0.00  0.00    +0.211 C 
ATOM      5  S   UNL     1       3.120   6.392   0.054  0.00  0.00    -0.065 S 
ATOM      6  C   UNL     1       2.533   6.321  -1.577  0.00  0.00    +0.079 A 
ATOM      7  C   UNL     1       1.206   6.339  -2.041  0.00  0.00    +0.028 C 
ATOM      8  C   UNL     1       3.792   6.231  -2.352  0.00  0.00    +0.266 A 
ATOM      9  O   UNL     1       3.803   6.157  -3.567  0.00  0.00    -0.266 OA
ENDROOT
BRANCH   7  10
ATOM     10  C   UNL     1       0.931   6.709  -3.373  0.00  0.00    -0.022 A 
ATOM     11  C   UNL     1       1.733   7.669  -4.025  0.00  0.00    +0.008 A 
ATOM     12  C   UNL     1       1.459   8.022  -5.314  0.00  0.00    +0.002 A 
ATOM     13  C   UNL     1       0.394   7.443  -5.990  0.00  0.00    +0.020 A 
ATOM     14  C   UNL     1      -0.407   6.496  -5.365  0.00  0.00    +0.042 A 
ATOM     15  C   UNL     1      -0.150   6.124  -4.065  0.00  0.00    +0.028 A 
ATOM     16 CL   UNL     1      -1.735   5.781  -6.224  0.00  0.00    -0.084 Cl
ENDBRANCH   7  10
BRANCH   4  17
ATOM     17  N   UNL     1       7.216   5.896   0.243  0.00  0.00    +0.052 N 
ATOM     18  O   UNL     1       7.392   4.699  -0.277  0.00  0.00    -0.127 OA
ATOM     19  O   UNL     1       8.245   6.704   0.401  0.00  0.00    -0.127 OA
ENDBRANCH   4  17
TORSDOF 2
