REMARK  Name = ZINC16805049
REMARK  6 active torsions:
REMARK  status: ('A' for Active; 'I' for Inactive)
REMARK    1  A    between atoms: C_1  and  C_2
REMARK    2  A    between atoms: C_2  and  N_3
REMARK    3  A    between atoms: C_11  and  C_12
REMARK    4  A    between atoms: N_13  and  N_14
REMARK    5  A    between atoms: C_15  and  C_17
REMARK    6  A    between atoms: C_22  and  O_23
REMARK                            x       y       z     vdW  Elec       q    Type
REMARK                         _______ _______ _______ _____ _____    ______ ____
ROOT
ATOM      1  C   UNL     1       3.027  -0.566  -0.267  0.00  0.00    +0.176 C 
ATOM      2  N   UNL     1       4.278  -0.836  -0.500  0.00  0.00    -0.184 NA
ENDROOT
BRANCH   1  11
ATOM      3  N   UNL     1       0.688  -0.476  -1.203  0.00  0.00    -0.323 N 
ATOM      4  C   UNL     1       0.106  -0.746  -2.427  0.00  0.00    +0.069 A 
ATOM      5  C   UNL     1      -1.193  -0.677  -2.911  0.00  0.00    +0.028 A 
ATOM      6  C   UNL     1      -1.454  -1.025  -4.220  0.00  0.00    +0.002 A 
ATOM      7  C   UNL     1      -0.427  -1.443  -5.055  0.00  0.00    +0.002 A 
ATOM      8  C   UNL     1       0.857  -1.518  -4.597  0.00  0.00    +0.030 A 
ATOM      9  C   UNL     1       1.147  -1.170  -3.273  0.00  0.00    +0.090 A 
ATOM     10  N   UNL     1       2.287  -1.142  -2.552  0.00  0.00    -0.227 NA
ATOM     11  C   UNL     1       2.030  -0.729  -1.332  0.00  0.00    +0.154 A 
BRANCH   3  13
ATOM     12  C   UNL     1      -0.019   1.526   0.010  0.00  0.00    +0.027 C 
ATOM     13  C   UNL     1       0.002  -0.004   0.002  0.00  0.00    +0.120 C 
ENDBRANCH   3  13
ENDBRANCH   1  11
BRANCH   2  14
ATOM     14  N   UNL     1       5.229  -0.680   0.516  0.00  0.00    -0.203 N 
ATOM     15  C   UNL     1       6.525  -0.959   0.274  0.00  0.00    +0.267 C 
ATOM     16  O   UNL     1       6.869  -1.347  -0.826  0.00  0.00    -0.268 OA
ATOM     17  H   UNL     1       4.955  -0.371   1.394  0.00  0.00    +0.178 HD
BRANCH  15  18
ATOM     18  C   UNL     1       7.527  -0.796   1.344  0.00  0.00    +0.080 A 
ATOM     19  C   UNL     1       7.136  -0.357   2.612  0.00  0.00    +0.017 A 
ATOM     20  C   UNL     1       8.077  -0.206   3.607  0.00  0.00    +0.001 A 
ATOM     21  C   UNL     1       9.410  -0.488   3.357  0.00  0.00    +0.004 A 
ATOM     22  C   UNL     1       9.810  -0.922   2.109  0.00  0.00    +0.046 A 
ATOM     23  C   UNL     1       8.876  -1.085   1.097  0.00  0.00    +0.129 A 
BRANCH  23  24
ATOM     24  O   UNL     1       9.267  -1.517  -0.128  0.00  0.00    -0.506 OA
ATOM     25  H   UNL     1       9.514  -0.807  -0.736  0.00  0.00    +0.292 HD
ENDBRANCH  23  24
ENDBRANCH  15  18
ENDBRANCH   2  14
TORSDOF 5
