REMARK  Name = ZINC35047255
REMARK  5 active torsions:
REMARK  status: ('A' for Active; 'I' for Inactive)
REMARK    1  A    between atoms: C_1  and  C_2
REMARK    2  A    between atoms: C_2  and  C_3
REMARK    3  A    between atoms: C_3  and  C_5
REMARK    4  A    between atoms: C_3  and  N_6
REMARK    5  A    between atoms: C_15  and  C_21
REMARK                            x       y       z     vdW  Elec       q    Type
REMARK                         _______ _______ _______ _____ _____    ______ ____
ROOT
ATOM      1  N   UNL     1       2.125  -0.091  -1.209  0.00  0.00    -0.311 N 
ATOM      2  C   UNL     1       2.841   0.055  -2.380  0.00  0.00    +0.221 A 
ATOM      3  N   UNL     1       4.118   0.418  -2.338  0.00  0.00    -0.181 NA
ATOM      4  C   UNL     1       4.804   0.558  -3.466  0.00  0.00    +0.231 A 
ATOM      5  N   UNL     1       4.211   0.334  -4.636  0.00  0.00    -0.184 NA
ATOM      6  C   UNL     1       2.939  -0.028  -4.675  0.00  0.00    +0.229 A 
ATOM      7  N   UNL     1       2.254  -0.173  -3.552  0.00  0.00    -0.184 NA
ATOM      8 CL   UNL     1       2.168  -0.319  -6.203  0.00  0.00    -0.041 Cl
ATOM      9  N   UNL     1       6.135   0.937  -3.426  0.00  0.00    -0.228 N 
ATOM     10  C   UNL     1       7.011   1.135  -4.587  0.00  0.00    +0.229 C 
ATOM     11  O   UNL     1       8.302   1.534  -4.102  0.00  0.00    -0.350 OA
ATOM     12  C   UNL     1       8.084   1.978  -2.750  0.00  0.00    +0.233 C 
ATOM     13  C   UNL     1       6.869   1.200  -2.288  0.00  0.00    +0.124 C 
ATOM     14  N   UNL     1       6.582   0.854  -1.077  0.00  0.00    -0.287 NA
ATOM     15  H   UNL     1       2.553   0.075  -0.355  0.00  0.00    +0.149 HD
ATOM     16  H   UNL     1       5.772   0.352  -0.895  0.00  0.00    +0.188 HD
ENDROOT
BRANCH   1  17
ATOM     17  C   UNL     1       0.718  -0.497  -1.257  0.00  0.00    +0.070 C 
ATOM     18  C   UNL     1       0.630  -2.023  -1.329  0.00  0.00    +0.028 C 
BRANCH  17  20
ATOM     19  C   UNL     1      -0.019   1.526   0.010  0.00  0.00    +0.005 C 
ATOM     20  C   UNL     1       0.002  -0.004   0.002  0.00  0.00    +0.018 C 
ENDBRANCH  17  20
ENDBRANCH   1  17
BRANCH  10  21
ATOM     21  C   UNL     1       7.134  -0.172  -5.373  0.00  0.00    +0.160 C 
ATOM     22 CL   UNL     1       7.833  -1.449  -4.309  0.00  0.00    -0.121 Cl
ENDBRANCH  10  21
TORSDOF 3
