REMARK  Name = ZINC31809240
REMARK  7 active torsions:
REMARK  status: ('A' for Active; 'I' for Inactive)
REMARK    1  A    between atoms: C_1  and  C_2
REMARK    2  A    between atoms: C_18  and  O_33
REMARK    3  A    between atoms: C_21  and  C_23
REMARK    4  A    between atoms: C_27  and  O_29
REMARK    5  A    between atoms: O_29  and  C_30
REMARK    6  A    between atoms: C_30  and  C_31
REMARK    7  A    between atoms: C_30  and  C_32
REMARK                            x       y       z     vdW  Elec       q    Type
REMARK                         _______ _______ _______ _____ _____    ______ ____
ROOT
ATOM      1  C   UNL     1       0.604   1.677  -0.499  0.00  0.00    +0.068 C 
ATOM      2  C   UNL     1       0.637   0.174  -0.386  0.00  0.00    +0.067 A 
ATOM      3  C   UNL     1       0.213  -0.730  -1.378  0.00  0.00    +0.037 A 
ATOM      4  C   UNL     1       0.400  -1.996  -0.896  0.00  0.00    +0.166 A 
ATOM      5  N   UNL     1       0.939  -1.860   0.372  0.00  0.00    -0.194 N 
ATOM      6  N   UNL     1       1.068  -0.498   0.644  0.00  0.00    -0.168 NA
ATOM      7  C   UNL     1       1.293  -2.901   1.226  0.00  0.00    +0.187 A 
ATOM      8  C   UNL     1       1.828  -2.637   2.497  0.00  0.00    +0.152 A 
ATOM      9  C   UNL     1       2.167  -3.730   3.314  0.00  0.00    +0.163 A 
ATOM     10  N   UNL     1       2.658  -3.193   4.478  0.00  0.00    -0.329 N 
ATOM     11  H   UNL     1       2.979  -3.688   5.248  0.00  0.00    +0.168 HD
ATOM     12  C   UNL     1       2.611  -1.836   4.354  0.00  0.00    +0.198 A 
ATOM     13  N   UNL     1       2.124  -1.512   3.191  0.00  0.00    -0.231 NA
ATOM     14  N   UNL     1       1.971  -4.962   2.859  0.00  0.00    -0.216 NA
ATOM     15  C   UNL     1       1.466  -5.160   1.659  0.00  0.00    +0.226 A 
ATOM     16  N   UNL     1       1.129  -4.166   0.859  0.00  0.00    -0.214 NA
ATOM     17  N   UNL     1       0.150  -3.205  -1.424  0.00  0.00    -0.197 NA
ATOM     18  C   UNL     1      -0.318  -3.648  -2.499  0.00  0.00    +0.199 C 
ATOM     19  C   UNL     1      -0.756  -2.926  -3.711  0.00  0.00    +0.165 C 
ATOM     20  S   UNL     1      -1.593  -1.377  -3.347  0.00  0.00    -0.138 S 
ATOM     21  C   UNL     1      -0.329  -0.277  -2.701  0.00  0.00    +0.112 C 
ENDROOT
BRANCH  21  22
ATOM     22  C   UNL     1      -0.919   1.100  -2.539  0.00  0.00    -0.026 A 
ATOM     23  C   UNL     1      -2.107   1.266  -1.850  0.00  0.00    +0.005 A 
ATOM     24  C   UNL     1      -2.651   2.528  -1.700  0.00  0.00    +0.004 A 
ATOM     25  C   UNL     1      -2.009   3.627  -2.238  0.00  0.00    +0.045 A 
ATOM     26  C   UNL     1      -0.818   3.463  -2.929  0.00  0.00    +0.121 A 
ATOM     27  C   UNL     1      -0.271   2.196  -3.073  0.00  0.00    +0.050 A 
BRANCH  26  28
ATOM     28  O   UNL     1      -0.184   4.542  -3.459  0.00  0.00    -0.489 OA
BRANCH  28  29
ATOM     29  C   UNL     1       1.009   4.293  -4.205  0.00  0.00    +0.167 C 
ATOM     30  C   UNL     1       0.642   3.919  -5.642  0.00  0.00    +0.051 C 
ATOM     31  C   UNL     1       1.879   5.551  -4.211  0.00  0.00    +0.051 C 
ENDBRANCH  28  29
ENDBRANCH  26  28
ENDBRANCH  21  22
BRANCH  18  32
ATOM     32  O   UNL     1      -0.439  -4.990  -2.558  0.00  0.00    -0.495 OA
ATOM     33  H   UNL     1      -0.147  -5.447  -1.757  0.00  0.00    +0.293 HD
ENDBRANCH  18  32
TORSDOF 4
