REMARK  Name = ZINC63425413
REMARK  12 active torsions:
REMARK  status: ('A' for Active; 'I' for Inactive)
REMARK    1  A    between atoms: C_1  and  C_2
REMARK    2  A    between atoms: C_2  and  C_3
REMARK    3  A    between atoms: C_2  and  C_4
REMARK    4  A    between atoms: C_2  and  O_5
REMARK    5  A    between atoms: O_5  and  C_6
REMARK    6  A    between atoms: N_8  and  C_9
REMARK    7  A    between atoms: C_9  and  C_11
REMARK    8  A    between atoms: C_9  and  C_21
REMARK    9  A    between atoms: C_11  and  C_12
REMARK   10  A    between atoms: C_25  and  S_28
REMARK   11  A    between atoms: S_28  and  C_29
REMARK   12  A    between atoms: C_29  and  C_30
REMARK                            x       y       z     vdW  Elec       q    Type
REMARK                         _______ _______ _______ _____ _____    ______ ____
ROOT
ATOM      1  C   UNL     1       4.035  -0.071  -2.601  0.00  0.00    +0.133 C 
ENDROOT
BRANCH   1   2
ATOM      2  C   UNL     1       4.872  -0.581  -1.426  0.00  0.00    +0.280 C 
ATOM      3  N   UNL     1       6.285  -0.233  -1.618  0.00  0.00    -0.155 NA
ATOM      4  N   UNL     1       7.003  -1.204  -1.346  0.00  0.00    -0.146 NA
ATOM      5  C   UNL     1       6.175  -2.344  -0.933  0.00  0.00    +0.319 C 
ATOM      6  O   UNL     1       4.838  -2.022  -1.376  0.00  0.00    -0.316 OA
BRANCH   5   7
ATOM      7  S   UNL     1       6.756  -3.866  -1.729  0.00  0.00    -0.095 S 
BRANCH   7   8
ATOM      8  C   UNL     1       6.635  -3.508  -3.503  0.00  0.00    +0.169 C 
BRANCH   8   9
ATOM      9  C   UNL     1       7.094  -4.708  -4.291  0.00  0.00    +0.220 C 
ATOM     10  O   UNL     1       7.467  -5.706  -3.712  0.00  0.00    -0.275 OA
ATOM     11  N   UNL     1       7.091  -4.671  -5.638  0.00  0.00    -0.329 N 
ATOM     12  H   UNL     1       6.793  -3.872  -6.101  0.00  0.00    +0.145 HD
ATOM     13  H   UNL     1       7.387  -5.443  -6.145  0.00  0.00    +0.145 HD
ENDBRANCH   8   9
ENDBRANCH   7   8
ENDBRANCH   5   7
ENDBRANCH   1   2
BRANCH   1  16
ATOM     14  C   UNL     1       1.952  -0.085  -1.337  0.00  0.00    +0.401 C 
ATOM     15  O   UNL     1       2.488   0.619  -0.503  0.00  0.00    -0.226 OA
ATOM     16  N   UNL     1       2.641  -0.485  -2.424  0.00  0.00    -0.274 N 
ATOM     17  H   UNL     1       2.213  -1.047  -3.089  0.00  0.00    +0.152 HD
BRANCH  14  18
ATOM     18  O   UNL     1       0.671  -0.465  -1.174  0.00  0.00    -0.445 OA
BRANCH  18  20
ATOM     19  C   UNL     1      -0.019   1.526   0.010  0.00  0.00    +0.055 C 
ATOM     20  C   UNL     1       0.002  -0.004   0.002  0.00  0.00    +0.107 C 
ATOM     21  C   UNL     1       0.742  -0.511   1.242  0.00  0.00    +0.055 C 
ATOM     22  C   UNL     1      -1.433  -0.534   0.013  0.00  0.00    +0.055 C 
ENDBRANCH  18  20
ENDBRANCH  14  18
ENDBRANCH   1  16
BRANCH   1  23
ATOM     23  C   UNL     1       4.111   1.456  -2.657  0.00  0.00    +0.060 C 
BRANCH  23  24
ATOM     24  C   UNL     1       3.389   1.950  -3.884  0.00  0.00    -0.040 C 
ATOM     25  C   UNL     1       2.108   2.377  -3.958  0.00  0.00    -0.001 A 
ATOM     26  C   UNL     1       1.043   2.502  -2.955  0.00  0.00    +0.010 A 
ATOM     27  C   UNL     1      -0.167   2.972  -3.338  0.00  0.00    +0.001 A 
ATOM     28  C   UNL     1      -0.428   3.340  -4.665  0.00  0.00    +0.002 A 
ATOM     29  C   UNL     1       0.500   3.252  -5.642  0.00  0.00    +0.026 A 
ATOM     30  C   UNL     1       1.807   2.772  -5.352  0.00  0.00    +0.043 A 
ATOM     31  N   UNL     1       2.861   2.597  -6.111  0.00  0.00    -0.380 N 
ATOM     32  C   UNL     1       3.953   2.076  -5.282  0.00  0.00    +0.144 C 
ATOM     33  H   UNL     1       2.912   2.785  -7.061  0.00  0.00    +0.160 HD
ENDBRANCH  23  24
ENDBRANCH   1  23
TORSDOF 9
