REMARK  Name = ZINC12846350
REMARK  6 active torsions:
REMARK  status: ('A' for Active; 'I' for Inactive)
REMARK    1  A    between atoms: C_1  and  C_2
REMARK    2  A    between atoms: C_5  and  N_8
REMARK    3  A    between atoms: C_18  and  S_19
REMARK    4  A    between atoms: S_19  and  C_20
REMARK    5  A    between atoms: C_20  and  C_21
REMARK    6  A    between atoms: C_21  and  N_22
REMARK                            x       y       z     vdW  Elec       q    Type
REMARK                         _______ _______ _______ _____ _____    ______ ____
ROOT
ATOM      1  N   UNL     1       7.462   1.775  -3.673  0.00  0.00    -0.255 N 
ATOM      2  C   UNL     1       7.583   2.301  -4.914  0.00  0.00    +0.267 A 
ATOM      3  O   UNL     1       8.586   2.907  -5.247  0.00  0.00    -0.267 OA
ATOM      4  C   UNL     1       6.463   2.115  -5.844  0.00  0.00    +0.065 A 
ATOM      5  C   UNL     1       6.494   2.621  -7.143  0.00  0.00    +0.017 A 
ATOM      6  C   UNL     1       5.425   2.423  -7.972  0.00  0.00    +0.021 A 
ATOM      7  C   UNL     1       4.307   1.722  -7.535  0.00  0.00    +0.043 A 
ATOM      8  C   UNL     1       4.250   1.212  -6.256  0.00  0.00    +0.048 A 
ATOM      9  C   UNL     1       5.330   1.402  -5.390  0.00  0.00    +0.080 A 
ATOM     10  N   UNL     1       5.319   0.915  -4.127  0.00  0.00    -0.223 NA
ATOM     11  C   UNL     1       6.330   1.098  -3.314  0.00  0.00    +0.177 A 
ATOM     12 CL   UNL     1       2.966   1.487  -8.613  0.00  0.00    -0.083 Cl
ENDROOT
BRANCH   1  17
ATOM     13  C   UNL     1      11.685   2.387   0.068  0.00  0.00    +0.044 C 
ATOM     14  C   UNL     1      10.564   2.224  -0.925  0.00  0.00    -0.050 A 
ATOM     15  C   UNL     1      10.541   1.128  -1.768  0.00  0.00    +0.005 A 
ATOM     16  C   UNL     1       9.515   0.976  -2.679  0.00  0.00    +0.026 A 
ATOM     17  C   UNL     1       8.505   1.926  -2.749  0.00  0.00    +0.052 A 
ATOM     18  C   UNL     1       8.532   3.028  -1.905  0.00  0.00    +0.026 A 
ATOM     19  C   UNL     1       9.559   3.172  -0.993  0.00  0.00    +0.005 A 
ENDBRANCH   1  17
BRANCH  11  20
ATOM     20  S   UNL     1       6.228   0.435  -1.684  0.00  0.00    -0.086 S 
BRANCH  20  21
ATOM     21  C   UNL     1       4.587  -0.324  -1.755  0.00  0.00    +0.096 C 
BRANCH  21  22
ATOM     22  C   UNL     1       4.271  -0.983  -0.411  0.00  0.00    +0.122 C 
BRANCH  22  23
ATOM     23  N   UNL     1       2.942  -1.597  -0.468  0.00  0.00    -0.263 N 
ATOM     24  C   UNL     1       2.655  -2.977  -0.887  0.00  0.00    +0.152 C 
ATOM     25  C   UNL     1       1.123  -3.088  -0.760  0.00  0.00    +0.253 C 
ATOM     26  O   UNL     1       0.712  -1.773  -0.287  0.00  0.00    -0.449 OA
ATOM     27  C   UNL     1       1.789  -0.992  -0.148  0.00  0.00    +0.403 C 
ATOM     28  O   UNL     1       1.729   0.160   0.233  0.00  0.00    -0.226 OA
ENDBRANCH  22  23
ENDBRANCH  21  22
ENDBRANCH  20  21
ENDBRANCH  11  20
TORSDOF 5
