REMARK  Name = ZINC40981117
REMARK  13 active torsions:
REMARK  status: ('A' for Active; 'I' for Inactive)
REMARK    1  A    between atoms: C_1  and  C_2
REMARK    2  A    between atoms: C_2  and  C_3
REMARK    3  A    between atoms: C_3  and  S_4
REMARK    4  A    between atoms: S_4  and  C_5
REMARK    5  A    between atoms: C_10  and  C_19
REMARK    6  A    between atoms: C_12  and  C_16
REMARK    7  A    between atoms: C_13  and  C_15
REMARK    8  A    between atoms: C_22  and  O_28
REMARK    9  A    between atoms: C_23  and  O_25
REMARK   10  A    between atoms: O_25  and  C_26
REMARK   11  A    between atoms: C_26  and  C_27
REMARK   12  A    between atoms: O_28  and  C_29
REMARK   13  A    between atoms: C_29  and  C_30
REMARK                            x       y       z     vdW  Elec       q    Type
REMARK                         _______ _______ _______ _____ _____    ______ ____
ROOT
ATOM      1  C   UNL     1       1.265  -2.758   2.961  0.00  0.00    +0.210 A 
ATOM      2  N   UNL     1       1.812  -1.887   3.822  0.00  0.00    -0.187 NA
ATOM      3  C   UNL     1       2.558  -2.531   4.678  0.00  0.00    +0.219 A 
ATOM      4  N   UNL     1       2.506  -3.851   4.374  0.00  0.00    -0.220 N 
ATOM      5  N   UNL     1       1.662  -3.974   3.271  0.00  0.00    -0.141 NA
ATOM      6  C   UNL     1       3.230  -4.880   5.115  0.00  0.00    +0.177 C 
ATOM      7  C   UNL     1       3.764  -4.294   6.395  0.00  0.00    +0.060 C 
ATOM      8  C   UNL     1       3.787  -2.976   6.643  0.00  0.00    +0.018 C 
ATOM      9  N   UNL     1       3.308  -2.054   5.744  0.00  0.00    -0.287 N 
ATOM     10  C   UNL     1       4.356  -2.491   7.951  0.00  0.00    +0.061 C 
ATOM     11  H   UNL     1       3.488  -1.107   5.851  0.00  0.00    +0.155 HD
ENDROOT
BRANCH   6  12
ATOM     12  C   UNL     1       4.375  -5.391   4.279  0.00  0.00    -0.015 A 
ATOM     13  C   UNL     1       5.368  -4.522   3.866  0.00  0.00    +0.010 A 
ATOM     14  C   UNL     1       6.420  -4.986   3.099  0.00  0.00    +0.050 A 
ATOM     15  C   UNL     1       6.482  -6.323   2.743  0.00  0.00    +0.162 A 
ATOM     16  C   UNL     1       5.483  -7.197   3.159  0.00  0.00    +0.162 A 
ATOM     17  C   UNL     1       4.433  -6.728   3.932  0.00  0.00    +0.055 A 
BRANCH  16  18
ATOM     18  O   UNL     1       5.539  -8.511   2.812  0.00  0.00    -0.489 OA
BRANCH  18  19
ATOM     19  C   UNL     1       4.479  -9.350   3.276  0.00  0.00    +0.226 C 
ATOM     20  C   UNL     1       4.712 -10.782   2.790  0.00  0.00    +0.048 C 
ENDBRANCH  18  19
ENDBRANCH  16  18
BRANCH  15  21
ATOM     21  O   UNL     1       7.516  -6.781   1.988  0.00  0.00    -0.484 OA
BRANCH  21  22
ATOM     22  C   UNL     1       8.505  -5.826   1.596  0.00  0.00    +0.266 C 
BRANCH  22  23
ATOM     23  C   UNL     1       9.565  -6.511   0.771  0.00  0.00    +0.008 A 
ATOM     24  C   UNL     1       9.467  -7.863   0.505  0.00  0.00    +0.008 A 
ATOM     25  C   UNL     1      10.439  -8.491  -0.252  0.00  0.00    +0.000 A 
ATOM     26  C   UNL     1      11.509  -7.766  -0.742  0.00  0.00    +0.001 A 
ATOM     27  C   UNL     1      11.608  -6.414  -0.476  0.00  0.00    +0.020 A 
ATOM     28  C   UNL     1      10.633  -5.784   0.276  0.00  0.00    +0.047 A 
ATOM     29 CL   UNL     1      10.753  -4.083   0.605  0.00  0.00    -0.083 Cl
ENDBRANCH  22  23
ENDBRANCH  21  22
ENDBRANCH  15  21
ENDBRANCH   6  12
BRANCH   7  30
ATOM     30  C   UNL     1       4.267  -5.175   7.382  0.00  0.00    +0.241 C 
ATOM     31  O   UNL     1       3.498  -5.839   8.053  0.00  0.00    -0.271 OA
ATOM     32  N   UNL     1       5.596  -5.277   7.579  0.00  0.00    -0.325 N 
ATOM     33  H   UNL     1       6.208  -4.748   7.045  0.00  0.00    +0.145 HD
ATOM     34  H   UNL     1       5.941  -5.881   8.256  0.00  0.00    +0.145 HD
ENDBRANCH   7  30
BRANCH   1  35
ATOM     35  S   UNL     1       0.183  -2.343   1.634  0.00  0.00    -0.084 S 
BRANCH  35  36
ATOM     36  C   UNL     1       0.033  -0.538   1.739  0.00  0.00    +0.077 C 
BRANCH  36  38
ATOM     37  C   UNL     1      -1.020   1.484   0.717  0.00  0.00    +0.004 C 
ATOM     38  C   UNL     1      -0.893  -0.038   0.628  0.00  0.00    +0.008 C 
ENDBRANCH  36  38
ENDBRANCH  35  36
ENDBRANCH   1  35
TORSDOF 10
