REMARK  Name = ZINC54579619
REMARK  9 active torsions:
REMARK  status: ('A' for Active; 'I' for Inactive)
REMARK    1  A    between atoms: C_1  and  C_2
REMARK    2  A    between atoms: C_2  and  N_3
REMARK    3  A    between atoms: C_7  and  N_9
REMARK    4  A    between atoms: N_12  and  C_13
REMARK    5  A    between atoms: C_13  and  C_14
REMARK    6  A    between atoms: C_13  and  C_15
REMARK    7  A    between atoms: C_18  and  S_21
REMARK    8  A    between atoms: S_21  and  N_24
REMARK    9  A    between atoms: N_24  and  C_25
REMARK                            x       y       z     vdW  Elec       q    Type
REMARK                         _______ _______ _______ _____ _____    ______ ____
ROOT
ATOM      1  N   UNL     1      -2.765  -3.965   0.328  0.00  0.00    -0.298 N 
ATOM      2  C   UNL     1      -3.795  -4.614   0.906  0.00  0.00    +0.300 C 
ATOM      3  O   UNL     1      -4.744  -3.987   1.336  0.00  0.00    -0.253 OA
ATOM      4  N   UNL     1      -3.773  -5.958   1.007  0.00  0.00    -0.293 N 
ATOM      5  H   UNL     1      -2.008  -4.465  -0.015  0.00  0.00    +0.150 HD
ATOM      6  H   UNL     1      -3.016  -6.458   0.664  0.00  0.00    +0.151 HD
ENDROOT
BRANCH   1  11
ATOM      7  N   UNL     1      -1.376  -0.512   0.012  0.00  0.00    +0.381 N 
ATOM      8  C   UNL     1      -2.051  -0.118  -1.230  0.00  0.00    -0.079 C 
ATOM      9  C   UNL     1      -3.511  -0.575  -1.189  0.00  0.00    -0.017 C 
ATOM     10  C   UNL     1      -3.559  -2.099  -1.042  0.00  0.00    +0.018 C 
ATOM     11  C   UNL     1      -2.788  -2.505   0.218  0.00  0.00    +0.058 C 
ATOM     12  C   UNL     1      -1.355  -1.976   0.125  0.00  0.00    -0.056 C 
ATOM     13  H   UNL     1      -1.871  -0.123   0.800  0.00  0.00    -0.082 HD
BRANCH   7  15
ATOM     14  C   UNL     1      -0.019   1.526   0.010  0.00  0.00    -0.017 C 
ATOM     15  C   UNL     1       0.002  -0.004   0.002  0.00  0.00    -0.082 C 
ENDBRANCH   7  15
ENDBRANCH   1  11
BRANCH   4  16
ATOM     16  C   UNL     1      -4.893  -6.663   1.635  0.00  0.00    +0.102 C 
ATOM     17  C   UNL     1      -5.990  -6.906   0.597  0.00  0.00    +0.033 C 
BRANCH  16  18
ATOM     18  C   UNL     1      -4.413  -7.985   2.177  0.00  0.00    -0.027 A 
ATOM     19  C   UNL     1      -3.508  -8.741   1.455  0.00  0.00    +0.007 A 
ATOM     20  C   UNL     1      -3.068  -9.953   1.952  0.00  0.00    +0.029 A 
ATOM     21  C   UNL     1      -3.533 -10.410   3.171  0.00  0.00    +0.105 A 
ATOM     22  C   UNL     1      -4.437  -9.655   3.894  0.00  0.00    +0.029 A 
ATOM     23  C   UNL     1      -4.874  -8.440   3.399  0.00  0.00    +0.007 A 
BRANCH  21  24
ATOM     24  S   UNL     1      -2.973 -11.956   3.804  0.00  0.00    +0.058 S 
ATOM     25  O   UNL     1      -3.972 -12.412   4.705  0.00  0.00    -0.153 OA
ATOM     26  O   UNL     1      -2.548 -12.723   2.686  0.00  0.00    -0.153 OA
BRANCH  24  27
ATOM     27  N   UNL     1      -1.621 -11.653   4.711  0.00  0.00    -0.193 NA
ATOM     28  C   UNL     1      -1.723 -10.853   5.934  0.00  0.00    +0.127 C 
ATOM     29  H   UNL     1      -0.761 -12.006   4.433  0.00  0.00    +0.148 HD
ENDBRANCH  24  27
ENDBRANCH  21  24
ENDBRANCH  16  18
ENDBRANCH   4  16
TORSDOF 6
