REMARK  Name = ZINC63804507
REMARK  12 active torsions:
REMARK  status: ('A' for Active; 'I' for Inactive)
REMARK    1  A    between atoms: C_1  and  C_2
REMARK    2  A    between atoms: C_2  and  O_3
REMARK    3  A    between atoms: O_3  and  C_4
REMARK    4  A    between atoms: C_7  and  S_11
REMARK    5  A    between atoms: C_9  and  C_10
REMARK    6  A    between atoms: S_11  and  N_14
REMARK    7  A    between atoms: N_14  and  C_15
REMARK    8  A    between atoms: C_15  and  C_16
REMARK    9  A    between atoms: C_16  and  C_17
REMARK   10  A    between atoms: C_20  and  O_28
REMARK   11  A    between atoms: C_25  and  C_27
REMARK   12  A    between atoms: O_28  and  C_29
REMARK                            x       y       z     vdW  Elec       q    Type
REMARK                         _______ _______ _______ _____ _____    ______ ____
ROOT
ATOM      1  C   UNL     1      -1.481  -7.210  -4.767  0.00  0.00    +0.050 C 
ENDROOT
BRANCH   1   2
ATOM      2  C   UNL     1      -1.692  -6.748  -6.185  0.00  0.00    -0.037 C 
ATOM      3  C   UNL     1      -1.055  -5.733  -6.813  0.00  0.00    +0.003 A 
ATOM      4  C   UNL     1      -0.017  -4.791  -6.381  0.00  0.00    +0.056 A 
ATOM      5  C   UNL     1       0.439  -3.857  -7.250  0.00  0.00    +0.129 A 
ATOM      6  C   UNL     1      -0.049  -3.753  -8.564  0.00  0.00    +0.048 A 
ATOM      7  C   UNL     1      -1.003  -4.574  -9.053  0.00  0.00    +0.029 A 
ATOM      8  C   UNL     1      -1.568  -5.623  -8.198  0.00  0.00    +0.043 A 
ATOM      9  N   UNL     1      -2.485  -6.532  -8.418  0.00  0.00    -0.378 N 
ATOM     10  C   UNL     1      -2.654  -7.330  -7.197  0.00  0.00    +0.103 C 
ATOM     11  C   UNL     1      -2.310  -8.795  -7.470  0.00  0.00    +0.035 C 
ATOM     12  H   UNL     1      -2.968  -6.660  -9.249  0.00  0.00    +0.160 HD
BRANCH   5  13
ATOM     13  O   UNL     1       1.401  -2.991  -6.836  0.00  0.00    -0.420 OA
BRANCH  13  14
ATOM     14  C   UNL     1       1.853  -2.022  -7.785  0.00  0.00    +0.489 C 
ATOM     15  F   UNL     1       2.390  -2.676  -8.899  0.00  0.00    -0.149 F 
ATOM     16  F   UNL     1       0.776  -1.225  -8.186  0.00  0.00    -0.149 F 
ATOM     17 CL   UNL     1       3.119  -0.985  -7.028  0.00  0.00    +0.000 Cl
ENDBRANCH  13  14
ENDBRANCH   5  13
ENDBRANCH   1   2
BRANCH   1  18
ATOM     18  C   UNL     1      -0.413  -6.340  -4.100  0.00  0.00    +0.110 C 
BRANCH  18  19
ATOM     19  N   UNL     1      -0.208  -6.790  -2.721  0.00  0.00    -0.190 NA
ATOM     20  H   UNL     1      -0.855  -7.378  -2.301  0.00  0.00    +0.148 HD
BRANCH  19  21
ATOM     21  S   UNL     1       1.128  -6.292  -1.878  0.00  0.00    +0.058 S 
ATOM     22  O   UNL     1       2.248  -6.512  -2.725  0.00  0.00    -0.153 OA
ATOM     23  O   UNL     1       1.028  -6.867  -0.583  0.00  0.00    -0.153 OA
BRANCH  21  27
ATOM     24  C   UNL     1       0.777  -1.810  -1.336  0.00  0.00    +0.123 A 
ATOM     25  C   UNL     1       0.243  -2.669  -0.386  0.00  0.00    +0.048 A 
ATOM     26  C   UNL     1       0.351  -4.036  -0.554  0.00  0.00    +0.032 A 
ATOM     27  C   UNL     1       0.991  -4.548  -1.667  0.00  0.00    +0.106 A 
ATOM     28  C   UNL     1       1.525  -3.695  -2.615  0.00  0.00    +0.035 A 
ATOM     29  C   UNL     1       1.414  -2.327  -2.455  0.00  0.00    -0.007 A 
ATOM     30  C   UNL     1       1.990  -1.397  -3.491  0.00  0.00    +0.047 C 
BRANCH  24  31
ATOM     31  O   UNL     1       0.671  -0.465  -1.174  0.00  0.00    -0.492 OA
BRANCH  31  33
ATOM     32  C   UNL     1      -0.019   1.526   0.010  0.00  0.00    +0.048 C 
ATOM     33  C   UNL     1       0.002  -0.004   0.002  0.00  0.00    +0.225 C 
ENDBRANCH  31  33
ENDBRANCH  24  31
ENDBRANCH  21  27
ENDBRANCH  19  21
ENDBRANCH  18  19
ENDBRANCH   1  18
TORSDOF 9
