REMARK  Name = ZINC05074231
REMARK  12 active torsions:
REMARK  status: ('A' for Active; 'I' for Inactive)
REMARK    1  A    between atoms: C_1  and  C_2
REMARK    2  A    between atoms: C_6  and  N_8
REMARK    3  A    between atoms: C_10  and  C_17
REMARK    4  A    between atoms: C_13  and  C_16
REMARK    5  A    between atoms: C_22  and  C_24
REMARK    6  A    between atoms: C_24  and  C_25
REMARK    7  A    between atoms: C_25  and  C_27
REMARK    8  A    between atoms: C_25  and  C_28
REMARK    9  A    between atoms: C_28  and  C_29
REMARK   10  A    between atoms: C_29  and  C_30
REMARK   11  A    between atoms: C_29  and  C_31
REMARK   12  A    between atoms: C_29  and  C_32
REMARK                            x       y       z     vdW  Elec       q    Type
REMARK                         _______ _______ _______ _____ _____    ______ ____
ROOT
ATOM      1  C   UNL     1       5.827   6.595  -0.700  0.00  0.00    +0.088 C 
ATOM      2  C   UNL     1       4.651   5.813  -0.172  0.00  0.00    +0.128 A 
ATOM      3  N   UNL     1       4.738   4.503  -0.092  0.00  0.00    -0.237 NA
ATOM      4  C   UNL     1       3.727   3.768   0.369  0.00  0.00    +0.053 A 
ATOM      5  C   UNL     1       2.580   4.404   0.774  0.00  0.00    +0.031 A 
ATOM      6  C   UNL     1       2.515   5.799   0.672  0.00  0.00    +0.130 A 
ATOM      7  N   UNL     1       3.565   6.461   0.198  0.00  0.00    -0.217 NA
ATOM      8  C   UNL     1       1.397   3.665   1.329  0.00  0.00    +0.148 C 
ATOM      9  N   UNL     1       1.568   2.223   1.112  0.00  0.00    -0.297 N 
ATOM     10  C   UNL     1       2.895   1.649   1.392  0.00  0.00    +0.114 C 
ATOM     11  C   UNL     1       3.895   2.274   0.420  0.00  0.00    +0.075 C 
ATOM     12  C   UNL     1       0.552   1.456   0.669  0.00  0.00    +0.216 C 
ATOM     13  O   UNL     1      -0.530   1.954   0.441  0.00  0.00    -0.276 OA
ENDROOT
BRANCH   6  14
ATOM     14  N   UNL     1       1.373   6.479   1.062  0.00  0.00    -0.310 N 
ATOM     15  C   UNL     1       0.712   7.103  -0.094  0.00  0.00    +0.138 C 
ATOM     16  C   UNL     1      -0.574   7.791   0.371  0.00  0.00    +0.133 C 
ATOM     17  O   UNL     1      -0.258   8.742   1.392  0.00  0.00    -0.371 OA
ATOM     18  C   UNL     1       0.387   8.169   2.532  0.00  0.00    +0.133 C 
ATOM     19  C   UNL     1       1.683   7.484   2.089  0.00  0.00    +0.138 C 
ATOM     20  C   UNL     1      -0.540   7.138   3.179  0.00  0.00    +0.039 C 
ATOM     21  C   UNL     1      -1.226   8.510  -0.812  0.00  0.00    +0.039 C 
ENDBRANCH   6  14
BRANCH  12  22
ATOM     22  C   UNL     1       0.763  -0.020   0.450  0.00  0.00    +0.099 C 
BRANCH  22  23
ATOM     23  C   UNL     1      -0.538  -0.652  -0.050  0.00  0.00    -0.005 C 
ATOM     24  C   UNL     1      -0.883  -0.084  -1.429  0.00  0.00    +0.008 C 
BRANCH  23  25
ATOM     25  C   UNL     1      -0.361  -2.169  -0.153  0.00  0.00    +0.010 C 
BRANCH  25  26
ATOM     26  C   UNL     1      -1.708  -2.818  -0.477  0.00  0.00    -0.037 C 
ATOM     27  C   UNL     1      -2.151  -2.402  -1.881  0.00  0.00    +0.010 C 
ATOM     28  C   UNL     1      -1.569  -4.340  -0.416  0.00  0.00    +0.010 C 
ATOM     29  C   UNL     1      -2.753  -2.361   0.543  0.00  0.00    +0.010 C 
ENDBRANCH  25  26
ENDBRANCH  23  25
ENDBRANCH  22  23
ENDBRANCH  12  22
TORSDOF 5
