REMARK  Name = ZINC02851695
REMARK  6 active torsions:
REMARK  status: ('A' for Active; 'I' for Inactive)
REMARK    1  A    between atoms: C_6  and  C_7
REMARK    2  A    between atoms: C_6  and  N_40
REMARK    3  A    between atoms: N_9  and  C_10
REMARK    4  A    between atoms: C_10  and  C_11
REMARK    5  A    between atoms: C_11  and  N_12
REMARK    6  A    between atoms: N_12  and  C_13
REMARK                            x       y       z     vdW  Elec       q    Type
REMARK                         _______ _______ _______ _____ _____    ______ ____
ROOT
ATOM      1  C   UNL     1       6.099   6.016   0.395  0.00  0.00    +0.120 C 
ENDROOT
BRANCH   1   2
ATOM      2  N   UNL     1       6.089   7.449   0.075  0.00  0.00    -0.340 N 
ATOM      3  H   UNL     1       5.589   7.625  -0.784  0.00  0.00    +0.146 HD
BRANCH   2   4
ATOM      4  C   UNL     1       7.390   7.958   0.011  0.00  0.00    +0.067 A 
ATOM      5  C   UNL     1       8.217   7.897   1.126  0.00  0.00    +0.083 A 
ATOM      6  C   UNL     1       9.506   8.395   1.059  0.00  0.00    +0.081 A 
ATOM      7  C   UNL     1       9.968   8.964  -0.116  0.00  0.00    +0.080 A 
ATOM      8  C   UNL     1       9.145   9.031  -1.227  0.00  0.00    +0.081 A 
ATOM      9  C   UNL     1       7.857   8.529  -1.166  0.00  0.00    +0.083 A 
ATOM     10 CL   UNL     1       6.825   8.613  -2.560  0.00  0.00    -0.080 Cl
ATOM     11 CL   UNL     1       9.729   9.744  -2.698  0.00  0.00    -0.080 Cl
ATOM     12 CL   UNL     1      11.584   9.595  -0.195  0.00  0.00    -0.080 Cl
ATOM     13 CL   UNL     1      10.541   8.314   2.450  0.00  0.00    -0.080 Cl
ATOM     14 CL   UNL     1       7.635   7.191   2.602  0.00  0.00    -0.080 Cl
ENDBRANCH   2   4
ENDBRANCH   1   2
BRANCH   1  15
ATOM     15  C   UNL     1       4.660   5.497   0.456  0.00  0.00    +0.122 C 
BRANCH  15  18
ATOM     16  C   UNL     1       3.509   3.393   0.882  0.00  0.00    +0.196 C 
ATOM     17  O   UNL     1       2.455   3.969   0.713  0.00  0.00    -0.278 OA
ATOM     18  N   UNL     1       4.670   4.067   0.775  0.00  0.00    -0.315 N 
ATOM     19  H   UNL     1       5.513   3.606   0.910  0.00  0.00    +0.149 HD
BRANCH  16  20
ATOM     20  C   UNL     1       3.519   1.922   1.210  0.00  0.00    +0.019 C 
BRANCH  20  26
ATOM     21  C   UNL     1       2.087  -0.010   1.502  0.00  0.00    -0.050 C 
ATOM     22  C   UNL     1       0.630  -0.455   1.655  0.00  0.00    +0.141 C 
ATOM     23  O   UNL     1       0.063   0.177   2.806  0.00  0.00    -0.383 OA
ATOM     24  C   UNL     1       0.098   1.606   2.754  0.00  0.00    +0.141 C 
ATOM     25  C   UNL     1       1.549   2.071   2.612  0.00  0.00    -0.050 C 
ATOM     26  N   UNL     1       2.124   1.464   1.394  0.00  0.00    +0.388 N 
ATOM     27  H   UNL     1       1.568   1.753   0.581  0.00  0.00    -0.081 HD
ENDBRANCH  20  26
ENDBRANCH  16  20
ENDBRANCH  15  18
ENDBRANCH   1  15
TORSDOF 6
