REMARK  Name = ZINC66421505
REMARK  7 active torsions:
REMARK  status: ('A' for Active; 'I' for Inactive)
REMARK    1  A    between atoms: C_1  and  C_2
REMARK    2  A    between atoms: C_9  and  C_11
REMARK    3  A    between atoms: N_14  and  C_17
REMARK    4  A    between atoms: C_17  and  C_19
REMARK    5  A    between atoms: C_17  and  C_20
REMARK    6  A    between atoms: C_23  and  O_26
REMARK    7  A    between atoms: O_26  and  C_27
REMARK                            x       y       z     vdW  Elec       q    Type
REMARK                         _______ _______ _______ _____ _____    ______ ____
ROOT
ATOM      1  C   UNL     1       1.619  -4.233   1.553  0.00  0.00    +0.072 C 
ATOM      2  C   UNL     1       0.734  -4.547   2.762  0.00  0.00    -0.006 C 
ATOM      3  C   UNL     1       0.675  -6.062   2.965  0.00  0.00    -0.077 C 
ATOM      4  N   UNL     1       2.028  -6.582   3.199  0.00  0.00    +0.384 N 
ATOM      5  C   UNL     1       2.863  -6.348   2.015  0.00  0.00    -0.077 C 
ATOM      6  C   UNL     1       3.006  -4.843   1.776  0.00  0.00    -0.006 C 
ATOM      7  H   UNL     1       2.434  -6.112   3.994  0.00  0.00    -0.081 HD
ENDROOT
BRANCH   1  15
ATOM      8  C   UNL     1       0.641   1.368  -0.869  0.00  0.00    +0.009 C 
ATOM      9  C   UNL     1       0.715  -0.157  -0.780  0.00  0.00    +0.003 C 
ATOM     10  C   UNL     1      -0.557  -0.766  -1.376  0.00  0.00    +0.006 C 
ATOM     11  C   UNL     1      -0.469  -2.293  -1.317  0.00  0.00    +0.019 C 
ATOM     12  C   UNL     1      -0.359  -2.738   0.144  0.00  0.00    +0.108 C 
ATOM     13  N   UNL     1       0.778  -2.044   0.765  0.00  0.00    -0.301 N 
ATOM     14  C   UNL     1       0.840  -0.579   0.687  0.00  0.00    +0.111 C 
ATOM     15  C   UNL     1       1.746  -2.740   1.395  0.00  0.00    +0.219 C 
ATOM     16  O   UNL     1       2.718  -2.163   1.835  0.00  0.00    -0.275 OA
ENDBRANCH   1  15
BRANCH   4  17
ATOM     17  C   UNL     1       1.957  -8.024   3.470  0.00  0.00    -0.041 C 
ATOM     18  C   UNL     1       3.367  -8.566   3.714  0.00  0.00    -0.008 C 
BRANCH  17  19
ATOM     19  C   UNL     1       1.107  -8.265   4.691  0.00  0.00    -0.061 A 
ATOM     20  C   UNL     1       1.204  -7.415   5.777  0.00  0.00    +0.005 A 
ATOM     21  C   UNL     1       0.426  -7.634   6.898  0.00  0.00    +0.046 A 
ATOM     22  C   UNL     1      -0.452  -8.707   6.932  0.00  0.00    +0.127 A 
ATOM     23  C   UNL     1      -0.547  -9.558   5.841  0.00  0.00    +0.046 A 
ATOM     24  C   UNL     1       0.229  -9.332   4.720  0.00  0.00    +0.005 A 
BRANCH  22  25
ATOM     25  O   UNL     1      -1.218  -8.925   8.034  0.00  0.00    -0.434 OA
BRANCH  25  26
ATOM     26  C   UNL     1      -2.100 -10.049   7.999  0.00  0.00    +0.541 C 
ATOM     27  F   UNL     1      -3.000  -9.903   6.938  0.00  0.00    -0.166 F 
ATOM     28  F   UNL     1      -1.355 -11.220   7.821  0.00  0.00    -0.166 F 
ENDBRANCH  25  26
ENDBRANCH  22  25
ENDBRANCH  17  19
ENDBRANCH   4  17
TORSDOF 5
