REMARK  Name = ZINC01398004
REMARK  8 active torsions:
REMARK  status: ('A' for Active; 'I' for Inactive)
REMARK    1  A    between atoms: C_1  and  C_2
REMARK    2  A    between atoms: C_2  and  O_3
REMARK    3  A    between atoms: O_3  and  C_4
REMARK    4  A    between atoms: C_4  and  C_6
REMARK    5  A    between atoms: C_7  and  C_17
REMARK    6  A    between atoms: C_8  and  C_15
REMARK    7  A    between atoms: N_11  and  N_14
REMARK    8  A    between atoms: C_12  and  N_13
REMARK                            x       y       z     vdW  Elec       q    Type
REMARK                         _______ _______ _______ _____ _____    ______ ____
ROOT
ATOM      1  C   UNL     1      -2.868  -2.415  -0.220  0.00  0.00    +0.107 A 
ATOM      2  C   UNL     1      -4.006  -1.579  -0.102  0.00  0.00    +0.022 A 
ATOM      3  C   UNL     1      -5.255  -2.173   0.143  0.00  0.00    +0.126 A 
ATOM      4  C   UNL     1      -5.340  -3.581   0.266  0.00  0.00    +0.287 A 
ATOM      5  O   UNL     1      -6.419  -4.105   0.479  0.00  0.00    -0.265 OA
ATOM      6  N   UNL     1      -4.240  -4.346   0.149  0.00  0.00    -0.218 N 
ATOM      7  C   UNL     1      -3.019  -3.800  -0.095  0.00  0.00    +0.132 A 
ENDROOT
BRANCH   2   8
ATOM      8  C   UNL     1      -3.882  -0.113  -0.235  0.00  0.00    -0.015 A 
ATOM      9  C   UNL     1      -3.498   0.451  -1.454  0.00  0.00    +0.010 A 
ATOM     10  C   UNL     1      -3.384   1.820  -1.572  0.00  0.00    +0.020 A 
ATOM     11  C   UNL     1      -3.648   2.636  -0.484  0.00  0.00    +0.041 A 
ATOM     12  C   UNL     1      -4.028   2.083   0.728  0.00  0.00    +0.020 A 
ATOM     13  C   UNL     1      -4.152   0.716   0.856  0.00  0.00    +0.010 A 
ATOM     14 CL   UNL     1      -3.500   4.358  -0.640  0.00  0.00    -0.084 Cl
ENDBRANCH   2   8
BRANCH   7  15
ATOM     15  N   UNL     1      -1.929  -4.612  -0.212  0.00  0.00    -0.343 N 
ATOM     16  H   UNL     1      -1.037  -4.237  -0.146  0.00  0.00    +0.144 HD
ATOM     17  H   UNL     1      -2.046  -5.563  -0.363  0.00  0.00    +0.144 HD
ENDBRANCH   7  15
BRANCH   6  18
ATOM     18  N   UNL     1      -4.353  -5.702   0.272  0.00  0.00    -0.294 N 
ATOM     19  H   UNL     1      -5.309  -5.970   0.447  0.00  0.00    +0.163 HD
ATOM     20  H   UNL     1      -3.988  -6.170  -0.544  0.00  0.00    +0.163 HD
ENDBRANCH   6  18
BRANCH   1  21
ATOM     21  C   UNL     1      -1.547  -1.835  -0.477  0.00  0.00    +0.343 C 
ATOM     22  O   UNL     1      -0.601  -2.559  -0.718  0.00  0.00    -0.245 OA
BRANCH  21  23
ATOM     23  O   UNL     1      -1.380  -0.497  -0.445  0.00  0.00    -0.461 OA
BRANCH  23  25
ATOM     24  C   UNL     1      -0.073   1.528  -0.625  0.00  0.00    +0.048 C 
ATOM     25  C   UNL     1      -0.066  -0.000  -0.704  0.00  0.00    +0.229 C 
ENDBRANCH  23  25
ENDBRANCH  21  23
ENDBRANCH   1  21
BRANCH   3  26
ATOM     26  C   UNL     1      -6.430  -1.363   0.270  0.00  0.00    +0.105 C 
ATOM     27  N   UNL     1      -7.361  -0.721   0.369  0.00  0.00    -0.191 NA
ENDBRANCH   3  26
TORSDOF 7
