REMARK  Name = ZINC42439416
REMARK  3 active torsions:
REMARK  status: ('A' for Active; 'I' for Inactive)
REMARK    1  A    between atoms: C_1  and  C_2
REMARK    2  A    between atoms: C_6  and  C_22
REMARK    3  A    between atoms: C_16  and  C_19
REMARK                            x       y       z     vdW  Elec       q    Type
REMARK                         _______ _______ _______ _____ _____    ______ ____
ROOT
ATOM      1  C   UNL     1       2.107   1.438  -1.190  0.00  0.00    +0.028 C 
ATOM      2  C   UNL     1       1.075   0.576  -0.460  0.00  0.00    +0.074 C 
ATOM      3  C   UNL     1      -0.200   1.392  -0.222  0.00  0.00    +0.023 C 
ATOM      4  C   UNL     1       0.109   2.546   0.735  0.00  0.00    +0.016 C 
ATOM      5  C   UNL     1       0.582   1.984   2.078  0.00  0.00    +0.092 C 
ATOM      6  C   UNL     1       1.865   1.175   1.866  0.00  0.00    +0.122 C 
ATOM      7  N   UNL     1       1.617   0.151   0.838  0.00  0.00    -0.282 N 
ATOM      8  C   UNL     1       1.879  -1.149   1.080  0.00  0.00    +0.305 C 
ATOM      9  O   UNL     1       1.496  -2.001   0.301  0.00  0.00    -0.252 OA
ATOM     10  N   UNL     1       2.564  -1.504   2.185  0.00  0.00    -0.285 N 
ATOM     11  C   UNL     1       1.993  -1.287   3.521  0.00  0.00    +0.109 C 
ATOM     12  C   UNL     1       2.018  -2.612   4.289  0.00  0.00    +0.020 C 
ATOM     13  C   UNL     1       3.446  -3.165   4.297  0.00  0.00    +0.018 C 
ATOM     14  C   UNL     1       3.900  -3.430   2.860  0.00  0.00    +0.119 C 
ATOM     15  C   UNL     1       3.893  -2.120   2.076  0.00  0.00    +0.124 C 
ENDROOT
BRANCH   5  16
ATOM     16  C   UNL     1       0.854   3.119   3.031  0.00  0.00    +0.215 C 
ATOM     17  O   UNL     1       0.687   4.266   2.671  0.00  0.00    -0.276 OA
ATOM     18  N   UNL     1       1.283   2.861   4.282  0.00  0.00    -0.329 N 
ATOM     19  H   UNL     1       1.417   1.945   4.569  0.00  0.00    +0.145 HD
ATOM     20  H   UNL     1       1.459   3.592   4.895  0.00  0.00    +0.145 HD
ENDBRANCH   5  16
BRANCH  14  21
ATOM     21  C   UNL     1       5.293  -4.005   2.871  0.00  0.00    +0.361 C 
ATOM     22  O   UNL     1       5.514  -5.056   3.449  0.00  0.00    -0.246 OA
ATOM     23  O   UNL     1       6.199  -3.420   2.303  0.00  0.00    -0.246 OA
ENDBRANCH  14  21
TORSDOF 2
