REMARK  Name = ZINC20754646
REMARK  10 active torsions:
REMARK  status: ('A' for Active; 'I' for Inactive)
REMARK    1  A    between atoms: C_1  and  O_2
REMARK    2  A    between atoms: O_2  and  C_3
REMARK    3  A    between atoms: C_6  and  O_34
REMARK    4  A    between atoms: C_7  and  C_9
REMARK    5  A    between atoms: C_22  and  C_24
REMARK    6  A    between atoms: C_26  and  O_32
REMARK    7  A    between atoms: C_29  and  O_30
REMARK    8  A    between atoms: O_30  and  C_31
REMARK    9  A    between atoms: O_32  and  C_33
REMARK   10  A    between atoms: O_34  and  C_35
REMARK                            x       y       z     vdW  Elec       q    Type
REMARK                         _______ _______ _______ _____ _____    ______ ____
ROOT
ATOM      1  C   UNL     1       4.890   0.322  -0.298  0.00  0.00    +0.017 C 
ATOM      2  C   UNL     1       3.809  -0.474  -0.252  0.00  0.00    -0.023 C 
ATOM      3  C   UNL     1       3.948  -1.981  -0.279  0.00  0.00    +0.037 C 
ATOM      4  C   UNL     1       2.862  -2.523  -1.220  0.00  0.00    +0.009 C 
ATOM      5  C   UNL     1       1.490  -2.169  -0.651  0.00  0.00    +0.035 C 
ATOM      6  C   UNL     1       1.375  -0.700  -0.370  0.00  0.00    -0.019 C 
ATOM      7  C   UNL     1       2.444   0.095  -0.174  0.00  0.00    +0.046 C 
ATOM      8  N   UNL     1       2.301   1.424   0.096  0.00  0.00    -0.325 N 
ATOM      9  C   UNL     1       1.156   2.042   0.186  0.00  0.00    +0.236 C 
ATOM     10  N   UNL     1       0.808   3.333   0.443  0.00  0.00    -0.096 NA
ATOM     11  N   UNL     1      -0.472   3.450   0.422  0.00  0.00    -0.060 NA
ATOM     12  N   UNL     1      -1.044   2.322   0.171  0.00  0.00    -0.163 N 
ATOM     13  N   UNL     1      -0.038   1.370   0.004  0.00  0.00    -0.193 N 
ATOM     14  C   UNL     1      -0.003  -0.064  -0.292  0.00  0.00    +0.160 C 
ATOM     15  H   UNL     1      -1.999   2.165   0.108  0.00  0.00    +0.195 HD
ATOM     16  H   UNL     1       3.239   1.980   0.243  0.00  0.00    +0.169 HD
ENDROOT
BRANCH   1  21
ATOM     17  C   UNL     1       7.738  -1.921   0.680  0.00  0.00    +0.121 A 
ATOM     18  C   UNL     1       8.784  -1.361  -0.043  0.00  0.00    +0.049 A 
ATOM     19  C   UNL     1       8.564  -0.258  -0.846  0.00  0.00    +0.050 A 
ATOM     20  C   UNL     1       7.297   0.294  -0.940  0.00  0.00    +0.127 A 
ATOM     21  C   UNL     1       6.239  -0.263  -0.208  0.00  0.00    +0.020 A 
ATOM     22  C   UNL     1       6.469  -1.378   0.602  0.00  0.00    +0.057 A 
BRANCH  17  24
ATOM     23  C   UNL     1       9.298  -3.516   1.503  0.00  0.00    +0.277 C 
ATOM     24  O   UNL     1       7.964  -3.006   1.468  0.00  0.00    -0.495 OA
ENDBRANCH  17  24
BRANCH  20  25
ATOM     25  O   UNL     1       7.082   1.375  -1.734  0.00  0.00    -0.495 OA
ATOM     26  C   UNL     1       8.207   1.888  -2.450  0.00  0.00    +0.277 C 
ENDBRANCH  20  25
ENDBRANCH   1  21
BRANCH  14  27
ATOM     27  C   UNL     1      -0.698  -0.288  -1.610  0.00  0.00    +0.024 A 
ATOM     28  C   UNL     1      -0.769   0.734  -2.536  0.00  0.00    +0.055 A 
ATOM     29  C   UNL     1      -1.409   0.528  -3.749  0.00  0.00    +0.121 A 
ATOM     30  C   UNL     1      -1.978  -0.706  -4.032  0.00  0.00    +0.049 A 
ATOM     31  C   UNL     1      -1.907  -1.728  -3.106  0.00  0.00    +0.049 A 
ATOM     32  C   UNL     1      -1.262  -1.523  -1.895  0.00  0.00    +0.126 A 
BRANCH  32  33
ATOM     33  O   UNL     1      -1.188  -2.531  -0.986  0.00  0.00    -0.495 OA
ATOM     34  C   UNL     1      -1.791  -3.775  -1.345  0.00  0.00    +0.277 C 
ENDBRANCH  32  33
BRANCH  29  35
ATOM     35  O   UNL     1      -1.479   1.534  -4.661  0.00  0.00    -0.495 OA
ATOM     36  C   UNL     1      -2.153   1.251  -5.889  0.00  0.00    +0.277 C 
ENDBRANCH  29  35
ENDBRANCH  14  27
TORSDOF 6
