REMARK  Name = ZINC01256525
REMARK  7 active torsions:
REMARK  status: ('A' for Active; 'I' for Inactive)
REMARK    1  A    between atoms: C_4  and  O_32
REMARK    2  A    between atoms: C_5  and  C_7
REMARK    3  A    between atoms: N_8  and  N_9
REMARK    4  A    between atoms: C_10  and  N_31
REMARK    5  A    between atoms: C_11  and  C_22
REMARK    6  A    between atoms: N_24  and  C_25
REMARK    7  A    between atoms: C_25  and  C_26
REMARK                            x       y       z     vdW  Elec       q    Type
REMARK                         _______ _______ _______ _____ _____    ______ ____
ROOT
ATOM      1  N   UNL     1       1.258   2.917   0.839  0.00  0.00    -0.198 N 
ATOM      2  C   UNL     1       1.483   3.984   0.021  0.00  0.00    +0.134 A 
ATOM      3  C   UNL     1       1.538   5.160   0.762  0.00  0.00    +0.105 A 
ATOM      4  C   UNL     1       1.338   4.777   2.170  0.00  0.00    +0.124 A 
ATOM      5  C   UNL     1       1.163   3.322   2.156  0.00  0.00    +0.183 A 
ATOM      6  N   UNL     1       0.963   2.684   3.290  0.00  0.00    -0.224 NA
ATOM      7  C   UNL     1       0.919   3.367   4.441  0.00  0.00    +0.092 A 
ATOM      8  C   UNL     1       0.704   2.692   5.657  0.00  0.00    +0.030 A 
ATOM      9  C   UNL     1       0.662   3.394   6.822  0.00  0.00    +0.002 A 
ATOM     10  C   UNL     1       0.829   4.778   6.832  0.00  0.00    +0.002 A 
ATOM     11  C   UNL     1       1.038   5.464   5.677  0.00  0.00    +0.030 A 
ATOM     12  C   UNL     1       1.088   4.774   4.452  0.00  0.00    +0.090 A 
ATOM     13  N   UNL     1       1.294   5.439   3.308  0.00  0.00    -0.241 NA
ENDROOT
BRANCH   3  14
ATOM     14  C   UNL     1       1.752   6.469   0.261  0.00  0.00    +0.250 C 
ATOM     15  O   UNL     1       2.885   6.905   0.159  0.00  0.00    -0.270 OA
ATOM     16  N   UNL     1       0.702   7.231  -0.103  0.00  0.00    -0.307 N 
ATOM     17  H   UNL     1      -0.200   6.884  -0.022  0.00  0.00    +0.149 HD
BRANCH  16  18
ATOM     18  C   UNL     1       0.923   8.584  -0.621  0.00  0.00    +0.147 C 
BRANCH  18  19
ATOM     19  C   UNL     1      -0.404   9.218  -0.952  0.00  0.00    +0.007 A 
ATOM     20  C   UNL     1      -1.218   9.957  -0.159  0.00  0.00    +0.013 A 
ATOM     21  C   UNL     1      -2.400  10.446  -0.683  0.00  0.00    +0.008 A 
ATOM     22  C   UNL     1      -2.715  10.164  -1.970  0.00  0.00    +0.045 A 
ATOM     23  S   UNL     1      -1.314   9.184  -2.487  0.00  0.00    -0.100 S 
ENDBRANCH  18  19
ENDBRANCH  16  18
ENDBRANCH   3  14
BRANCH   2  24
ATOM     24  N   UNL     1       1.629   3.909  -1.340  0.00  0.00    -0.342 N 
ATOM     25  H   UNL     1       1.575   3.050  -1.787  0.00  0.00    +0.144 HD
ATOM     26  H   UNL     1       1.788   4.715  -1.856  0.00  0.00    +0.144 HD
ENDBRANCH   2  24
BRANCH   1  28
ATOM     27  C   UNL     1      -0.022   1.026   0.337  0.00  0.00    +0.145 C 
ATOM     28  N   UNL     1       1.145   1.590   0.404  0.00  0.00    -0.171 NA
BRANCH  27  33
ATOM     29  C   UNL     1      -2.364   3.703   1.532  0.00  0.00    +0.001 A 
ATOM     30  C   UNL     1      -3.407   2.946   2.038  0.00  0.00    +0.004 A 
ATOM     31  C   UNL     1      -3.355   1.566   1.993  0.00  0.00    +0.046 A 
ATOM     32  C   UNL     1      -2.255   0.930   1.440  0.00  0.00    +0.125 A 
ATOM     33  C   UNL     1      -1.197   1.692   0.927  0.00  0.00    +0.036 A 
ATOM     34  C   UNL     1      -1.260   3.086   0.983  0.00  0.00    +0.013 A 
BRANCH  32  35
ATOM     35  O   UNL     1      -2.203  -0.427   1.395  0.00  0.00    -0.506 OA
ATOM     36  H   UNL     1      -1.737  -0.827   2.142  0.00  0.00    +0.292 HD
ENDBRANCH  32  35
ENDBRANCH  27  33
ENDBRANCH   1  28
TORSDOF 7
