REMARK  Name = ZINC35747341
REMARK  14 active torsions:
REMARK  status: ('A' for Active; 'I' for Inactive)
REMARK    1  A    between atoms: C_1  and  C_2
REMARK    2  A    between atoms: C_2  and  C_3
REMARK    3  A    between atoms: C_2  and  C_4
REMARK    4  A    between atoms: C_4  and  N_5
REMARK    5  A    between atoms: N_5  and  C_6
REMARK    6  A    between atoms: N_5  and  C_25
REMARK    7  A    between atoms: C_6  and  C_7
REMARK    8  A    between atoms: C_13  and  C_18
REMARK    9  A    between atoms: C_25  and  C_26
REMARK   10  A    between atoms: C_26  and  C_28
REMARK   11  A    between atoms: C_26  and  O_36
REMARK   12  A    between atoms: C_28  and  O_29
REMARK   13  A    between atoms: O_29  and  C_30
REMARK   14  A    between atoms: C_30  and  C_31
REMARK                            x       y       z     vdW  Elec       q    Type
REMARK                         _______ _______ _______ _____ _____    ______ ____
ROOT
ATOM      1  C   UNL     1      -2.253  -2.670  -0.587  0.00  0.00    -0.003 C 
ENDROOT
BRANCH   1   2
ATOM      2  C   UNL     1      -2.656  -1.656  -1.626  0.00  0.00    +0.094 A 
ATOM      3  N   UNL     1      -3.863  -1.770  -2.238  0.00  0.00    -0.312 N 
ATOM      4  H   UNL     1      -4.450  -2.504  -1.998  0.00  0.00    +0.170 HD
ATOM      5  C   UNL     1      -4.260  -0.885  -3.171  0.00  0.00    +0.260 A 
ATOM      6  O   UNL     1      -5.347  -1.001  -3.711  0.00  0.00    -0.267 OA
ATOM      7  C   UNL     1      -3.388   0.195  -3.519  0.00  0.00    +0.080 A 
ATOM      8  C   UNL     1      -3.588   1.268  -4.485  0.00  0.00    +0.004 A 
ATOM      9  C   UNL     1      -2.609   2.191  -4.646  0.00  0.00    +0.056 A 
ATOM     10  S   UNL     1      -1.352   1.664  -3.498  0.00  0.00    -0.076 S 
ATOM     11  C   UNL     1      -2.162   0.232  -2.834  0.00  0.00    +0.116 A 
ATOM     12  N   UNL     1      -1.840  -0.679  -1.919  0.00  0.00    -0.229 NA
BRANCH   8  13
ATOM     13  C   UNL     1      -4.839   1.348  -5.277  0.00  0.00    -0.016 A 
ATOM     14  C   UNL     1      -5.312   0.224  -5.952  0.00  0.00    +0.010 A 
ATOM     15  C   UNL     1      -6.477   0.303  -6.688  0.00  0.00    +0.020 A 
ATOM     16  C   UNL     1      -7.176   1.496  -6.755  0.00  0.00    +0.041 A 
ATOM     17  C   UNL     1      -6.710   2.616  -6.086  0.00  0.00    +0.020 A 
ATOM     18  C   UNL     1      -5.550   2.546  -5.344  0.00  0.00    +0.010 A 
ATOM     19 CL   UNL     1      -8.641   1.589  -7.681  0.00  0.00    -0.084 Cl
ENDBRANCH   8  13
ENDBRANCH   1   2
BRANCH   1  20
ATOM     20  N   UNL     1      -1.011  -2.237   0.065  0.00  0.00    +0.386 N 
ATOM     21  H   UNL     1      -0.449  -1.717  -0.593  0.00  0.00    -0.081 HD
BRANCH  20  22
ATOM     22  C   UNL     1      -1.334  -1.382   1.215  0.00  0.00    -0.075 C 
BRANCH  22  24
ATOM     23  C   UNL     1      -2.491   0.722   1.907  0.00  0.00    +0.005 C 
ATOM     24  C   UNL     1      -1.933  -0.064   0.719  0.00  0.00    -0.034 C 
ATOM     25  C   UNL     1      -0.847   0.761   0.026  0.00  0.00    +0.005 C 
ENDBRANCH  22  24
ENDBRANCH  20  22
BRANCH  20  26
ATOM     26  C   UNL     1      -0.262  -3.414   0.525  0.00  0.00    -0.044 C 
BRANCH  26  27
ATOM     27  C   UNL     1       1.103  -2.974   1.057  0.00  0.00    +0.124 C 
BRANCH  27  28
ATOM     28  O   UNL     1       1.850  -2.361   0.004  0.00  0.00    -0.391 OA
ATOM     29  H   UNL     1       2.011  -2.941  -0.753  0.00  0.00    +0.210 HD
ENDBRANCH  27  28
BRANCH  27  30
ATOM     30  C   UNL     1       1.865  -4.195   1.578  0.00  0.00    +0.189 C 
BRANCH  30  31
ATOM     31  O   UNL     1       3.090  -3.771   2.180  0.00  0.00    -0.370 OA
BRANCH  31  32
ATOM     32  C   UNL     1       3.881  -4.840   2.702  0.00  0.00    +0.234 C 
BRANCH  32  33
ATOM     33  C   UNL     1       5.142  -4.282   3.309  0.00  0.00    +0.130 A 
ATOM     34  C   UNL     1       5.296  -3.900   4.590  0.00  0.00    +0.047 A 
ATOM     35  C   UNL     1       6.627  -3.442   4.723  0.00  0.00    +0.041 A 
ATOM     36  C   UNL     1       7.207  -3.572   3.516  0.00  0.00    +0.195 A 
ATOM     37  O   UNL     1       6.304  -4.086   2.665  0.00  0.00    -0.465 OA
ENDBRANCH  32  33
ENDBRANCH  31  32
ENDBRANCH  30  31
ENDBRANCH  27  30
ENDBRANCH  26  27
ENDBRANCH  20  26
ENDBRANCH   1  20
TORSDOF 12
