REMARK  Name = ZINC35747135
REMARK  11 active torsions:
REMARK  status: ('A' for Active; 'I' for Inactive)
REMARK    1  A    between atoms: C_1  and  C_2
REMARK    2  A    between atoms: C_8  and  C_17
REMARK    3  A    between atoms: C_12  and  C_13
REMARK    4  A    between atoms: C_13  and  O_15
REMARK    5  A    between atoms: O_15  and  C_16
REMARK    6  A    between atoms: C_17  and  N_18
REMARK    7  A    between atoms: N_18  and  C_19
REMARK    8  A    between atoms: N_18  and  C_24
REMARK    9  A    between atoms: C_19  and  C_20
REMARK   10  A    between atoms: C_20  and  C_22
REMARK   11  A    between atoms: C_20  and  O_23
REMARK                            x       y       z     vdW  Elec       q    Type
REMARK                         _______ _______ _______ _____ _____    ______ ____
ROOT
ATOM      1  C   UNL     1       2.348   0.147  -8.587  0.00  0.00    +0.046 C 
ATOM      2  C   UNL     1       2.536  -1.251  -8.058  0.00  0.00    -0.015 A 
ATOM      3  C   UNL     1       1.648  -1.767  -7.113  0.00  0.00    +0.076 A 
ATOM      4  C   UNL     1       0.464  -1.127  -6.494  0.00  0.00    +0.260 A 
ATOM      5  O   UNL     1       0.141   0.009  -6.791  0.00  0.00    -0.267 OA
ATOM      6  N   UNL     1      -0.247  -1.835  -5.595  0.00  0.00    -0.312 N 
ATOM      7  H   UNL     1      -1.025  -1.431  -5.180  0.00  0.00    +0.170 HD
ATOM      8  C   UNL     1       0.103  -3.101  -5.257  0.00  0.00    +0.094 A 
ATOM      9  N   UNL     1       1.140  -3.694  -5.783  0.00  0.00    -0.229 NA
ATOM     10  C   UNL     1       1.908  -3.087  -6.679  0.00  0.00    +0.116 A 
ATOM     11  S   UNL     1       3.359  -3.540  -7.597  0.00  0.00    -0.062 S 
ATOM     12  C   UNL     1       3.571  -2.019  -8.507  0.00  0.00    +0.102 A 
ENDROOT
BRANCH  12  13
ATOM     13  C   UNL     1       4.603  -1.679  -9.490  0.00  0.00    +0.346 C 
ATOM     14  O   UNL     1       4.601  -0.584 -10.019  0.00  0.00    -0.244 OA
BRANCH  13  15
ATOM     15  O   UNL     1       5.555  -2.580  -9.808  0.00  0.00    -0.464 OA
ATOM     16  C   UNL     1       6.529  -2.180 -10.774  0.00  0.00    +0.280 C 
ENDBRANCH  13  15
ENDBRANCH  12  13
BRANCH   8  17
ATOM     17  C   UNL     1      -0.730  -3.845  -4.245  0.00  0.00    -0.003 C 
BRANCH  17  18
ATOM     18  N   UNL     1      -0.082  -5.123  -3.923  0.00  0.00    +0.388 N 
ATOM     19  H   UNL     1      -0.616  -5.602  -3.213  0.00  0.00    -0.081 HD
BRANCH  18  20
ATOM     20  C   UNL     1      -0.016  -5.957  -5.130  0.00  0.00    -0.068 C 
ATOM     21  C   UNL     1       0.516  -7.344  -4.764  0.00  0.00    -0.015 C 
ATOM     22  C   UNL     1       0.585  -8.212  -6.022  0.00  0.00    -0.002 C 
ATOM     23  C   UNL     1      -0.814  -8.345  -6.628  0.00  0.00    -0.000 C 
ATOM     24  C   UNL     1      -1.345  -6.958  -6.994  0.00  0.00    -0.002 C 
ATOM     25  C   UNL     1      -1.415  -6.090  -5.735  0.00  0.00    -0.015 C 
ENDBRANCH  18  20
BRANCH  18  26
ATOM     26  C   UNL     1       1.278  -4.872  -3.426  0.00  0.00    -0.046 C 
BRANCH  26  27
ATOM     27  C   UNL     1       1.203  -4.163  -2.072  0.00  0.00    +0.095 C 
ATOM     28  C   UNL     1       2.599  -4.107  -1.448  0.00  0.00    +0.035 C 
BRANCH  27  29
ATOM     29  O   UNL     1       0.710  -2.834  -2.257  0.00  0.00    -0.394 OA
ATOM     30  H   UNL     1       1.245  -2.297  -2.857  0.00  0.00    +0.210 HD
ENDBRANCH  27  29
ENDBRANCH  26  27
ENDBRANCH  18  26
ENDBRANCH  17  18
ENDBRANCH   8  17
TORSDOF 8
