REMARK  Name = ZINC11971783
REMARK  5 active torsions:
REMARK  status: ('A' for Active; 'I' for Inactive)
REMARK    1  A    between atoms: C_4  and  C_7
REMARK    2  A    between atoms: C_7  and  N_57
REMARK    3  A    between atoms: C_13  and  C_17
REMARK    4  A    between atoms: C_17  and  N_18
REMARK    5  A    between atoms: C_19  and  C_21
REMARK                            x       y       z     vdW  Elec       q    Type
REMARK                         _______ _______ _______ _____ _____    ______ ____
ROOT
ATOM      1  C   UNL     1       7.839  -3.660   3.626  0.00  0.00    -0.071 C 
ATOM      2  C   UNL     1       8.386  -3.985   2.239  0.00  0.00    +0.058 C 
ATOM      3  C   UNL     1       7.533  -3.300   1.202  0.00  0.00    +0.132 A 
ATOM      4  N   UNL     1       7.068  -3.803   0.096  0.00  0.00    -0.134 NA
ATOM      5  N   UNL     1       6.408  -2.900  -0.543  0.00  0.00    -0.133 NA
ATOM      6  C   UNL     1       6.420  -1.782   0.135  0.00  0.00    +0.151 A 
ATOM      7  N   UNL     1       7.127  -2.008   1.262  0.00  0.00    -0.315 N 
ATOM      8  C   UNL     1       7.398  -1.071   2.352  0.00  0.00    +0.106 C 
ATOM      9  C   UNL     1       8.709  -1.465   3.040  0.00  0.00    -0.057 C 
ATOM     10  N   UNL     1       8.419  -2.403   4.148  0.00  0.00    +0.381 N 
ATOM     11  H   UNL     1       7.741  -1.965   4.782  0.00  0.00    -0.082 HD
ENDROOT
BRANCH  10  12
ATOM     12  C   UNL     1       9.654  -2.695   4.897  0.00  0.00    -0.075 C 
BRANCH  12  16
ATOM     13  C   UNL     1       9.325  -3.814   9.064  0.00  0.00    +0.000 C 
ATOM     14  C   UNL     1      10.200  -4.676   8.153  0.00  0.00    +0.000 C 
ATOM     15  C   UNL     1      10.566  -3.882   6.897  0.00  0.00    +0.002 C 
ATOM     16  C   UNL     1       9.289  -3.488   6.153  0.00  0.00    -0.028 C 
ATOM     17  C   UNL     1       8.413  -2.626   7.064  0.00  0.00    +0.002 C 
ATOM     18  C   UNL     1       8.047  -3.420   8.320  0.00  0.00    +0.000 C 
ENDBRANCH  12  16
ENDBRANCH  10  12
BRANCH   6  19
ATOM     19  C   UNL     1       5.770  -0.484  -0.268  0.00  0.00    +0.180 C 
BRANCH  19  20
ATOM     20  N   UNL     1       4.399  -0.442   0.247  0.00  0.00    -0.308 N 
ATOM     21  C   UNL     1       3.621   0.632   0.007  0.00  0.00    +0.219 C 
ATOM     22  O   UNL     1       4.056   1.564  -0.635  0.00  0.00    -0.275 OA
ATOM     23  H   UNL     1       4.051  -1.188   0.760  0.00  0.00    +0.149 HD
BRANCH  21  24
ATOM     24  C   UNL     1       2.211   0.674   0.537  0.00  0.00    +0.103 C 
ATOM     25  C   UNL     1       1.448   1.915  -0.002  0.00  0.00    +0.043 C 
ATOM     26  C   UNL     1      -0.017   1.428   0.010  0.00  0.00    +0.160 C 
ATOM     27  O   UNL     1       0.002  -0.004   0.002  0.00  0.00    -0.379 OA
ATOM     28  C   UNL     1       1.358  -0.476  -0.054  0.00  0.00    +0.172 C 
ENDBRANCH  21  24
ENDBRANCH  19  20
ENDBRANCH   6  19
TORSDOF 5
