REMARK  Name = ZINC36812374
REMARK  11 active torsions:
REMARK  status: ('A' for Active; 'I' for Inactive)
REMARK    1  A    between atoms: C_1  and  C_2
REMARK    2  A    between atoms: C_8  and  C_10
REMARK    3  A    between atoms: C_10  and  C_12
REMARK    4  A    between atoms: C_10  and  S_13
REMARK    5  A    between atoms: S_13  and  C_14
REMARK    6  A    between atoms: C_17  and  C_26
REMARK    7  A    between atoms: N_18  and  C_19
REMARK    8  A    between atoms: C_26  and  C_28
REMARK    9  A    between atoms: C_26  and  N_29
REMARK   10  A    between atoms: N_29  and  C_30
REMARK   11  A    between atoms: N_29  and  C_31
REMARK                            x       y       z     vdW  Elec       q    Type
REMARK                         _______ _______ _______ _____ _____    ______ ____
ROOT
ATOM      1  C   UNL     1      -0.117  -5.052   5.673  0.00  0.00    +0.197 A 
ATOM      2  N   UNL     1       1.181  -4.855   5.663  0.00  0.00    -0.122 NA
ATOM      3  N   UNL     1       1.694  -5.256   6.771  0.00  0.00    -0.135 NA
ATOM      4  C   UNL     1       0.763  -5.731   7.550  0.00  0.00    +0.125 A 
ATOM      5  N   UNL     1      -0.427  -5.613   6.882  0.00  0.00    -0.275 N 
ENDROOT
BRANCH   5   6
ATOM      6  C   UNL     1      -1.697  -5.992   7.340  0.00  0.00    +0.050 A 
ATOM      7  C   UNL     1      -2.268  -5.340   8.425  0.00  0.00    +0.028 A 
ATOM      8  C   UNL     1      -3.519  -5.714   8.874  0.00  0.00    +0.022 A 
ATOM      9  C   UNL     1      -4.204  -6.738   8.244  0.00  0.00    +0.041 A 
ATOM     10  C   UNL     1      -3.637  -7.389   7.162  0.00  0.00    +0.022 A 
ATOM     11  C   UNL     1      -2.389  -7.015   6.706  0.00  0.00    +0.028 A 
ATOM     12 CL   UNL     1      -5.776  -7.207   8.811  0.00  0.00    -0.084 Cl
ENDBRANCH   5   6
BRANCH   4  13
ATOM     13  C   UNL     1       0.959  -6.299   8.932  0.00  0.00    -0.003 C 
ATOM     14  C   UNL     1       1.203  -5.158   9.922  0.00  0.00    -0.005 C 
BRANCH  13  15
ATOM     15  N   UNL     1       2.118  -7.202   8.931  0.00  0.00    +0.382 N 
ATOM     16  C   UNL     1       2.308  -7.756  10.278  0.00  0.00    -0.096 C 
ATOM     17  C   UNL     1       1.883  -8.297   7.981  0.00  0.00    -0.096 C 
ATOM     18  H   UNL     1       2.943  -6.690   8.658  0.00  0.00    -0.082 HD
ENDBRANCH  13  15
ENDBRANCH   4  13
BRANCH   1  19
ATOM     19  S   UNL     1      -1.247  -4.662   4.379  0.00  0.00    -0.073 S 
BRANCH  19  20
ATOM     20  C   UNL     1      -0.198  -3.955   3.079  0.00  0.00    +0.137 C 
ATOM     21  C   UNL     1       0.760  -5.028   2.557  0.00  0.00    +0.029 C 
BRANCH  20  29
ATOM     22  C   UNL     1      -0.019   1.526   0.010  0.00  0.00    +0.007 C 
ATOM     23  C   UNL     1       0.002  -0.004   0.002  0.00  0.00    -0.011 C 
ATOM     24  C   UNL     1      -1.434  -0.533   0.011  0.00  0.00    +0.022 C 
ATOM     25  C   UNL     1      -1.409  -2.065  -0.032  0.00  0.00    +0.108 C 
ATOM     26  N   UNL     1      -0.578  -2.556   1.075  0.00  0.00    -0.301 N 
ATOM     27  C   UNL     1       0.791  -2.042   1.212  0.00  0.00    +0.108 C 
ATOM     28  C   UNL     1       0.742  -0.511   1.242  0.00  0.00    +0.022 C 
ATOM     29  C   UNL     1      -1.063  -3.461   1.948  0.00  0.00    +0.229 C 
ATOM     30  O   UNL     1      -2.195  -3.878   1.824  0.00  0.00    -0.274 OA
ENDBRANCH  20  29
ENDBRANCH  19  20
ENDBRANCH   1  19
TORSDOF 6
