REMARK  Name = ZINC08824891
REMARK  7 active torsions:
REMARK  status: ('A' for Active; 'I' for Inactive)
REMARK    1  A    between atoms: C_1  and  C_2
REMARK    2  A    between atoms: C_7  and  C_9
REMARK    3  A    between atoms: C_7  and  C_10
REMARK    4  A    between atoms: N_13  and  C_17
REMARK    5  A    between atoms: C_17  and  C_18
REMARK    6  A    between atoms: C_18  and  O_20
REMARK    7  A    between atoms: O_20  and  C_21
REMARK                            x       y       z     vdW  Elec       q    Type
REMARK                         _______ _______ _______ _____ _____    ______ ____
ROOT
ATOM      1  C   UNL     1      -0.367   1.411   0.342  0.00  0.00    +0.007 C 
ATOM      2  C   UNL     1      -0.323  -0.119   0.284  0.00  0.00    -0.011 C 
ATOM      3  C   UNL     1      -1.751  -0.662   0.198  0.00  0.00    +0.038 C 
ATOM      4  C   UNL     1      -1.717  -2.180   0.090  0.00  0.00    +0.113 C 
ATOM      5  C   UNL     1      -0.924  -2.832   1.205  0.00  0.00    +0.041 C 
ATOM      6  C   UNL     1       0.408  -2.177   1.531  0.00  0.00    -0.032 C 
ATOM      7  C   UNL     1       0.323  -0.655   1.560  0.00  0.00    +0.009 C 
ATOM      8  C   UNL     1       0.842  -2.650   2.935  0.00  0.00    +0.011 C 
ATOM      9  C   UNL     1       1.488  -2.625   0.543  0.00  0.00    +0.011 C 
ATOM     10  C   UNL     1      -1.244  -2.613  -1.275  0.00  0.00    +0.247 C 
ATOM     11  O   UNL     1      -0.225  -2.297  -1.851  0.00  0.00    -0.273 OA
ATOM     12  N   UNL     1      -2.212  -3.421  -1.760  0.00  0.00    -0.213 N 
ATOM     13  C   UNL     1      -3.276  -3.451  -0.951  0.00  0.00    +0.310 C 
ATOM     14  O   UNL     1      -4.281  -4.096  -1.179  0.00  0.00    -0.252 OA
ATOM     15  N   UNL     1      -3.107  -2.690   0.144  0.00  0.00    -0.285 N 
ATOM     16  H   UNL     1      -3.754  -2.502   0.838  0.00  0.00    +0.151 HD
ENDROOT
BRANCH  12  17
ATOM     17  C   UNL     1      -2.106  -4.169  -3.015  0.00  0.00    +0.238 C 
BRANCH  17  18
ATOM     18  C   UNL     1      -1.505  -5.523  -2.743  0.00  0.00    +0.331 C 
ATOM     19  O   UNL     1      -1.196  -5.832  -1.617  0.00  0.00    -0.249 OA
BRANCH  18  20
ATOM     20  O   UNL     1      -1.312  -6.387  -3.753  0.00  0.00    -0.423 OA
BRANCH  20  21
ATOM     21  C   UNL     1      -0.671  -7.555  -3.480  0.00  0.00    +0.150 A 
ATOM     22  C   UNL     1       0.700  -7.655  -3.665  0.00  0.00    +0.049 A 
ATOM     23  C   UNL     1       1.348  -8.843  -3.387  0.00  0.00    +0.019 A 
ATOM     24  C   UNL     1       0.632  -9.932  -2.924  0.00  0.00    +0.019 A 
ATOM     25  C   UNL     1      -0.735  -9.835  -2.738  0.00  0.00    +0.039 A 
ATOM     26  C   UNL     1      -1.388  -8.647  -3.010  0.00  0.00    +0.084 A 
ATOM     27 CL   UNL     1      -3.103  -8.523  -2.770  0.00  0.00    -0.080 Cl
ATOM     28 BR   UNL     1       1.523 -11.556  -2.545  0.00  0.00    -0.050 Br
ENDBRANCH  20  21
ENDBRANCH  18  20
ENDBRANCH  17  18
ENDBRANCH  12  17
TORSDOF 4
