REMARK  Name = ZINC08962072
REMARK  5 active torsions:
REMARK  status: ('A' for Active; 'I' for Inactive)
REMARK    1  A    between atoms: C_1  and  C_2
REMARK    2  A    between atoms: C_2  and  C_3
REMARK    3  A    between atoms: C_10  and  N_16
REMARK    4  A    between atoms: N_16  and  S_17
REMARK    5  A    between atoms: S_17  and  C_20
REMARK                            x       y       z     vdW  Elec       q    Type
REMARK                         _______ _______ _______ _____ _____    ______ ____
ROOT
ATOM      1  C   UNL     1       2.392   0.176  -6.975  0.00  0.00    +0.110 C 
ATOM      2  C   UNL     1       3.503   0.927  -6.255  0.00  0.00    +0.251 C 
ATOM      3  O   UNL     1       3.815   0.327  -5.003  0.00  0.00    -0.489 OA
ATOM      4  C   UNL     1       2.772  -0.043  -4.216  0.00  0.00    +0.133 A 
ATOM      5  C   UNL     1       2.442   0.683  -3.084  0.00  0.00    +0.048 A 
ATOM      6  C   UNL     1       1.369   0.298  -2.305  0.00  0.00    +0.028 A 
ATOM      7  C   UNL     1       0.620  -0.824  -2.642  0.00  0.00    +0.049 A 
ATOM      8  C   UNL     1       0.940  -1.562  -3.770  0.00  0.00    +0.041 A 
ATOM      9  C   UNL     1       2.019  -1.175  -4.563  0.00  0.00    +0.080 A 
ATOM     10  C   UNL     1       2.392  -1.940  -5.768  0.00  0.00    +0.248 C 
ATOM     11  O   UNL     1       2.492  -3.151  -5.726  0.00  0.00    -0.270 OA
ATOM     12  N   UNL     1       2.622  -1.269  -6.922  0.00  0.00    -0.305 N 
ATOM     13  H   UNL     1       2.938  -1.743  -7.707  0.00  0.00    +0.149 HD
ENDROOT
BRANCH   1  15
ATOM     14  C   UNL     1      -0.059  -0.309  -6.984  0.00  0.00    +0.006 C 
ATOM     15  C   UNL     1       1.052   0.496  -6.308  0.00  0.00    +0.022 C 
ENDBRANCH   1  15
BRANCH   7  16
ATOM     16  N   UNL     1      -0.463  -1.207  -1.842  0.00  0.00    -0.216 N 
ATOM     17  H   UNL     1      -1.293  -0.707  -1.878  0.00  0.00    +0.174 HD
BRANCH  16  18
ATOM     18  S   UNL     1      -0.326  -2.514  -0.834  0.00  0.00    +0.079 S 
ATOM     19  O   UNL     1       0.168  -3.586  -1.624  0.00  0.00    -0.149 OA
ATOM     20  O   UNL     1      -1.548  -2.599  -0.112  0.00  0.00    -0.149 OA
BRANCH  18  21
ATOM     21  C   UNL     1       0.929  -2.135   0.343  0.00  0.00    +0.146 A 
ATOM     22  C   UNL     1       0.828  -1.450   1.509  0.00  0.00    +0.036 A 
ATOM     23  C   UNL     1       1.959  -1.276   2.284  0.00  0.00    +0.010 A 
ATOM     24  C   UNL     1       3.138  -1.785   1.850  0.00  0.00    +0.047 A 
ATOM     25  S   UNL     1       2.666  -2.547   0.306  0.00  0.00    -0.077 S 
ENDBRANCH  18  21
ENDBRANCH  16  18
ENDBRANCH   7  16
TORSDOF 4
