REMARK  Name = ZINC60581136
REMARK  4 active torsions:
REMARK  status: ('A' for Active; 'I' for Inactive)
REMARK    1  A    between atoms: N_7  and  C_10
REMARK    2  A    between atoms: C_10  and  C_11
REMARK    3  A    between atoms: C_16  and  C_19
REMARK    4  A    between atoms: C_21  and  C_25
REMARK                            x       y       z     vdW  Elec       q    Type
REMARK                         _______ _______ _______ _____ _____    ______ ____
ROOT
ATOM      1  C   UNL     1      -3.054  -2.641  -1.471  0.00  0.00    +0.233 C 
ATOM      2  O   UNL     1      -2.811  -1.663  -2.145  0.00  0.00    -0.274 OA
ATOM      3  N   UNL     1      -4.212  -3.308  -1.644  0.00  0.00    -0.264 N 
ATOM      4  C   UNL     1      -5.127  -2.875  -2.596  0.00  0.00    +0.165 A 
ATOM      5  N   UNL     1      -6.297  -3.394  -2.896  0.00  0.00    -0.225 NA
ATOM      6  C   UNL     1      -7.062  -2.860  -3.838  0.00  0.00    +0.082 A 
ATOM      7  C   UNL     1      -6.571  -1.754  -4.472  0.00  0.00    +0.077 A 
ATOM      8  S   UNL     1      -5.006  -1.558  -3.636  0.00  0.00    -0.060 S 
ATOM      9  H   UNL     1      -4.406  -4.090  -1.105  0.00  0.00    +0.157 HD
ENDROOT
BRANCH   6  10
ATOM     10  C   UNL     1      -8.386  -3.435  -4.188  0.00  0.00    +0.019 A 
ATOM     11  C   UNL     1      -9.030  -4.502  -3.531  0.00  0.00    +0.042 A 
ATOM     12  C   UNL     1     -10.220  -4.709  -4.170  0.00  0.00    +0.102 A 
ATOM     13  N   UNL     1     -10.317  -3.797  -5.196  0.00  0.00    -0.356 N 
ATOM     14  H   UNL     1     -11.062  -3.719  -5.813  0.00  0.00    +0.165 HD
ATOM     15  C   UNL     1      -9.205  -3.023  -5.200  0.00  0.00    +0.093 A 
BRANCH  12  16
ATOM     16  C   UNL     1     -11.220  -5.726  -3.822  0.00  0.00    +0.258 C 
ATOM     17  O   UNL     1     -11.020  -6.480  -2.888  0.00  0.00    -0.269 OA
ATOM     18  N   UNL     1     -12.358  -5.824  -4.537  0.00  0.00    -0.324 N 
ATOM     19  H   UNL     1     -12.516  -5.223  -5.282  0.00  0.00    +0.145 HD
ATOM     20  H   UNL     1     -13.018  -6.497  -4.307  0.00  0.00    +0.145 HD
ENDBRANCH  12  16
ENDBRANCH   6  10
BRANCH   1  21
ATOM     21  C   UNL     1      -2.061  -3.110  -0.439  0.00  0.00    +0.181 C 
BRANCH  21  28
ATOM     22  C   UNL     1      -0.017   1.389   0.010  0.00  0.00    +0.013 A 
ATOM     23  C   UNL     1       1.146   2.081   0.002  0.00  0.00    +0.046 A 
ATOM     24  S   UNL     1       2.358   0.768  -0.016  0.00  0.00    -0.101 S 
ATOM     25  C   UNL     1       1.229  -0.596  -0.011  0.00  0.00    -0.005 A 
ATOM     26  C   UNL     1       0.002  -0.004   0.002  0.00  0.00    -0.023 A 
ATOM     27  C   UNL     1      -1.253  -0.872   0.006  0.00  0.00    +0.120 C 
ATOM     28  N   UNL     1      -0.891  -2.222  -0.445  0.00  0.00    -0.289 NA
ATOM     29  C   UNL     1       0.208  -2.793   0.346  0.00  0.00    +0.090 C 
ATOM     30  C   UNL     1       1.512  -2.063  -0.018  0.00  0.00    +0.058 C 
ENDBRANCH  21  28
ENDBRANCH   1  21
TORSDOF 4
