REMARK  Name = ZINC39337731
REMARK  13 active torsions:
REMARK  status: ('A' for Active; 'I' for Inactive)
REMARK    1  A    between atoms: C_1  and  C_2
REMARK    2  A    between atoms: C_2  and  C_3
REMARK    3  A    between atoms: C_2  and  C_4
REMARK    4  A    between atoms: C_4  and  C_5
REMARK    5  A    between atoms: C_5  and  C_6
REMARK    6  A    between atoms: C_8  and  C_31
REMARK    7  A    between atoms: N_14  and  C_17
REMARK    8  A    between atoms: C_17  and  C_18
REMARK    9  A    between atoms: N_20  and  C_27
REMARK   10  A    between atoms: C_27  and  C_28
REMARK   11  A    between atoms: C_34  and  C_37
REMARK   12  A    between atoms: C_37  and  C_38
REMARK   13  A    between atoms: C_37  and  C_39
REMARK                            x       y       z     vdW  Elec       q    Type
REMARK                         _______ _______ _______ _____ _____    ______ ____
ROOT
ATOM      1  C   UNL     1       2.893  -0.559  -2.447  0.00  0.00    +0.031 C 
ATOM      2  N   UNL     1       2.357  -1.227  -3.418  0.00  0.00    -0.270 NA
ATOM      3  C   UNL     1       3.381  -1.556  -4.438  0.00  0.00    +0.205 C 
ATOM      4  N   UNL     1       4.636  -1.502  -3.686  0.00  0.00    -0.275 NA
ATOM      5  C   UNL     1       4.334  -0.351  -2.780  0.00  0.00    +0.086 C 
ATOM      6  C   UNL     1       5.342  -0.405  -1.651  0.00  0.00    -0.053 C 
ATOM      7  N   UNL     1       6.674  -0.178  -2.249  0.00  0.00    +0.384 N 
ATOM      8  C   UNL     1       6.979  -1.153  -3.299  0.00  0.00    -0.063 C 
ATOM      9  C   UNL     1       5.880  -1.198  -4.374  0.00  0.00    +0.068 C 
ATOM     10  H   UNL     1       6.701   0.749  -2.645  0.00  0.00    -0.081 HD
ENDROOT
BRANCH   3  11
ATOM     11  C   UNL     1       3.376  -0.517  -5.561  0.00  0.00    +0.192 C 
ATOM     12  C   UNL     1       2.013  -0.452  -6.227  0.00  0.00    +0.030 C 
ATOM     13  C   UNL     1       2.256  -0.803  -7.492  0.00  0.00    +0.064 C 
ATOM     14  N   UNL     1       3.569  -1.067  -7.673  0.00  0.00    -0.158 NA
ATOM     15  N   UNL     1       4.266  -0.933  -6.659  0.00  0.00    -0.176 NA
BRANCH  13  16
ATOM     16  C   UNL     1       1.208  -0.892  -8.571  0.00  0.00    +0.033 C 
ATOM     17  C   UNL     1       1.560   0.074  -9.704  0.00  0.00    +0.014 C 
ATOM     18  C   UNL     1       1.159  -2.321  -9.117  0.00  0.00    +0.014 C 
ENDBRANCH  13  16
ENDBRANCH   3  11
BRANCH   1  19
ATOM     19  C   UNL     1       2.187  -0.073  -1.207  0.00  0.00    +0.052 C 
BRANCH  19  20
ATOM     20  C   UNL     1       0.718  -0.497  -1.257  0.00  0.00    +0.009 C 
BRANCH  20  22
ATOM     21  C   UNL     1      -0.019   1.526   0.010  0.00  0.00    +0.007 C 
ATOM     22  C   UNL     1       0.002  -0.004   0.002  0.00  0.00    -0.017 C 
ATOM     23  C   UNL     1      -1.433  -0.534   0.013  0.00  0.00    +0.007 C 
ENDBRANCH  20  22
ENDBRANCH  19  20
ENDBRANCH   1  19
BRANCH   7  24
ATOM     24  C   UNL     1       7.693  -0.276  -1.196  0.00  0.00    -0.041 C 
BRANCH  24  25
ATOM     25  C   UNL     1       9.042   0.074  -1.769  0.00  0.00    -0.039 A 
ATOM     26  C   UNL     1       9.993  -0.790  -2.159  0.00  0.00    +0.089 A 
ATOM     27  N   UNL     1      11.082  -0.106  -2.626  0.00  0.00    -0.338 N 
ATOM     28  C   UNL     1      10.853   1.249  -2.546  0.00  0.00    +0.050 A 
ATOM     29  C   UNL     1       9.563   1.421  -2.012  0.00  0.00    +0.001 A 
ATOM     30  C   UNL     1       9.054   2.707  -1.821  0.00  0.00    +0.010 A 
ATOM     31  C   UNL     1       9.811   3.794  -2.158  0.00  0.00    +0.001 A 
ATOM     32  C   UNL     1      11.083   3.629  -2.689  0.00  0.00    +0.002 A 
ATOM     33  C   UNL     1      11.608   2.369  -2.878  0.00  0.00    +0.026 A 
BRANCH  27  34
ATOM     34  C   UNL     1      12.309  -0.724  -3.136  0.00  0.00    +0.217 C 
BRANCH  34  35
ATOM     35  C   UNL     1      13.326  -0.808  -2.028  0.00  0.00    +0.230 C 
ATOM     36  O   UNL     1      13.054  -0.393  -0.921  0.00  0.00    -0.274 OA
ATOM     37  N   UNL     1      14.539  -1.345  -2.266  0.00  0.00    -0.328 N 
ATOM     38  H   UNL     1      14.758  -1.677  -3.151  0.00  0.00    +0.145 HD
ATOM     39  H   UNL     1      15.194  -1.399  -1.553  0.00  0.00    +0.145 HD
ENDBRANCH  34  35
ENDBRANCH  27  34
ENDBRANCH  24  25
ENDBRANCH   7  24
TORSDOF 9
