REMARK  Name = ZINC44394101
REMARK  7 active torsions:
REMARK  status: ('A' for Active; 'I' for Inactive)
REMARK    1  A    between atoms: C_1  and  C_2
REMARK    2  A    between atoms: C_2  and  C_3
REMARK    3  A    between atoms: C_2  and  C_4
REMARK    4  A    between atoms: C_2  and  N_16
REMARK    5  A    between atoms: N_6  and  C_7
REMARK    6  A    between atoms: C_12  and  N_13
REMARK    7  A    between atoms: C_21  and  C_23
REMARK                            x       y       z     vdW  Elec       q    Type
REMARK                         _______ _______ _______ _____ _____    ______ ____
ROOT
ATOM      1  C   UNL     1       0.004   1.512  -0.007  0.00  0.00    +0.046 C 
ATOM      2  C   UNL     1       0.008  -0.018  -0.001  0.00  0.00    +0.137 C 
ATOM      3  C   UNL     1       0.739  -0.521   1.245  0.00  0.00    +0.046 C 
ENDROOT
BRANCH   2   4
ATOM      4  N   UNL     1       0.691  -0.510  -1.200  0.00  0.00    -0.214 N 
ATOM      5  C   UNL     1       1.979  -0.176  -1.403  0.00  0.00    +0.268 A 
ATOM      6  O   UNL     1       2.566   0.527  -0.597  0.00  0.00    -0.266 OA
ATOM      7  C   UNL     1       2.646  -0.646  -2.556  0.00  0.00    +0.074 A 
ATOM      8  C   UNL     1       1.944  -1.429  -3.425  0.00  0.00    +0.035 A 
ATOM      9  C   UNL     1       0.595  -1.722  -3.121  0.00  0.00    +0.092 A 
ATOM     10  N   UNL     1       0.046  -1.252  -2.026  0.00  0.00    -0.167 NA
BRANCH   9  11
ATOM     11  C   UNL     1      -0.202  -2.570  -4.041  0.00  0.00    +0.002 A 
ATOM     12  C   UNL     1      -1.534  -2.858  -3.749  0.00  0.00    +0.013 A 
ATOM     13  C   UNL     1      -2.272  -3.647  -4.608  0.00  0.00    +0.039 A 
ATOM     14  C   UNL     1      -1.690  -4.154  -5.759  0.00  0.00    +0.123 A 
ATOM     15  C   UNL     1      -0.365  -3.870  -6.053  0.00  0.00    +0.039 A 
ATOM     16  C   UNL     1       0.377  -3.077  -5.203  0.00  0.00    +0.013 A 
ATOM     17  F   UNL     1      -2.415  -4.926  -6.597  0.00  0.00    -0.205 F 
ENDBRANCH   9  11
ENDBRANCH   2   4
BRANCH   2  18
ATOM     18  C   UNL     1      -1.412  -0.524   0.012  0.00  0.00    +0.245 C 
ATOM     19  O   UNL     1      -1.945  -0.809   1.063  0.00  0.00    -0.273 OA
ATOM     20  N   UNL     1      -2.089  -0.659  -1.146  0.00  0.00    -0.282 N 
ATOM     21  H   UNL     1      -1.694  -0.354  -1.977  0.00  0.00    +0.155 HD
BRANCH  20  22
ATOM     22  C   UNL     1      -3.362  -1.240  -1.147  0.00  0.00    +0.064 A 
ATOM     23  C   UNL     1      -3.725  -2.125  -0.141  0.00  0.00    +0.025 A 
ATOM     24  C   UNL     1      -4.982  -2.696  -0.145  0.00  0.00    +0.002 A 
ATOM     25  C   UNL     1      -5.880  -2.387  -1.151  0.00  0.00    +0.002 A 
ATOM     26  C   UNL     1      -5.522  -1.507  -2.155  0.00  0.00    +0.034 A 
ATOM     27  C   UNL     1      -4.268  -0.927  -2.153  0.00  0.00    +0.147 A 
BRANCH  27  28
ATOM     28  N   UNL     1      -3.888   0.020  -3.224  0.00  0.00    +0.058 N 
ATOM     29  O   UNL     1      -4.705   0.361  -4.048  0.00  0.00    -0.126 OA
ATOM     30  O   UNL     1      -2.761   0.454  -3.275  0.00  0.00    -0.126 OA
ENDBRANCH  27  28
ENDBRANCH  20  22
ENDBRANCH   2  18
TORSDOF 5
