REMARK  Name = ZINC22003048
REMARK  8 active torsions:
REMARK  status: ('A' for Active; 'I' for Inactive)
REMARK    1  A    between atoms: C_5  and  C_7
REMARK    2  A    between atoms: C_10  and  S_13
REMARK    3  A    between atoms: N_11  and  N_12
REMARK    4  A    between atoms: S_13  and  C_14
REMARK    5  A    between atoms: C_14  and  C_15
REMARK    6  A    between atoms: N_17  and  C_18
REMARK    7  A    between atoms: C_23  and  O_24
REMARK    8  A    between atoms: O_24  and  C_25
REMARK                            x       y       z     vdW  Elec       q    Type
REMARK                         _______ _______ _______ _____ _____    ______ ____
ROOT
ATOM      1  S   UNL     1       2.853  -5.760  -0.533  0.00  0.00    -0.075 S 
ENDROOT
BRANCH   1   5
ATOM      2  C   UNL     1       1.274  -2.189  -0.402  0.00  0.00    +0.183 A 
ATOM      3  N   UNL     1       0.248  -2.967  -0.145  0.00  0.00    -0.127 NA
ATOM      4  N   UNL     1       0.617  -4.198  -0.160  0.00  0.00    -0.121 NA
ATOM      5  C   UNL     1       1.903  -4.281  -0.418  0.00  0.00    +0.209 A 
ATOM      6  N   UNL     1       2.366  -3.006  -0.581  0.00  0.00    -0.224 N 
BRANCH   2  11
ATOM      7  C   UNL     1       1.861   1.318  -1.610  0.00  0.00    +0.001 A 
ATOM      8  C   UNL     1       1.232   2.054  -0.621  0.00  0.00    +0.001 A 
ATOM      9  C   UNL     1       0.616   1.413   0.439  0.00  0.00    +0.016 A 
ATOM     10  C   UNL     1       0.625   0.035   0.517  0.00  0.00    +0.029 A 
ATOM     11  C   UNL     1       1.259  -0.713  -0.478  0.00  0.00    +0.035 A 
ATOM     12  C   UNL     1       1.878  -0.059  -1.545  0.00  0.00    +0.013 A 
ATOM     13 BR   UNL     1      -0.218  -0.839   1.966  0.00  0.00    -0.050 Br
ENDBRANCH   2  11
BRANCH   6  14
ATOM     14  N   UNL     1       3.646  -2.622  -0.863  0.00  0.00    -0.295 N 
ATOM     15  H   UNL     1       4.434  -3.381  -0.983  0.00  0.00    +0.163 HD
ATOM     16  H   UNL     1       3.890  -1.555  -0.969  0.00  0.00    +0.163 HD
ENDBRANCH   6  14
ENDBRANCH   1   5
BRANCH   1  17
ATOM     17  C   UNL     1       1.565  -6.987  -0.203  0.00  0.00    +0.173 C 
BRANCH  17  18
ATOM     18  C   UNL     1       2.163  -8.370  -0.251  0.00  0.00    +0.228 C 
ATOM     19  O   UNL     1       3.345  -8.511  -0.485  0.00  0.00    -0.275 OA
ATOM     20  N   UNL     1       1.386  -9.449  -0.034  0.00  0.00    -0.282 N 
ATOM     21  H   UNL     1       0.301  -9.327   0.101  0.00  0.00    +0.155 HD
BRANCH  20  22
ATOM     22  C   UNL     1       1.959 -10.726   0.019  0.00  0.00    +0.076 A 
ATOM     23  C   UNL     1       3.124 -10.995  -0.684  0.00  0.00    +0.027 A 
ATOM     24  C   UNL     1       3.691 -12.255  -0.627  0.00  0.00    +0.002 A 
ATOM     25  C   UNL     1       3.093 -13.252   0.123  0.00  0.00    +0.004 A 
ATOM     26  C   UNL     1       1.929 -12.992   0.822  0.00  0.00    +0.048 A 
ATOM     27  C   UNL     1       1.357 -11.731   0.773  0.00  0.00    +0.148 A 
BRANCH  27  28
ATOM     28  O   UNL     1       0.212 -11.475   1.459  0.00  0.00    -0.432 OA
BRANCH  28  29
ATOM     29  C   UNL     1      -0.349 -12.553   2.211  0.00  0.00    +0.541 C 
ATOM     30  F   UNL     1      -0.655 -13.612   1.350  0.00  0.00    -0.166 F 
ATOM     31  F   UNL     1       0.575 -12.983   3.169  0.00  0.00    -0.166 F 
ENDBRANCH  28  29
ENDBRANCH  27  28
ENDBRANCH  20  22
ENDBRANCH  17  18
ENDBRANCH   1  17
TORSDOF 8
