REMARK  Name = ZINC41584762
REMARK  5 active torsions:
REMARK  status: ('A' for Active; 'I' for Inactive)
REMARK    1  A    between atoms: C_3  and  C_10
REMARK    2  A    between atoms: C_5  and  N_7
REMARK    3  A    between atoms: C_17  and  O_38
REMARK    4  A    between atoms: C_18  and  C_21
REMARK    5  A    between atoms: C_21  and  N_22
REMARK                            x       y       z     vdW  Elec       q    Type
REMARK                         _______ _______ _______ _____ _____    ______ ____
ROOT
ATOM      1  C   UNL     1       3.652   2.154  -0.022  0.00  0.00    +0.058 C 
ATOM      2  C   UNL     1       3.639   3.507  -0.117  0.00  0.00    +0.176 C 
ATOM      3  C   UNL     1       4.816   4.381  -0.247  0.00  0.00    +0.231 C 
ATOM      4  O   UNL     1       5.989   4.052  -0.292  0.00  0.00    -0.283 OA
ATOM      5  C   UNL     1       4.259   5.744  -0.312  0.00  0.00    +0.068 A 
ATOM      6  C   UNL     1       4.838   7.007  -0.436  0.00  0.00    +0.019 A 
ATOM      7  C   UNL     1       4.046   8.120  -0.470  0.00  0.00    +0.046 A 
ATOM      8  C   UNL     1       2.662   7.995  -0.381  0.00  0.00    +0.122 A 
ATOM      9  C   UNL     1       2.073   6.747  -0.257  0.00  0.00    +0.020 A 
ATOM     10  C   UNL     1       2.864   5.606  -0.222  0.00  0.00    +0.144 A 
ATOM     11  O   UNL     1       2.541   4.299  -0.116  0.00  0.00    -0.451 OA
ENDROOT
BRANCH   1  14
ATOM     12  C   UNL     1      -0.016   1.379   0.019  0.00  0.00    +0.003 A 
ATOM     13  C   UNL     1       1.166   2.088   0.016  0.00  0.00    +0.008 A 
ATOM     14  C   UNL     1       2.387   1.406  -0.018  0.00  0.00    -0.019 A 
ATOM     15  C   UNL     1       2.397   0.006  -0.049  0.00  0.00    +0.040 A 
ATOM     16  C   UNL     1       1.206  -0.688  -0.045  0.00  0.00    +0.127 A 
ATOM     17  C   UNL     1       0.003  -0.005  -0.011  0.00  0.00    +0.033 A 
BRANCH  16  18
ATOM     18  N   UNL     1       1.215  -2.168  -0.078  0.00  0.00    +0.056 N 
ATOM     19  O   UNL     1       2.265  -2.766  -0.108  0.00  0.00    -0.126 OA
ATOM     20  O   UNL     1       0.171  -2.778  -0.075  0.00  0.00    -0.126 OA
ENDBRANCH  16  18
ENDBRANCH   1  14
BRANCH   8  21
ATOM     21  O   UNL     1       1.883   9.106  -0.415  0.00  0.00    -0.506 OA
ATOM     22  H   UNL     1       1.607   9.366  -1.304  0.00  0.00    +0.292 HD
ENDBRANCH   8  21
BRANCH   9  23
ATOM     23  C   UNL     1       0.574   6.628  -0.162  0.00  0.00    -0.036 C 
BRANCH  23  24
ATOM     24  N   UNL     1       0.006   6.491  -1.510  0.00  0.00    +0.383 N 
ATOM     25  C   UNL     1      -1.435   6.247  -1.409  0.00  0.00    -0.073 C 
ATOM     26  C   UNL     1      -2.066   6.100  -2.785  0.00  0.00    -0.007 C 
ATOM     27  C   UNL     1      -1.780   7.335  -3.646  0.00  0.00    +0.011 C 
ATOM     28  C   UNL     1      -0.258   7.509  -3.706  0.00  0.00    +0.020 C 
ATOM     29  C   UNL     1       0.251   7.725  -2.271  0.00  0.00    -0.069 C 
ATOM     30  C   UNL     1       0.365   6.237  -4.236  0.00  0.00    +0.023 A 
ATOM     31  C   UNL     1       1.539   6.348  -4.912  0.00  0.00    +0.022 A 
ATOM     32  C   UNL     1       2.203   5.206  -5.374  0.00  0.00    +0.007 A 
ATOM     33  C   UNL     1       1.665   3.980  -5.112  0.00  0.00    +0.070 A 
ATOM     34  C   UNL     1       0.455   3.901  -4.410  0.00  0.00    +0.251 A 
ATOM     35  O   UNL     1      -0.004   2.809  -4.116  0.00  0.00    -0.268 OA
ATOM     36  N   UNL     1      -0.211   5.027  -4.052  0.00  0.00    -0.312 N 
ATOM     37  C   UNL     1      -1.558   4.865  -3.510  0.00  0.00    +0.126 C 
ATOM     38  H   UNL     1       0.445   5.714  -1.980  0.00  0.00    -0.081 HD
ENDBRANCH  23  24
ENDBRANCH   9  23
TORSDOF 5
