REMARK  Name = ZINC21358570
REMARK  8 active torsions:
REMARK  status: ('A' for Active; 'I' for Inactive)
REMARK    1  A    between atoms: C_1  and  C_2
REMARK    2  A    between atoms: C_2  and  C_3
REMARK    3  A    between atoms: C_2  and  N_4
REMARK    4  A    between atoms: C_8  and  S_14
REMARK    5  A    between atoms: S_14  and  N_17
REMARK    6  A    between atoms: C_23  and  C_25
REMARK    7  A    between atoms: C_25  and  O_26
REMARK    8  A    between atoms: O_26  and  C_27
REMARK                            x       y       z     vdW  Elec       q    Type
REMARK                         _______ _______ _______ _____ _____    ______ ____
ROOT
ATOM      1  N   UNL     1      -0.730   1.576  -1.177  0.00  0.00    -0.174 NA
ATOM      2  C   UNL     1      -0.013   1.086   0.008  0.00  0.00    +0.128 C 
ATOM      3  C   UNL     1      -0.738   1.584   1.265  0.00  0.00    +0.125 C 
ATOM      4  N   UNL     1      -0.979   3.028   1.125  0.00  0.00    -0.296 N 
ATOM      5  C   UNL     1      -1.697   3.518  -0.060  0.00  0.00    +0.125 C 
ATOM      6  C   UNL     1      -0.968   3.020  -1.315  0.00  0.00    +0.128 C 
ATOM      7  C   UNL     1      -0.547   3.887   2.070  0.00  0.00    +0.253 C 
ATOM      8  O   UNL     1      -0.750   5.076   1.945  0.00  0.00    -0.272 OA
ENDROOT
BRANCH   1   9
ATOM      9  S   UNL     1      -1.261   0.520  -2.337  0.00  0.00    +0.061 S 
ATOM     10  O   UNL     1      -1.383   1.266  -3.541  0.00  0.00    -0.153 OA
ATOM     11  O   UNL     1      -0.443  -0.637  -2.238  0.00  0.00    -0.153 OA
BRANCH   9  16
ATOM     12  N   UNL     1      -6.814  -1.057  -0.876  0.00  0.00    -0.299 N 
ATOM     13  C   UNL     1      -5.486  -0.780  -1.153  0.00  0.00    +0.060 A 
ATOM     14  C   UNL     1      -4.352  -1.486  -0.718  0.00  0.00    +0.029 A 
ATOM     15  C   UNL     1      -3.089  -1.087  -1.085  0.00  0.00    +0.030 A 
ATOM     16  C   UNL     1      -2.890   0.025  -1.885  0.00  0.00    +0.107 A 
ATOM     17  C   UNL     1      -3.989   0.740  -2.329  0.00  0.00    +0.045 A 
ATOM     18  C   UNL     1      -5.252   0.339  -1.966  0.00  0.00    +0.043 A 
ATOM     19  S   UNL     1      -6.888   0.945  -2.300  0.00  0.00    -0.027 S 
ATOM     20  C   UNL     1      -7.797  -0.279  -1.372  0.00  0.00    +0.292 A 
ATOM     21  O   UNL     1      -9.000  -0.386  -1.224  0.00  0.00    -0.259 OA
BRANCH  12  23
ATOM     22  C   UNL     1      -7.912  -1.727   1.204  0.00  0.00    +0.030 C 
ATOM     23  C   UNL     1      -7.154  -2.207  -0.035  0.00  0.00    +0.085 C 
ATOM     24  C   UNL     1      -8.034  -3.176  -0.827  0.00  0.00    +0.030 C 
ENDBRANCH  12  23
ENDBRANCH   9  16
ENDBRANCH   1   9
BRANCH   7  25
ATOM     25  C   UNL     1       0.187   3.370   3.280  0.00  0.00    +0.324 C 
BRANCH  25  26
ATOM     26  O   UNL     1       0.538   4.465   4.128  0.00  0.00    -0.483 OA
BRANCH  26  27
ATOM     27  C   UNL     1       1.211   4.169   5.271  0.00  0.00    +0.121 A 
ATOM     28  C   UNL     1       1.520   2.851   5.573  0.00  0.00    +0.048 A 
ATOM     29  C   UNL     1       2.209   2.552   6.733  0.00  0.00    +0.042 A 
ATOM     30  C   UNL     1       2.580   3.566   7.599  0.00  0.00    +0.124 A 
ATOM     31  C   UNL     1       2.266   4.881   7.302  0.00  0.00    +0.042 A 
ATOM     32  C   UNL     1       1.583   5.184   6.140  0.00  0.00    +0.048 A 
ATOM     33  F   UNL     1       3.249   3.272   8.736  0.00  0.00    -0.205 F 
ENDBRANCH  26  27
ENDBRANCH  25  26
ENDBRANCH   7  25
TORSDOF 6
