REMARK  Name = ZINC12070872
REMARK  8 active torsions:
REMARK  status: ('A' for Active; 'I' for Inactive)
REMARK    1  A    between atoms: C_1  and  C_2
REMARK    2  A    between atoms: C_2  and  C_3
REMARK    3  A    between atoms: C_2  and  S_4
REMARK    4  A    between atoms: S_4  and  C_5
REMARK    5  A    between atoms: C_8  and  C_11
REMARK    6  A    between atoms: C_11  and  C_12
REMARK    7  A    between atoms: N_14  and  C_15
REMARK    8  A    between atoms: C_16  and  C_24
REMARK                            x       y       z     vdW  Elec       q    Type
REMARK                         _______ _______ _______ _____ _____    ______ ____
ROOT
ATOM      1  C   UNL     1      -2.363   1.893  -0.370  0.00  0.00    +0.222 C 
ATOM      2  O   UNL     1      -2.547   0.696  -0.308  0.00  0.00    -0.275 OA
ATOM      3  N   UNL     1      -1.109   2.379  -0.451  0.00  0.00    -0.279 N 
ATOM      4  H   UNL     1      -0.962   3.337  -0.501  0.00  0.00    +0.155 HD
ENDROOT
BRANCH   3   5
ATOM      5  C   UNL     1      -0.028   1.510  -0.464  0.00  0.00    +0.084 A 
ATOM      6  C   UNL     1       1.323   1.815  -0.548  0.00  0.00    +0.068 A 
ATOM      7  C   UNL     1       2.263   0.707  -0.548  0.00  0.00    -0.023 A 
ATOM      8  C   UNL     1       1.705  -0.520  -0.466  0.00  0.00    -0.004 A 
ATOM      9  S   UNL     1      -0.038  -0.221  -0.388  0.00  0.00    -0.077 S 
ATOM     10  C   UNL     1       2.419  -1.837  -0.446  0.00  0.00    +0.043 C 
ATOM     11  C   UNL     1       3.865  -1.610  -0.910  0.00  0.00    +0.005 C 
ATOM     12  C   UNL     1       4.444  -0.411  -0.154  0.00  0.00    +0.005 C 
ATOM     13  C   UNL     1       3.775   0.878  -0.634  0.00  0.00    +0.037 C 
BRANCH   6  14
ATOM     14  C   UNL     1       1.785   3.204  -0.633  0.00  0.00    +0.244 C 
ATOM     15  O   UNL     1       2.031   3.827   0.383  0.00  0.00    -0.270 OA
ATOM     16  N   UNL     1       1.936   3.792  -1.837  0.00  0.00    -0.325 N 
ATOM     17  H   UNL     1       1.739   3.295  -2.647  0.00  0.00    +0.145 HD
ATOM     18  H   UNL     1       2.242   4.710  -1.893  0.00  0.00    +0.145 HD
ENDBRANCH   6  14
ENDBRANCH   3   5
BRANCH   1  19
ATOM     19  C   UNL     1      -3.538   2.838  -0.356  0.00  0.00    +0.131 C 
BRANCH  19  23
ATOM     20  C   UNL     1      -7.166   0.596  -0.084  0.00  0.00    +0.008 A 
ATOM     21  C   UNL     1      -6.518   1.014   1.072  0.00  0.00    +0.015 A 
ATOM     22  C   UNL     1      -5.346   1.738   0.980  0.00  0.00    +0.005 A 
ATOM     23  C   UNL     1      -4.817   2.047  -0.260  0.00  0.00    -0.039 A 
ATOM     24  C   UNL     1      -5.463   1.637  -1.412  0.00  0.00    +0.005 A 
ATOM     25  C   UNL     1      -6.633   0.909  -1.328  0.00  0.00    +0.015 A 
BRANCH  20  26
ATOM     26  S   UNL     1      -8.662  -0.329   0.029  0.00  0.00    -0.122 S 
BRANCH  26  28
ATOM     27  C   UNL     1     -10.053   1.750  -1.077  0.00  0.00    +0.019 C 
ATOM     28  C   UNL     1      -9.948   0.937   0.214  0.00  0.00    +0.045 C 
ATOM     29  C   UNL     1     -11.290   0.262   0.503  0.00  0.00    +0.019 C 
ENDBRANCH  26  28
ENDBRANCH  20  26
ENDBRANCH  19  23
ENDBRANCH   1  19
TORSDOF 6
