REMARK  Name = ZINC59437029
REMARK  10 active torsions:
REMARK  status: ('A' for Active; 'I' for Inactive)
REMARK    1  A    between atoms: C_1  and  C_2
REMARK    2  A    between atoms: C_2  and  C_25
REMARK    3  A    between atoms: N_3  and  N_4
REMARK    4  A    between atoms: C_5  and  C_7
REMARK    5  A    between atoms: C_7  and  N_8
REMARK    6  A    between atoms: N_8  and  C_9
REMARK    7  A    between atoms: N_8  and  S_16
REMARK    8  A    between atoms: S_16  and  C_19
REMARK    9  A    between atoms: C_28  and  N_31
REMARK   10  A    between atoms: C_32  and  C_34
REMARK                            x       y       z     vdW  Elec       q    Type
REMARK                         _______ _______ _______ _____ _____    ______ ____
ROOT
ATOM      1  N   UNL     1       0.218  -0.147   2.164  0.00  0.00    -0.205 N 
ATOM      2  C   UNL     1       0.201  -0.817   3.333  0.00  0.00    +0.251 C 
ATOM      3  O   UNL     1       0.375  -2.018   3.346  0.00  0.00    -0.272 OA
ATOM      4  H   UNL     1       0.079   0.813   2.154  0.00  0.00    +0.177 HD
ENDROOT
BRANCH   1   7
ATOM      5  C   UNL     1       0.237   1.301  -0.178  0.00  0.00    +0.068 C 
ATOM      6  C   UNL     1       0.452  -0.191  -0.162  0.00  0.00    +0.063 C 
ATOM      7  N   UNL     1       0.436  -0.836   0.964  0.00  0.00    -0.185 NA
BRANCH   6   8
ATOM      8  C   UNL     1       0.681  -0.916  -1.424  0.00  0.00    -0.002 A 
ATOM      9  C   UNL     1       0.705  -0.222  -2.637  0.00  0.00    +0.011 A 
ATOM     10  C   UNL     1       0.920  -0.904  -3.815  0.00  0.00    +0.024 A 
ATOM     11  C   UNL     1       1.113  -2.280  -3.798  0.00  0.00    +0.033 A 
ATOM     12  C   UNL     1       1.090  -2.975  -2.593  0.00  0.00    +0.024 A 
ATOM     13  C   UNL     1       0.881  -2.300  -1.411  0.00  0.00    +0.011 A 
BRANCH  11  14
ATOM     14  N   UNL     1       1.330  -2.968  -4.995  0.00  0.00    -0.286 N 
ATOM     15  C   UNL     1       2.174  -4.019  -5.025  0.00  0.00    +0.214 C 
ATOM     16  O   UNL     1       2.680  -4.420  -3.998  0.00  0.00    -0.276 OA
ATOM     17  C   UNL     1       2.489  -4.695  -6.334  0.00  0.00    +0.109 C 
ATOM     18  H   UNL     1       0.874  -2.690  -5.804  0.00  0.00    +0.155 HD
ENDBRANCH  11  14
ENDBRANCH   6   8
ENDBRANCH   1   7
BRANCH   2  19
ATOM     19  C   UNL     1      -0.033  -0.075   4.624  0.00  0.00    +0.229 C 
BRANCH  19  20
ATOM     20  N   UNL     1      -0.147  -1.035   5.725  0.00  0.00    -0.193 N 
BRANCH  20  21
ATOM     21  C   UNL     1      -1.382  -1.619   6.018  0.00  0.00    +0.070 A 
ATOM     22  C   UNL     1      -1.782  -2.772   5.356  0.00  0.00    +0.026 A 
ATOM     23  C   UNL     1      -3.004  -3.346   5.649  0.00  0.00    +0.002 A 
ATOM     24  C   UNL     1      -3.829  -2.774   6.600  0.00  0.00    +0.002 A 
ATOM     25  C   UNL     1      -3.435  -1.626   7.261  0.00  0.00    +0.022 A 
ATOM     26  C   UNL     1      -2.211  -1.049   6.978  0.00  0.00    +0.064 A 
ATOM     27 CL   UNL     1      -1.714   0.389   7.813  0.00  0.00    -0.082 Cl
ENDBRANCH  20  21
BRANCH  20  28
ATOM     28  S   UNL     1       1.188  -1.429   6.622  0.00  0.00    +0.075 S 
ATOM     29  O   UNL     1       0.936  -2.708   7.185  0.00  0.00    -0.150 OA
ATOM     30  O   UNL     1       2.320  -1.166   5.803  0.00  0.00    -0.150 OA
BRANCH  28  31
ATOM     31  C   UNL     1       1.266  -0.293   7.966  0.00  0.00    +0.109 A 
ATOM     32  C   UNL     1       1.957   0.897   7.827  0.00  0.00    +0.029 A 
ATOM     33  C   UNL     1       2.018   1.788   8.883  0.00  0.00    +0.002 A 
ATOM     34  C   UNL     1       1.388   1.490  10.076  0.00  0.00    +0.000 A 
ATOM     35  C   UNL     1       0.696   0.301  10.215  0.00  0.00    +0.002 A 
ATOM     36  C   UNL     1       0.632  -0.588   9.159  0.00  0.00    +0.029 A 
ENDBRANCH  28  31
ENDBRANCH  20  28
ENDBRANCH  19  20
ENDBRANCH   2  19
TORSDOF 8
