REMARK  Name = ZINC35415922
REMARK  10 active torsions:
REMARK  status: ('A' for Active; 'I' for Inactive)
REMARK    1  A    between atoms: C_1  and  C_2
REMARK    2  A    between atoms: C_5  and  C_8
REMARK    3  A    between atoms: C_8  and  N_9
REMARK    4  A    between atoms: N_9  and  C_10
REMARK    5  A    between atoms: N_9  and  C_22
REMARK    6  A    between atoms: C_10  and  C_11
REMARK    7  A    between atoms: C_11  and  C_12
REMARK    8  A    between atoms: C_22  and  C_23
REMARK    9  A    between atoms: C_25  and  C_28
REMARK   10  A    between atoms: C_33  and  C_36
REMARK                            x       y       z     vdW  Elec       q    Type
REMARK                         _______ _______ _______ _____ _____    ______ ____
ROOT
ATOM      1  N   UNL     1       1.115  -4.326  -0.077  0.00  0.00    +0.387 N 
ATOM      2  H   UNL     1       1.450  -3.992  -0.968  0.00  0.00    -0.081 HD
ENDROOT
BRANCH   1   3
ATOM      3  C   UNL     1      -0.353  -4.288  -0.061  0.00  0.00    -0.042 C 
BRANCH   3   8
ATOM      4  C   UNL     1      -2.266  -5.822   5.172  0.00  0.00    +0.044 C 
ATOM      5  C   UNL     1      -1.767  -5.422   3.807  0.00  0.00    -0.050 A 
ATOM      6  C   UNL     1      -1.446  -4.102   3.548  0.00  0.00    +0.003 A 
ATOM      7  C   UNL     1      -0.988  -3.736   2.296  0.00  0.00    +0.002 A 
ATOM      8  C   UNL     1      -0.852  -4.688   1.304  0.00  0.00    -0.064 A 
ATOM      9  C   UNL     1      -1.172  -6.007   1.563  0.00  0.00    +0.002 A 
ATOM     10  C   UNL     1      -1.625  -6.375   2.816  0.00  0.00    +0.003 A 
ENDBRANCH   3   8
ENDBRANCH   1   3
BRANCH   1  11
ATOM     11  C   UNL     1       1.639  -3.470   0.996  0.00  0.00    -0.073 C 
BRANCH  11  12
ATOM     12  C   UNL     1       1.287  -2.010   0.701  0.00  0.00    +0.019 C 
BRANCH  12  13
ATOM     13  C   UNL     1       1.917  -1.122   1.742  0.00  0.00    -0.024 A 
ATOM     14  C   UNL     1       1.334  -0.669   2.864  0.00  0.00    +0.087 A 
ATOM     15  N   UNL     1       2.214   0.111   3.564  0.00  0.00    -0.360 N 
ATOM     16  H   UNL     1       2.020   0.549   4.408  0.00  0.00    +0.165 HD
ATOM     17  C   UNL     1       3.414   0.181   2.894  0.00  0.00    +0.047 A 
ATOM     18  C   UNL     1       3.283  -0.593   1.726  0.00  0.00    +0.003 A 
ATOM     19  C   UNL     1       4.359  -0.711   0.844  0.00  0.00    +0.010 A 
ATOM     20  C   UNL     1       5.536  -0.075   1.122  0.00  0.00    +0.001 A 
ATOM     21  C   UNL     1       5.672   0.686   2.274  0.00  0.00    +0.002 A 
ATOM     22  C   UNL     1       4.620   0.823   3.154  0.00  0.00    +0.026 A 
ENDBRANCH  12  13
ENDBRANCH  11  12
ENDBRANCH   1  11
BRANCH   1  23
ATOM     23  C   UNL     1       1.571  -5.707   0.131  0.00  0.00    -0.014 C 
BRANCH  23  24
ATOM     24  C   UNL     1       1.175  -6.551  -1.052  0.00  0.00    +0.063 A 
ATOM     25  N   UNL     1       1.885  -6.841  -2.108  0.00  0.00    -0.241 NA
ATOM     26  C   UNL     1       1.335  -7.615  -3.049  0.00  0.00    +0.133 A 
ATOM     27  C   UNL     1       0.055  -8.037  -2.810  0.00  0.00    +0.079 A 
ATOM     28  S   UNL     1      -0.281  -7.344  -1.317  0.00  0.00    -0.082 S 
BRANCH  26  29
ATOM     29  C   UNL     1       2.064  -7.992  -4.272  0.00  0.00    +0.265 C 
ATOM     30  O   UNL     1       1.486  -8.574  -5.170  0.00  0.00    -0.268 OA
ATOM     31  N   UNL     1       3.373  -7.692  -4.396  0.00  0.00    -0.296 N 
ATOM     32  C   UNL     1       4.124  -7.135  -3.263  0.00  0.00    +0.108 C 
ATOM     33  C   UNL     1       5.366  -7.999  -3.024  0.00  0.00    +0.022 C 
ATOM     34  C   UNL     1       6.170  -8.099  -4.322  0.00  0.00    -0.011 C 
ATOM     35  C   UNL     1       5.317  -8.769  -5.402  0.00  0.00    +0.022 C 
ATOM     36  C   UNL     1       4.076  -7.920  -5.666  0.00  0.00    +0.108 C 
ATOM     37  C   UNL     1       7.430  -8.932  -4.078  0.00  0.00    +0.007 C 
ENDBRANCH  26  29
ENDBRANCH  23  24
ENDBRANCH   1  23
TORSDOF 8
