REMARK  Name = ZINC13265107
REMARK  11 active torsions:
REMARK  status: ('A' for Active; 'I' for Inactive)
REMARK    1  A    between atoms: C_1  and  C_2
REMARK    2  A    between atoms: C_2  and  C_3
REMARK    3  A    between atoms: C_2  and  C_4
REMARK    4  A    between atoms: C_4  and  C_5
REMARK    5  A    between atoms: C_5  and  O_6
REMARK    6  A    between atoms: O_6  and  C_7
REMARK    7  A    between atoms: C_10  and  C_13
REMARK    8  A    between atoms: N_15  and  N_16
REMARK    9  A    between atoms: N_16  and  S_17
REMARK   10  A    between atoms: S_17  and  C_20
REMARK   11  A    between atoms: C_22  and  C_27
REMARK                            x       y       z     vdW  Elec       q    Type
REMARK                         _______ _______ _______ _____ _____    ______ ____
ROOT
ATOM      1  C   UNL     1      -1.139   1.030  -0.132  0.00  0.00    +0.259 C 
ATOM      2  O   UNL     1      -1.405   2.216  -0.098  0.00  0.00    -0.269 OA
ATOM      3  N   UNL     1       0.146   0.626  -0.082  0.00  0.00    -0.228 N 
ATOM      4  H   UNL     1       0.358  -0.320  -0.109  0.00  0.00    +0.171 HD
ENDROOT
BRANCH   1   8
ATOM      5  C   UNL     1      -4.258  -1.839  -0.406  0.00  0.00    +0.121 A 
ATOM      6  C   UNL     1      -4.564  -0.483  -0.367  0.00  0.00    +0.046 A 
ATOM      7  C   UNL     1      -3.556   0.450  -0.278  0.00  0.00    +0.016 A 
ATOM      8  C   UNL     1      -2.223   0.033  -0.227  0.00  0.00    +0.038 A 
ATOM      9  C   UNL     1      -1.919  -1.330  -0.271  0.00  0.00    +0.016 A 
ATOM     10  C   UNL     1      -2.934  -2.258  -0.354  0.00  0.00    +0.046 A 
BRANCH   5  11
ATOM     11  O   UNL     1      -5.255  -2.756  -0.494  0.00  0.00    -0.492 OA
BRANCH  11  12
ATOM     12  C   UNL     1      -4.870  -4.131  -0.529  0.00  0.00    +0.229 C 
BRANCH  12  13
ATOM     13  C   UNL     1      -6.120  -5.008  -0.629  0.00  0.00    +0.044 C 
BRANCH  13  15
ATOM     14  C   UNL     1      -5.051  -6.861   0.662  0.00  0.00    +0.007 C 
ATOM     15  C   UNL     1      -5.707  -6.481  -0.667  0.00  0.00    -0.014 C 
ATOM     16  C   UNL     1      -6.946  -7.352  -0.891  0.00  0.00    +0.007 C 
ENDBRANCH  13  15
ENDBRANCH  12  13
ENDBRANCH  11  12
ENDBRANCH   5  11
ENDBRANCH   1   8
BRANCH   3  17
ATOM     17  N   UNL     1       1.175   1.572   0.003  0.00  0.00    -0.108 NA
ATOM     18  H   UNL     1       1.239   2.280  -0.658  0.00  0.00    +0.172 HD
BRANCH  17  19
ATOM     19  S   UNL     1       2.283   1.484   1.230  0.00  0.00    +0.075 S 
ATOM     20  O   UNL     1       2.800   0.160   1.216  0.00  0.00    -0.152 OA
ATOM     21  O   UNL     1       3.116   2.628   1.109  0.00  0.00    -0.152 OA
BRANCH  19  22
ATOM     22  C   UNL     1       1.398   1.663   2.744  0.00  0.00    +0.121 A 
ATOM     23  C   UNL     1       1.359   0.620   3.645  0.00  0.00    +0.044 A 
ATOM     24  C   UNL     1       0.662   0.765   4.846  0.00  0.00    +0.065 A 
ATOM     25  C   UNL     1      -0.001   1.963   5.122  0.00  0.00    +0.016 A 
ATOM     26  C   UNL     1       0.041   2.996   4.210  0.00  0.00    +0.018 A 
ATOM     27  C   UNL     1       0.739   2.848   3.023  0.00  0.00    +0.044 A 
ATOM     28 BR   UNL     1       0.793   4.271   1.778  0.00  0.00    -0.048 Br
BRANCH  24  29
ATOM     29  C   UNL     1       0.621  -0.346   5.819  0.00  0.00    +0.387 C 
ATOM     30  O   UNL     1       1.198  -1.387   5.577  0.00  0.00    -0.241 OA
ATOM     31  O   UNL     1      -0.056  -0.204   6.975  0.00  0.00    -0.241 OA
ENDBRANCH  24  29
ENDBRANCH  19  22
ENDBRANCH  17  19
ENDBRANCH   3  17
TORSDOF 9
