REMARK  Name = ZINC41584035
REMARK  10 active torsions:
REMARK  status: ('A' for Active; 'I' for Inactive)
REMARK    1  A    between atoms: C_1  and  C_2
REMARK    2  A    between atoms: C_2  and  C_3
REMARK    3  A    between atoms: C_3  and  C_4
REMARK    4  A    between atoms: C_4  and  N_5
REMARK    5  A    between atoms: N_5  and  C_6
REMARK    6  A    between atoms: N_5  and  C_7
REMARK    7  A    between atoms: C_7  and  C_8
REMARK    8  A    between atoms: C_9  and  O_27
REMARK    9  A    between atoms: C_11  and  C_26
REMARK   10  A    between atoms: C_16  and  C_17
REMARK                            x       y       z     vdW  Elec       q    Type
REMARK                         _______ _______ _______ _____ _____    ______ ____
ROOT
ATOM      1  C   UNL     1      -4.423  -4.064   0.223  0.00  0.00    +0.020 A 
ATOM      2  C   UNL     1      -4.957  -4.274   1.484  0.00  0.00    +0.122 A 
ATOM      3  C   UNL     1      -6.123  -5.018   1.644  0.00  0.00    +0.050 A 
ATOM      4  C   UNL     1      -6.752  -5.550   0.555  0.00  0.00    -0.033 A 
ATOM      5  C   UNL     1      -6.225  -5.347  -0.721  0.00  0.00    +0.071 A 
ATOM      6  C   UNL     1      -5.053  -4.593  -0.896  0.00  0.00    +0.145 A 
ATOM      7  O   UNL     1      -4.743  -4.529  -2.209  0.00  0.00    -0.451 OA
ATOM      8  C   UNL     1      -5.642  -5.196  -2.971  0.00  0.00    +0.176 C 
ATOM      9  C   UNL     1      -5.612  -5.320  -4.321  0.00  0.00    +0.058 C 
ATOM     10  C   UNL     1      -6.649  -5.774  -2.067  0.00  0.00    +0.232 C 
ATOM     11  O   UNL     1      -7.623  -6.444  -2.365  0.00  0.00    -0.283 OA
ATOM     12  C   UNL     1      -8.014  -6.356   0.731  0.00  0.00    +0.045 C 
ENDROOT
BRANCH   9  13
ATOM     13  C   UNL     1      -4.457  -4.818  -5.080  0.00  0.00    -0.020 A 
ATOM     14  C   UNL     1      -3.315  -4.367  -4.407  0.00  0.00    +0.008 A 
ATOM     15  C   UNL     1      -2.236  -3.898  -5.126  0.00  0.00    +0.002 A 
ATOM     16  C   UNL     1      -2.280  -3.872  -6.509  0.00  0.00    +0.015 A 
ATOM     17  C   UNL     1      -3.405  -4.316  -7.183  0.00  0.00    +0.018 A 
ATOM     18  C   UNL     1      -4.492  -4.793  -6.479  0.00  0.00    +0.023 A 
ATOM     19 BR   UNL     1      -3.452  -4.273  -9.073  0.00  0.00    -0.050 Br
ENDBRANCH   9  13
BRANCH   2  20
ATOM     20  O   UNL     1      -4.339  -3.750   2.573  0.00  0.00    -0.506 OA
ATOM     21  H   UNL     1      -4.641  -2.861   2.807  0.00  0.00    +0.292 HD
ENDBRANCH   2  20
BRANCH   1  22
ATOM     22  C   UNL     1      -3.160  -3.256   0.065  0.00  0.00    -0.036 C 
BRANCH  22  23
ATOM     23  N   UNL     1      -3.505  -1.838  -0.108  0.00  0.00    +0.381 N 
ATOM     24  C   UNL     1      -4.239  -1.663  -1.368  0.00  0.00    -0.096 C 
ATOM     25  H   UNL     1      -4.082  -1.536   0.662  0.00  0.00    -0.082 HD
BRANCH  23  26
ATOM     26  C   UNL     1      -2.274  -1.036  -0.142  0.00  0.00    -0.079 C 
BRANCH  26  27
ATOM     27  C   UNL     1      -2.635   0.449  -0.197  0.00  0.00    -0.019 C 
BRANCH  27  29
ATOM     28  C   UNL     1      -1.715   2.771  -0.287  0.00  0.00    +0.004 C 
ATOM     29  C   UNL     1      -1.354   1.285  -0.233  0.00  0.00    -0.005 C 
ENDBRANCH  27  29
ENDBRANCH  26  27
ENDBRANCH  23  26
ENDBRANCH  22  23
ENDBRANCH   1  22
TORSDOF 7
