REMARK  Name = ZINC38905878
REMARK  6 active torsions:
REMARK  status: ('A' for Active; 'I' for Inactive)
REMARK    1  A    between atoms: C_1  and  C_2
REMARK    2  A    between atoms: C_4  and  C_12
REMARK    3  A    between atoms: C_13  and  C_14
REMARK    4  A    between atoms: N_25  and  C_26
REMARK    5  A    between atoms: C_29  and  O_32
REMARK    6  A    between atoms: O_32  and  C_33
REMARK                            x       y       z     vdW  Elec       q    Type
REMARK                         _______ _______ _______ _____ _____    ______ ____
ROOT
ATOM      1  C   UNL     1       0.872  -0.388  -4.982  0.00  0.00    +0.190 C 
ATOM      2  N   UNL     1       1.979   0.387  -5.552  0.00  0.00    -0.322 N 
ATOM      3  C   UNL     1       3.139  -0.280  -5.932  0.00  0.00    +0.041 A 
ATOM      4  C   UNL     1       4.376   0.341  -5.914  0.00  0.00    +0.024 A 
ATOM      5  C   UNL     1       5.499  -0.361  -6.310  0.00  0.00    +0.002 A 
ATOM      6  C   UNL     1       5.396  -1.679  -6.726  0.00  0.00    +0.001 A 
ATOM      7  C   UNL     1       4.171  -2.314  -6.745  0.00  0.00    +0.015 A 
ATOM      8  C   UNL     1       3.031  -1.620  -6.343  0.00  0.00    +0.058 A 
ATOM      9  C   UNL     1       1.705  -2.261  -6.323  0.00  0.00    +0.254 C 
ATOM     10  O   UNL     1       1.546  -3.358  -6.823  0.00  0.00    -0.270 OA
ATOM     11  N   UNL     1       0.673  -1.621  -5.745  0.00  0.00    -0.245 N 
ATOM     12  H   UNL     1       1.904   1.348  -5.663  0.00  0.00    +0.148 HD
ENDROOT
BRANCH  11  13
ATOM     13  C   UNL     1      -0.617  -2.148  -5.876  0.00  0.00    +0.039 A 
ATOM     14  C   UNL     1      -0.930  -3.372  -5.299  0.00  0.00    +0.027 A 
ATOM     15  C   UNL     1      -2.203  -3.891  -5.428  0.00  0.00    +0.047 A 
ATOM     16  C   UNL     1      -3.169  -3.191  -6.136  0.00  0.00    +0.120 A 
ATOM     17  C   UNL     1      -2.858  -1.968  -6.713  0.00  0.00    +0.047 A 
ATOM     18  C   UNL     1      -1.587  -1.445  -6.579  0.00  0.00    +0.027 A 
BRANCH  16  19
ATOM     19  O   UNL     1      -4.422  -3.703  -6.264  0.00  0.00    -0.495 OA
ATOM     20  C   UNL     1      -5.367  -2.929  -7.005  0.00  0.00    +0.277 C 
ENDBRANCH  16  19
ENDBRANCH  11  13
BRANCH   1  22
ATOM     21  C   UNL     1       0.388  -0.308  -2.563  0.00  0.00    +0.005 C 
ATOM     22  C   UNL     1       1.190  -0.734  -3.550  0.00  0.00    +0.015 C 
BRANCH  21  25
ATOM     23  C   UNL     1       1.789  -2.807  -1.181  0.00  0.00    +0.035 C 
ATOM     24  C   UNL     1       1.908  -1.357  -0.707  0.00  0.00    +0.107 C 
ATOM     25  C   UNL     1       0.738  -0.544  -1.218  0.00  0.00    -0.017 C 
ATOM     26  C   UNL     1       0.082  -0.079  -0.086  0.00  0.00    +0.003 A 
ATOM     27  C   UNL     1      -1.068   0.725   0.090  0.00  0.00    +0.010 A 
ATOM     28  C   UNL     1      -1.491   1.029   1.342  0.00  0.00    +0.001 A 
ATOM     29  C   UNL     1      -0.817   0.566   2.477  0.00  0.00    +0.002 A 
ATOM     30  C   UNL     1       0.291  -0.208   2.385  0.00  0.00    +0.026 A 
ATOM     31  C   UNL     1       0.796  -0.570   1.108  0.00  0.00    +0.043 A 
ATOM     32  N   UNL     1       1.836  -1.296   0.756  0.00  0.00    -0.378 N 
ATOM     33  H   UNL     1       2.457  -1.724   1.367  0.00  0.00    +0.160 HD
ENDBRANCH  21  25
ENDBRANCH   1  22
TORSDOF 4
