REMARK  Name = ZINC23858594
REMARK  9 active torsions:
REMARK  status: ('A' for Active; 'I' for Inactive)
REMARK    1  A    between atoms: C_1  and  C_2
REMARK    2  A    between atoms: C_2  and  C_3
REMARK    3  A    between atoms: C_2  and  C_4
REMARK    4  A    between atoms: C_2  and  C_5
REMARK    5  A    between atoms: N_7  and  C_8
REMARK    6  A    between atoms: C_8  and  C_9
REMARK    7  A    between atoms: C_9  and  C_11
REMARK    8  A    between atoms: C_9  and  N_22
REMARK    9  A    between atoms: N_20  and  C_21
REMARK                            x       y       z     vdW  Elec       q    Type
REMARK                         _______ _______ _______ _____ _____    ______ ____
ROOT
ATOM      1  C   UNL     1       3.400  -2.245   4.423  0.00  0.00    -0.020 C 
ENDROOT
BRANCH   1   2
ATOM      2  C   UNL     1       2.540  -1.796   3.270  0.00  0.00    -0.059 A 
ATOM      3  C   UNL     1       1.666  -2.684   2.670  0.00  0.00    +0.004 A 
ATOM      4  C   UNL     1       0.883  -2.272   1.614  0.00  0.00    +0.023 A 
ATOM      5  C   UNL     1       0.965  -0.960   1.143  0.00  0.00    +0.033 A 
ATOM      6  C   UNL     1       1.837  -0.074   1.749  0.00  0.00    -0.026 A 
ATOM      7  C   UNL     1       2.624  -0.497   2.809  0.00  0.00    +0.007 A 
ATOM      8  C   UNL     1       1.966   1.358   1.295  0.00  0.00    +0.038 C 
ATOM      9  C   UNL     1       1.329   1.519  -0.086  0.00  0.00    +0.024 C 
ATOM     10  C   UNL     1      -0.046   0.839  -0.055  0.00  0.00    +0.105 C 
ATOM     11  N   UNL     1       0.150  -0.607   0.068  0.00  0.00    -0.333 N 
ATOM     12  C   UNL     1      -1.138  -1.309   0.130  0.00  0.00    +0.129 C 
ENDBRANCH   1   2
BRANCH   1  13
ATOM     13  N   UNL     1       3.893  -3.605   4.166  0.00  0.00    +0.385 N 
ATOM     14  C   UNL     1       4.703  -3.651   2.922  0.00  0.00    -0.078 C 
ATOM     15  C   UNL     1       5.539  -4.944   3.091  0.00  0.00    -0.020 C 
ATOM     16  C   UNL     1       5.868  -4.947   4.602  0.00  0.00    -0.020 C 
ATOM     17  C   UNL     1       4.792  -4.056   5.250  0.00  0.00    -0.078 C 
ATOM     18  H   UNL     1       2.997  -4.239   4.095  0.00  0.00    -0.081 HD
ENDBRANCH   1  13
BRANCH   1  19
ATOM     19  C   UNL     1       2.572  -2.237   5.710  0.00  0.00    +0.093 C 
BRANCH  19  22
ATOM     20  C   UNL     1       1.366  -0.619   7.075  0.00  0.00    +0.218 C 
ATOM     21  O   UNL     1       0.940  -1.540   7.738  0.00  0.00    -0.275 OA
ATOM     22  N   UNL     1       2.190  -0.861   6.037  0.00  0.00    -0.316 N 
ATOM     23  H   UNL     1       2.577  -0.025   5.435  0.00  0.00    +0.149 HD
BRANCH  20  25
ATOM     24  C   UNL     1       0.038   0.793   8.622  0.00  0.00    +0.020 C 
ATOM     25  C   UNL     1       0.973   0.797   7.411  0.00  0.00    +0.039 C 
ATOM     26  C   UNL     1       2.227   1.610   7.737  0.00  0.00    +0.020 C 
ATOM     27  C   UNL     1       0.255   1.425   6.214  0.00  0.00    +0.020 C 
ENDBRANCH  20  25
ENDBRANCH  19  22
ENDBRANCH   1  19
TORSDOF 5
