REMARK  Name = ZINC24275647
REMARK  9 active torsions:
REMARK  status: ('A' for Active; 'I' for Inactive)
REMARK    1  A    between atoms: C_1  and  C_2
REMARK    2  A    between atoms: C_8  and  N_10
REMARK    3  A    between atoms: C_11  and  C_13
REMARK    4  A    between atoms: C_13  and  S_14
REMARK    5  A    between atoms: S_14  and  C_15
REMARK    6  A    between atoms: C_18  and  S_21
REMARK    7  A    between atoms: N_19  and  N_20
REMARK    8  A    between atoms: S_21  and  C_22
REMARK    9  A    between atoms: C_22  and  C_23
REMARK                            x       y       z     vdW  Elec       q    Type
REMARK                         _______ _______ _______ _____ _____    ______ ____
ROOT
ATOM      1  C   UNL     1       1.308  -0.408  -0.013  0.00  0.00    +0.209 A 
ATOM      2  N   UNL     1       2.063   0.663  -0.014  0.00  0.00    -0.120 NA
ATOM      3  N   UNL     1       1.225   1.785  -0.000  0.00  0.00    -0.120 NA
ATOM      4  C   UNL     1      -0.017   1.363   0.009  0.00  0.00    +0.209 A 
ATOM      5  N   UNL     1       0.002  -0.004   0.002  0.00  0.00    -0.219 N 
ENDROOT
BRANCH   5   6
ATOM      6  N   UNL     1      -1.092  -0.822   0.008  0.00  0.00    -0.294 N 
ATOM      7  H   UNL     1      -2.103  -0.388   0.020  0.00  0.00    +0.163 HD
ATOM      8  H   UNL     1      -0.962  -1.914   0.001  0.00  0.00    +0.163 HD
ENDBRANCH   5   6
BRANCH   1   9
ATOM      9  S   UNL     1       1.875  -2.076  -0.026  0.00  0.00    -0.075 S 
BRANCH   9  10
ATOM     10  C   UNL     1       3.683  -1.925  -0.043  0.00  0.00    +0.173 C 
BRANCH  10  12
ATOM     11  N   UNL     1       5.643  -3.434  -0.069  0.00  0.00    -0.312 N 
ATOM     12  C   UNL     1       4.302  -3.299  -0.056  0.00  0.00    +0.224 C 
ATOM     13  O   UNL     1       3.594  -4.283  -0.053  0.00  0.00    -0.275 OA
ATOM     14  H   UNL     1       6.285  -2.541  -0.071  0.00  0.00    +0.149 HD
BRANCH  11  21
ATOM     15  C   UNL     1       7.571  -4.190   1.955  0.00  0.00    +0.009 C 
ATOM     16  C   UNL     1       7.652  -4.700   0.515  0.00  0.00    +0.006 C 
ATOM     17  C   UNL     1       8.281  -6.095   0.502  0.00  0.00    +0.005 C 
ATOM     18  C   UNL     1       8.362  -6.604  -0.938  0.00  0.00    +0.000 C 
ATOM     19  C   UNL     1       6.954  -6.674  -1.535  0.00  0.00    +0.002 C 
ATOM     20  C   UNL     1       6.326  -5.279  -1.522  0.00  0.00    +0.022 C 
ATOM     21  C   UNL     1       6.245  -4.769  -0.082  0.00  0.00    +0.076 C 
ENDBRANCH  11  21
ENDBRANCH  10  12
ENDBRANCH   9  10
ENDBRANCH   1   9
BRANCH   4  22
ATOM     22  S   UNL     1      -1.456   2.379   0.022  0.00  0.00    -0.080 S 
BRANCH  22  23
ATOM     23  C   UNL     1      -0.799   4.070   0.028  0.00  0.00    +0.112 C 
BRANCH  23  24
ATOM     24  C   UNL     1      -1.942   5.052   0.039  0.00  0.00    -0.037 A 
ATOM     25  C   UNL     1      -2.468   5.514  -1.153  0.00  0.00    +0.004 A 
ATOM     26  C   UNL     1      -3.519   6.412  -1.143  0.00  0.00    +0.000 A 
ATOM     27  C   UNL     1      -4.038   6.855   0.059  0.00  0.00    +0.000 A 
ATOM     28  C   UNL     1      -3.508   6.398   1.251  0.00  0.00    +0.000 A 
ATOM     29  C   UNL     1      -2.460   5.497   1.241  0.00  0.00    +0.004 A 
ENDBRANCH  23  24
ENDBRANCH  22  23
ENDBRANCH   4  22
TORSDOF 8
