REMARK  Name = ZINC52008733
REMARK  4 active torsions:
REMARK  status: ('A' for Active; 'I' for Inactive)
REMARK    1  A    between atoms: C_4  and  C_10
REMARK    2  A    between atoms: C_6  and  N_7
REMARK    3  A    between atoms: N_12  and  C_13
REMARK    4  A    between atoms: C_19  and  O_21
REMARK                            x       y       z     vdW  Elec       q    Type
REMARK                         _______ _______ _______ _____ _____    ______ ____
ROOT
ATOM      1  C   UNL     1       3.695  -0.686  -0.038  0.00  0.00    +0.245 C 
ATOM      2  O   UNL     1       4.738  -0.061  -0.046  0.00  0.00    -0.270 OA
ATOM      3  N   UNL     1       3.716  -2.033  -0.046  0.00  0.00    -0.306 N 
ATOM      4  H   UNL     1       2.884  -2.532  -0.040  0.00  0.00    +0.149 HD
ENDROOT
BRANCH   1   8
ATOM      5  C   UNL     1      -0.017   1.379   0.010  0.00  0.00    +0.034 A 
ATOM      6  C   UNL     1       1.168   2.094   0.002  0.00  0.00    +0.017 A 
ATOM      7  C   UNL     1       2.378   1.429  -0.013  0.00  0.00    +0.026 A 
ATOM      8  C   UNL     1       2.404   0.033  -0.021  0.00  0.00    +0.052 A 
ATOM      9  C   UNL     1       1.204  -0.681  -0.013  0.00  0.00    +0.046 A 
ATOM     10  C   UNL     1       0.002  -0.004   0.002  0.00  0.00    +0.127 A 
ATOM     11  I   UNL     1       4.171   2.513  -0.026  0.00  0.00    -0.043 I 
BRANCH  10  12
ATOM     12  N   UNL     1      -1.271  -0.760   0.011  0.00  0.00    +0.056 N 
ATOM     13  O   UNL     1      -2.325  -0.168   0.024  0.00  0.00    -0.126 OA
ATOM     14  O   UNL     1      -1.256  -1.969   0.004  0.00  0.00    -0.126 OA
ENDBRANCH  10  12
ENDBRANCH   1   8
BRANCH   3  15
ATOM     15  C   UNL     1       4.996  -2.746  -0.063  0.00  0.00    +0.102 C 
ATOM     16  C   UNL     1       5.518  -2.892   1.368  0.00  0.00    +0.025 C 
ATOM     17  C   UNL     1       6.855  -3.635   1.350  0.00  0.00    +0.002 C 
ATOM     18  C   UNL     1       6.658  -5.023   0.735  0.00  0.00    +0.003 C 
ATOM     19  C   UNL     1       6.137  -4.877  -0.696  0.00  0.00    +0.033 C 
ATOM     20  C   UNL     1       4.800  -4.133  -0.678  0.00  0.00    +0.135 C 
BRANCH  20  21
ATOM     21  O   UNL     1       4.313  -3.997  -2.014  0.00  0.00    -0.390 OA
ATOM     22  H   UNL     1       4.165  -4.838  -2.467  0.00  0.00    +0.210 HD
ENDBRANCH  20  21
ENDBRANCH   3  15
TORSDOF 4
