REMARK  Name = ZINC23483732
REMARK  10 active torsions:
REMARK  status: ('A' for Active; 'I' for Inactive)
REMARK    1  A    between atoms: C_1  and  C_2
REMARK    2  A    between atoms: C_2  and  N_3
REMARK    3  A    between atoms: N_3  and  C_4
REMARK    4  A    between atoms: C_12  and  C_14
REMARK    5  A    between atoms: C_14  and  O_15
REMARK    6  A    between atoms: O_15  and  C_16
REMARK    7  A    between atoms: C_16  and  C_18
REMARK    8  A    between atoms: N_24  and  S_25
REMARK    9  A    between atoms: S_25  and  C_28
REMARK   10  A    between atoms: C_31  and  C_34
REMARK                            x       y       z     vdW  Elec       q    Type
REMARK                         _______ _______ _______ _____ _____    ______ ____
ROOT
ATOM      1  C   UNL     1      -1.565  -1.140  -4.902  0.00  0.00    +0.327 C 
ATOM      2  O   UNL     1      -1.306  -0.082  -4.379  0.00  0.00    -0.249 OA
ENDROOT
BRANCH   1   3
ATOM      3  C   UNL     1      -2.526  -1.192  -6.062  0.00  0.00    +0.188 C 
ATOM      4  C   UNL     1      -3.826  -0.476  -5.684  0.00  0.00    +0.032 C 
ATOM      5  C   UNL     1      -4.742  -0.411  -6.908  0.00  0.00    +0.003 C 
ATOM      6  C   UNL     1      -4.056   0.388  -8.019  0.00  0.00    +0.017 C 
ATOM      7  C   UNL     1      -2.758  -0.318  -8.423  0.00  0.00    +0.110 C 
ATOM      8  N   UNL     1      -1.932  -0.517  -7.224  0.00  0.00    -0.163 NA
BRANCH   8   9
ATOM      9  S   UNL     1      -0.363   0.012  -7.182  0.00  0.00    +0.062 S 
ATOM     10  O   UNL     1       0.252  -0.628  -6.072  0.00  0.00    -0.153 OA
ATOM     11  O   UNL     1       0.141  -0.107  -8.506  0.00  0.00    -0.153 OA
BRANCH   9  12
ATOM     12  C   UNL     1      -0.404   1.734  -6.812  0.00  0.00    +0.106 A 
ATOM     13  C   UNL     1      -0.467   2.660  -7.836  0.00  0.00    +0.029 A 
ATOM     14  C   UNL     1      -0.503   4.011  -7.545  0.00  0.00    +0.005 A 
ATOM     15  C   UNL     1      -0.467   4.436  -6.231  0.00  0.00    -0.050 A 
ATOM     16  C   UNL     1      -0.399   3.510  -5.206  0.00  0.00    +0.005 A 
ATOM     17  C   UNL     1      -0.367   2.159  -5.497  0.00  0.00    +0.029 A 
ATOM     18  C   UNL     1      -0.503   5.909  -5.913  0.00  0.00    +0.044 C 
ENDBRANCH   9  12
ENDBRANCH   8   9
ENDBRANCH   1   3
BRANCH   1  19
ATOM     19  O   UNL     1      -0.996  -2.269  -4.451  0.00  0.00    -0.454 OA
BRANCH  19  20
ATOM     20  C   UNL     1      -0.081  -2.143  -3.330  0.00  0.00    +0.327 C 
BRANCH  20  22
ATOM     21  N   UNL     1       1.328  -3.632  -1.946  0.00  0.00    -0.294 N 
ATOM     22  C   UNL     1       0.455  -3.503  -2.965  0.00  0.00    +0.254 C 
ATOM     23  O   UNL     1       0.100  -4.482  -3.587  0.00  0.00    -0.272 OA
BRANCH  21  24
ATOM     24  C   UNL     1       1.849  -4.955  -1.591  0.00  0.00    +0.099 C 
ATOM     25  C   UNL     1       0.687  -5.882  -1.196  0.00  0.00    +0.046 C 
ATOM     26  C   UNL     1       1.180  -7.347  -1.132  0.00  0.00    +0.168 C 
ATOM     27  S   UNL     1       2.568  -7.360  -2.338  0.00  0.00    -0.029 S 
ATOM     28  O   UNL     1       3.776  -7.658  -1.651  0.00  0.00    -0.174 OA
ATOM     29  O   UNL     1       2.195  -8.141  -3.465  0.00  0.00    -0.174 OA
ATOM     30  C   UNL     1       2.573  -5.581  -2.817  0.00  0.00    +0.188 C 
ENDBRANCH  21  24
BRANCH  21  32
ATOM     31  C   UNL     1       0.808  -2.224  -0.015  0.00  0.00    +0.024 C 
ATOM     32  C   UNL     1       1.756  -2.450  -1.195  0.00  0.00    +0.105 C 
ENDBRANCH  21  32
ENDBRANCH  20  22
ENDBRANCH  19  20
ENDBRANCH   1  19
TORSDOF 8
