REMARK  Name = ZINC00946449
REMARK  7 active torsions:
REMARK  status: ('A' for Active; 'I' for Inactive)
REMARK    1  A    between atoms: C_1  and  C_2
REMARK    2  A    between atoms: C_7  and  O_8
REMARK    3  A    between atoms: O_8  and  C_9
REMARK    4  A    between atoms: C_9  and  C_10
REMARK    5  A    between atoms: N_12  and  C_13
REMARK    6  A    between atoms: C_14  and  C_24
REMARK    7  A    between atoms: C_19  and  C_23
REMARK                            x       y       z     vdW  Elec       q    Type
REMARK                         _______ _______ _______ _____ _____    ______ ____
ROOT
ATOM      1  C   UNL     1      -0.021   1.728   0.011  0.00  0.00    +0.084 A 
ATOM      2  C   UNL     1       1.325   2.063   0.001  0.00  0.00    +0.068 A 
ATOM      3  C   UNL     1       2.288   0.974  -0.015  0.00  0.00    -0.023 A 
ATOM      4  C   UNL     1       1.753  -0.266  -0.017  0.00  0.00    -0.004 A 
ATOM      5  S   UNL     1       0.002  -0.004   0.002  0.00  0.00    -0.077 S 
ATOM      6  C   UNL     1       2.492  -1.568  -0.032  0.00  0.00    +0.046 C 
ATOM      7  C   UNL     1       3.951  -1.292  -0.424  0.00  0.00    -0.009 C 
ATOM      8  C   UNL     1       4.473  -0.121   0.415  0.00  0.00    +0.008 C 
ATOM      9  C   UNL     1       3.798   1.178  -0.027  0.00  0.00    +0.037 C 
ATOM     10  C   UNL     1       4.800  -2.535  -0.153  0.00  0.00    +0.008 C 
ENDROOT
BRANCH   2  11
ATOM     11  C   UNL     1       1.761   3.463   0.004  0.00  0.00    +0.244 C 
ATOM     12  O   UNL     1       1.952   4.038   1.060  0.00  0.00    -0.270 OA
ATOM     13  N   UNL     1       1.950   4.113  -1.161  0.00  0.00    -0.325 N 
ATOM     14  H   UNL     1       1.797   3.655  -2.002  0.00  0.00    +0.145 HD
ATOM     15  H   UNL     1       2.238   5.039  -1.158  0.00  0.00    +0.145 HD
ENDBRANCH   2  11
BRANCH   1  18
ATOM     16  C   UNL     1      -2.366   2.062   0.026  0.00  0.00    +0.255 C 
ATOM     17  O   UNL     1      -2.527   0.860   0.020  0.00  0.00    -0.272 OA
ATOM     18  N   UNL     1      -1.119   2.575   0.022  0.00  0.00    -0.277 N 
ATOM     19  H   UNL     1      -0.991   3.537   0.026  0.00  0.00    +0.155 HD
BRANCH  16  20
ATOM     20  C   UNL     1      -3.559   2.983   0.037  0.00  0.00    +0.324 C 
BRANCH  20  21
ATOM     21  O   UNL     1      -4.759   2.207   0.039  0.00  0.00    -0.482 OA
BRANCH  21  28
ATOM     22  C   UNL     1      -7.143   0.691   0.043  0.00  0.00    +0.047 C 
ATOM     23  C   UNL     1      -7.138   2.198   0.051  0.00  0.00    -0.007 A 
ATOM     24  C   UNL     1      -8.332   2.893   0.062  0.00  0.00    +0.027 A 
ATOM     25  C   UNL     1      -8.328   4.276   0.070  0.00  0.00    +0.041 A 
ATOM     26  C   UNL     1      -7.129   4.967   0.067  0.00  0.00    +0.023 A 
ATOM     27  C   UNL     1      -5.933   4.276   0.061  0.00  0.00    +0.047 A 
ATOM     28  C   UNL     1      -5.935   2.888   0.049  0.00  0.00    +0.124 A 
ATOM     29 CL   UNL     1      -9.830   5.147   0.083  0.00  0.00    -0.084 Cl
ENDBRANCH  21  28
ENDBRANCH  20  21
ENDBRANCH  16  20
ENDBRANCH   1  18
TORSDOF 5
