REMARK  Name = ZINC66991734
REMARK  9 active torsions:
REMARK  status: ('A' for Active; 'I' for Inactive)
REMARK    1  A    between atoms: C_1  and  C_2
REMARK    2  A    between atoms: C_2  and  C_9
REMARK    3  A    between atoms: C_13  and  C_15
REMARK    4  A    between atoms: C_15  and  N_16
REMARK    5  A    between atoms: N_16  and  C_17
REMARK    6  A    between atoms: C_17  and  C_18
REMARK    7  A    between atoms: C_21  and  O_25
REMARK    8  A    between atoms: O_25  and  C_26
REMARK    9  A    between atoms: C_26  and  C_27
REMARK                            x       y       z     vdW  Elec       q    Type
REMARK                         _______ _______ _______ _____ _____    ______ ____
ROOT
ATOM      1  C   UNL     1       0.657  -0.517  -1.255  0.00  0.00    -0.015 A 
ATOM      2  C   UNL     1       1.778  -1.322  -1.171  0.00  0.00    +0.006 A 
ATOM      3  C   UNL     1       2.379  -1.792  -2.323  0.00  0.00    +0.001 A 
ATOM      4  C   UNL     1       1.858  -1.458  -3.560  0.00  0.00    +0.002 A 
ATOM      5  C   UNL     1       0.737  -0.654  -3.644  0.00  0.00    -0.064 A 
ATOM      6  C   UNL     1       0.134  -0.187  -2.491  0.00  0.00    +0.008 A 
ENDROOT
BRANCH   1   8
ATOM      7  C   UNL     1      -0.019   1.526   0.010  0.00  0.00    +0.047 C 
ATOM      8  C   UNL     1       0.002  -0.004   0.002  0.00  0.00    +0.135 C 
ATOM      9  C   UNL     1      -1.403  -0.557   0.139  0.00  0.00    +0.248 C 
ATOM     10  O   UNL     1      -2.332  -0.392  -0.621  0.00  0.00    -0.273 OA
ATOM     11  N   UNL     1      -1.403  -1.272   1.282  0.00  0.00    -0.238 N 
ATOM     12  C   UNL     1      -0.206  -1.247   1.879  0.00  0.00    +0.307 C 
ATOM     13  O   UNL     1       0.040  -1.819   2.924  0.00  0.00    -0.252 OA
ATOM     14  N   UNL     1       0.695  -0.520   1.195  0.00  0.00    -0.282 N 
ATOM     15  H   UNL     1      -2.175  -1.745   1.629  0.00  0.00    +0.159 HD
ATOM     16  H   UNL     1       1.621  -0.365   1.440  0.00  0.00    +0.152 HD
ENDBRANCH   1   8
BRANCH   5  17
ATOM     17  C   UNL     1       0.170  -0.290  -4.992  0.00  0.00    -0.046 C 
BRANCH  17  18
ATOM     18  N   UNL     1      -0.823  -1.295  -5.393  0.00  0.00    +0.384 N 
ATOM     19  H   UNL     1      -0.381  -2.201  -5.448  0.00  0.00    -0.085 HD
ATOM     20  H   UNL     1      -1.567  -1.325  -4.712  0.00  0.00    -0.085 HD
BRANCH  18  21
ATOM     21  C   UNL     1      -1.375  -0.940  -6.707  0.00  0.00    -0.046 C 
BRANCH  21  22
ATOM     22  C   UNL     1      -2.394  -1.972  -7.119  0.00  0.00    -0.063 A 
ATOM     23  C   UNL     1      -1.997  -3.084  -7.838  0.00  0.00    +0.005 A 
ATOM     24  C   UNL     1      -2.929  -4.032  -8.218  0.00  0.00    +0.047 A 
ATOM     25  C   UNL     1      -4.263  -3.866  -7.877  0.00  0.00    +0.139 A 
ATOM     26  C   UNL     1      -4.659  -2.749  -7.155  0.00  0.00    +0.083 A 
ATOM     27  C   UNL     1      -3.722  -1.807  -6.773  0.00  0.00    +0.025 A 
ATOM     28 CL   UNL     1      -6.328  -2.538  -6.726  0.00  0.00    -0.080 Cl
BRANCH  25  29
ATOM     29  O   UNL     1      -5.181  -4.797  -8.250  0.00  0.00    -0.487 OA
BRANCH  29  30
ATOM     30  C   UNL     1      -4.702  -5.920  -8.991  0.00  0.00    +0.256 C 
BRANCH  30  31
ATOM     31  C   UNL     1      -5.854  -6.838  -9.313  0.00  0.00    +0.006 C 
ATOM     32  C   UNL     1      -5.977  -7.334 -10.519  0.00  0.00    +0.007 C 
ENDBRANCH  30  31
ENDBRANCH  29  30
ENDBRANCH  25  29
ENDBRANCH  21  22
ENDBRANCH  18  21
ENDBRANCH  17  18
ENDBRANCH   5  17
TORSDOF 8
