REMARK  Name = ZINC27498781
REMARK  13 active torsions:
REMARK  status: ('A' for Active; 'I' for Inactive)
REMARK    1  A    between atoms: C_1  and  C_2
REMARK    2  A    between atoms: C_2  and  O_3
REMARK    3  A    between atoms: O_3  and  C_4
REMARK    4  A    between atoms: C_4  and  C_6
REMARK    5  A    between atoms: C_6  and  C_8
REMARK    6  A    between atoms: C_6  and  N_16
REMARK    7  A    between atoms: C_8  and  C_9
REMARK    8  A    between atoms: C_12  and  O_15
REMARK    9  A    between atoms: N_16  and  C_17
REMARK   10  A    between atoms: C_20  and  S_26
REMARK   11  A    between atoms: C_22  and  N_23
REMARK   12  A    between atoms: S_26  and  C_29
REMARK   13  A    between atoms: C_33  and  N_35
REMARK                            x       y       z     vdW  Elec       q    Type
REMARK                         _______ _______ _______ _____ _____    ______ ____
ROOT
ATOM      1  C   UNL     1       1.139   5.400   4.248  0.00  0.00    +0.058 A 
ATOM      2  C   UNL     1       2.341   5.236   3.572  0.00  0.00    +0.027 A 
ATOM      3  C   UNL     1       2.362   4.599   2.347  0.00  0.00    +0.029 A 
ATOM      4  C   UNL     1       1.187   4.125   1.793  0.00  0.00    +0.096 A 
ATOM      5  C   UNL     1      -0.013   4.292   2.461  0.00  0.00    +0.062 A 
ATOM      6  C   UNL     1      -0.039   4.923   3.689  0.00  0.00    +0.149 A 
ENDROOT
BRANCH   6   7
ATOM      7  N   UNL     1      -1.323   5.096   4.405  0.00  0.00    +0.058 N 
ATOM      8  O   UNL     1      -1.363   4.988   5.618  0.00  0.00    -0.126 OA
ATOM      9  O   UNL     1      -2.339   5.345   3.783  0.00  0.00    -0.126 OA
ENDBRANCH   6   7
BRANCH   4  10
ATOM     10  S   UNL     1       1.217   3.313   0.230  0.00  0.00    +0.025 S 
ATOM     11  O   UNL     1       2.381   3.771  -0.444  0.00  0.00    -0.164 OA
ATOM     12  O   UNL     1      -0.086   3.447  -0.323  0.00  0.00    -0.164 OA
BRANCH  10  13
ATOM     13  C   UNL     1       1.458   1.595   0.539  0.00  0.00    +0.096 A 
ATOM     14  C   UNL     1       0.367   0.765   0.719  0.00  0.00    +0.027 A 
ATOM     15  C   UNL     1       0.556  -0.582   0.962  0.00  0.00    +0.004 A 
ATOM     16  C   UNL     1       1.836  -1.101   1.024  0.00  0.00    +0.033 A 
ATOM     17  C   UNL     1       2.927  -0.271   0.845  0.00  0.00    +0.128 A 
ATOM     18  C   UNL     1       2.738   1.077   0.602  0.00  0.00    +0.060 A 
BRANCH  17  19
ATOM     19  N   UNL     1       4.297  -0.826   0.912  0.00  0.00    +0.056 N 
ATOM     20  O   UNL     1       4.464  -2.013   1.127  0.00  0.00    -0.126 OA
ATOM     21  O   UNL     1       5.259  -0.094   0.754  0.00  0.00    -0.126 OA
ENDBRANCH  17  19
ENDBRANCH  10  13
ENDBRANCH   4  10
BRANCH   1  22
ATOM     22  N   UNL     1       1.115   6.043   5.488  0.00  0.00    -0.329 N 
ATOM     23  H   UNL     1       0.154   6.256   5.979  0.00  0.00    +0.147 HD
BRANCH  22  24
ATOM     24  C   UNL     1       2.370   6.435   6.134  0.00  0.00    +0.184 C 
BRANCH  24  25
ATOM     25  C   UNL     1       2.920   5.268   6.913  0.00  0.00    +0.328 C 
ATOM     26  O   UNL     1       2.324   4.216   6.926  0.00  0.00    -0.249 OA
BRANCH  25  27
ATOM     27  O   UNL     1       4.071   5.396   7.591  0.00  0.00    -0.464 OA
BRANCH  27  29
ATOM     28  C   UNL     1       5.856   4.565   9.024  0.00  0.00    +0.048 C 
ATOM     29  C   UNL     1       4.540   4.230   8.319  0.00  0.00    +0.229 C 
ENDBRANCH  27  29
ENDBRANCH  25  27
ENDBRANCH  24  25
BRANCH  24  30
ATOM     30  C   UNL     1       2.111   7.605   7.085  0.00  0.00    +0.068 C 
BRANCH  30  31
ATOM     31  C   UNL     1       1.678   8.811   6.291  0.00  0.00    -0.045 A 
ATOM     32  C   UNL     1       2.623   9.706   5.825  0.00  0.00    +0.007 A 
ATOM     33  C   UNL     1       2.230  10.809   5.093  0.00  0.00    +0.045 A 
ATOM     34  C   UNL     1       0.884  11.024   4.833  0.00  0.00    +0.117 A 
ATOM     35  C   UNL     1      -0.063  10.127   5.306  0.00  0.00    +0.045 A 
ATOM     36  C   UNL     1       0.336   9.023   6.034  0.00  0.00    +0.007 A 
BRANCH  34  37
ATOM     37  O   UNL     1       0.494  12.111   4.117  0.00  0.00    -0.507 OA
ATOM     38  H   UNL     1      -0.573  12.281   3.912  0.00  0.00    +0.292 HD
ENDBRANCH  34  37
ENDBRANCH  30  31
ENDBRANCH  24  30
ENDBRANCH  22  24
ENDBRANCH   1  22
TORSDOF 12
