REMARK  Name = ZINC57292427
REMARK  7 active torsions:
REMARK  status: ('A' for Active; 'I' for Inactive)
REMARK    1  A    between atoms: C_1  and  C_2
REMARK    2  A    between atoms: C_6  and  C_10
REMARK    3  A    between atoms: C_11  and  C_13
REMARK    4  A    between atoms: C_16  and  C_18
REMARK    5  A    between atoms: C_18  and  C_19
REMARK    6  A    between atoms: C_18  and  C_20
REMARK    7  A    between atoms: C_18  and  C_21
REMARK                            x       y       z     vdW  Elec       q    Type
REMARK                         _______ _______ _______ _____ _____    ______ ____
ROOT
ATOM      1  C   UNL     1       2.647  -2.161   2.155  0.00  0.00    +0.039 C 
ATOM      2  C   UNL     1       2.203  -1.679   0.773  0.00  0.00    +0.133 C 
ATOM      3  C   UNL     1       1.141  -2.633   0.215  0.00  0.00    +0.139 C 
ATOM      4  N   UNL     1       0.598  -2.050  -1.022  0.00  0.00    -0.290 N 
ATOM      5  C   UNL     1       0.138  -0.653  -0.984  0.00  0.00    +0.099 C 
ATOM      6  C   UNL     1       1.248   0.205  -0.367  0.00  0.00    +0.182 C 
ATOM      7  O   UNL     1       1.647  -0.366   0.881  0.00  0.00    -0.373 OA
ATOM      8  C   UNL     1      -1.128  -0.550  -0.131  0.00  0.00    +0.030 C 
ATOM      9  C   UNL     1       0.523  -2.775  -2.156  0.00  0.00    +0.255 C 
ATOM     10  O   UNL     1       1.023  -3.883  -2.204  0.00  0.00    -0.269 OA
ENDROOT
BRANCH   9  11
ATOM     11  C   UNL     1      -0.162  -2.227  -3.332  0.00  0.00    +0.094 A 
ATOM     12  C   UNL     1      -0.224  -2.712  -4.620  0.00  0.00    +0.132 A 
ATOM     13  N   UNL     1      -0.917  -2.007  -5.479  0.00  0.00    -0.251 NA
ATOM     14  C   UNL     1      -1.522  -0.895  -5.128  0.00  0.00    +0.084 A 
ATOM     15  S   UNL     1      -1.153  -0.751  -3.492  0.00  0.00    -0.067 S 
BRANCH  14  16
ATOM     16  C   UNL     1      -2.351   0.028  -5.983  0.00  0.00    +0.011 C 
ATOM     17  C   UNL     1      -3.548  -0.739  -6.548  0.00  0.00    +0.017 C 
ATOM     18  C   UNL     1      -2.850   1.199  -5.135  0.00  0.00    +0.017 C 
ATOM     19  C   UNL     1      -1.497   0.560  -7.136  0.00  0.00    +0.017 C 
ENDBRANCH  14  16
ENDBRANCH   9  11
TORSDOF 2
