REMARK  Name = ZINC08813614
REMARK  19 active torsions:
REMARK  status: ('A' for Active; 'I' for Inactive)
REMARK    1  A    between atoms: C_1  and  C_2
REMARK    2  A    between atoms: C_2  and  C_3
REMARK    3  A    between atoms: C_2  and  C_4
REMARK    4  A    between atoms: C_4  and  N_82
REMARK    5  A    between atoms: C_5  and  C_6
REMARK    6  A    between atoms: C_5  and  N_82
REMARK    7  A    between atoms: C_6  and  C_7
REMARK    8  A    between atoms: C_7  and  N_8
REMARK    9  A    between atoms: C_9  and  C_11
REMARK   10  A    between atoms: C_14  and  C_17
REMARK   11  A    between atoms: C_17  and  N_18
REMARK   12  A    between atoms: N_18  and  S_19
REMARK   13  A    between atoms: S_19  and  C_22
REMARK   14  A    between atoms: C_25  and  N_28
REMARK   15  A    between atoms: C_29  and  C_31
REMARK   16  A    between atoms: C_32  and  C_33
REMARK   17  A    between atoms: C_32  and  N_82
REMARK   18  A    between atoms: C_33  and  C_34
REMARK   19  A    between atoms: C_33  and  C_35
REMARK                            x       y       z     vdW  Elec       q    Type
REMARK                         _______ _______ _______ _____ _____    ______ ____
ROOT
ATOM      1  C   UNL     1      -6.334   8.489   5.696  0.00  0.00    +0.075 C 
ATOM      2  C   UNL     1      -4.908   7.974   5.897  0.00  0.00    +0.013 C 
ATOM      3  C   UNL     1      -4.173   7.969   4.555  0.00  0.00    +0.005 C 
ATOM      4  C   UNL     1      -4.912   7.056   3.574  0.00  0.00    +0.005 C 
ATOM      5  C   UNL     1      -6.338   7.571   3.373  0.00  0.00    +0.005 C 
ATOM      6  C   UNL     1      -7.072   7.576   4.715  0.00  0.00    +0.013 C 
ENDROOT
BRANCH   1   8
ATOM      7  N   UNL     1      -7.436  10.550   4.883  0.00  0.00    -0.315 N 
ATOM      8  C   UNL     1      -6.289   9.890   5.142  0.00  0.00    +0.216 C 
ATOM      9  O   UNL     1      -5.221  10.424   4.929  0.00  0.00    -0.276 OA
ATOM     10  H   UNL     1      -8.290  10.122   5.054  0.00  0.00    +0.149 HD
BRANCH   7  11
ATOM     11  C   UNL     1      -7.392  11.911   4.345  0.00  0.00    +0.102 C 
BRANCH  11  12
ATOM     12  C   UNL     1      -8.819  12.426   4.144  0.00  0.00    +0.000 C 
BRANCH  12  13
ATOM     13  C   UNL     1      -8.773  13.848   3.582  0.00  0.00    -0.077 C 
BRANCH  13  14
ATOM     14  N   UNL     1     -10.147  14.261   3.227  0.00  0.00    +0.380 N 
ATOM     15  H   UNL     1     -10.637  13.463   2.806  0.00  0.00    -0.082 HD
BRANCH  14  16
ATOM     16  C   UNL     1     -10.876  14.686   4.441  0.00  0.00    -0.076 C 
BRANCH  16  18
ATOM     17  C   UNL     1     -12.335  13.880   6.302  0.00  0.00    +0.005 C 
ATOM     18  C   UNL     1     -11.598  13.470   5.025  0.00  0.00    -0.034 C 
ATOM     19  C   UNL     1     -12.604  12.935   4.005  0.00  0.00    +0.005 C 
ENDBRANCH  16  18
ENDBRANCH  14  16
BRANCH  14  20
ATOM     20  C   UNL     1     -10.106  15.369   2.249  0.00  0.00    -0.076 C 
BRANCH  20  21
ATOM     21  C   UNL     1      -9.786  14.792   0.869  0.00  0.00    -0.034 C 
ATOM     22  C   UNL     1     -10.899  13.829   0.448  0.00  0.00    +0.005 C 
ATOM     23  C   UNL     1      -9.685  15.930  -0.149  0.00  0.00    +0.005 C 
ENDBRANCH  20  21
ENDBRANCH  14  20
ENDBRANCH  13  14
ENDBRANCH  12  13
ENDBRANCH  11  12
ENDBRANCH   7  11
ENDBRANCH   1   8
BRANCH   4  24
ATOM     24  C   UNL     1      -4.177   7.050   2.231  0.00  0.00    +0.109 C 
BRANCH  24  25
ATOM     25  N   UNL     1      -4.814   6.086   1.331  0.00  0.00    -0.190 NA
ATOM     26  H   UNL     1      -5.430   5.425   1.684  0.00  0.00    +0.148 HD
BRANCH  25  27
ATOM     27  S   UNL     1      -4.482   6.124  -0.291  0.00  0.00    +0.058 S 
ATOM     28  O   UNL     1      -4.628   7.476  -0.704  0.00  0.00    -0.153 OA
ATOM     29  O   UNL     1      -5.221   5.064  -0.882  0.00  0.00    -0.153 OA
BRANCH  27  30
ATOM     30  C   UNL     1      -2.778   5.720  -0.484  0.00  0.00    +0.105 A 
ATOM     31  C   UNL     1      -2.396   4.401  -0.646  0.00  0.00    +0.030 A 
ATOM     32  C   UNL     1      -1.062   4.080  -0.798  0.00  0.00    +0.025 A 
ATOM     33  C   UNL     1      -0.102   5.085  -0.789  0.00  0.00    +0.033 A 
ATOM     34  C   UNL     1      -0.489   6.408  -0.621  0.00  0.00    +0.025 A 
ATOM     35  C   UNL     1      -1.826   6.722  -0.475  0.00  0.00    +0.030 A 
BRANCH  33  36
ATOM     36  N   UNL     1       1.251   4.763  -0.943  0.00  0.00    -0.286 N 
ATOM     37  C   UNL     1       2.083   5.629  -1.554  0.00  0.00    +0.214 C 
ATOM     38  O   UNL     1       1.644   6.645  -2.051  0.00  0.00    -0.276 OA
ATOM     39  C   UNL     1       3.560   5.336  -1.620  0.00  0.00    +0.109 C 
ATOM     40  H   UNL     1       1.589   3.916  -0.614  0.00  0.00    +0.155 HD
ENDBRANCH  33  36
ENDBRANCH  27  30
ENDBRANCH  25  27
ENDBRANCH  24  25
ENDBRANCH   4  24
TORSDOF 14
