REMARK  Name = ZINC33651671
REMARK  7 active torsions:
REMARK  status: ('A' for Active; 'I' for Inactive)
REMARK    1  A    between atoms: C_1  and  C_2
REMARK    2  A    between atoms: C_9  and  C_18
REMARK    3  A    between atoms: C_10  and  N_11
REMARK    4  A    between atoms: N_11  and  C_12
REMARK    5  A    between atoms: C_23  and  O_24
REMARK    6  A    between atoms: O_24  and  S_25
REMARK    7  A    between atoms: S_25  and  C_28
REMARK                            x       y       z     vdW  Elec       q    Type
REMARK                         _______ _______ _______ _____ _____    ______ ____
ROOT
ATOM      1  C   UNL     1       9.548  -4.757   1.921  0.00  0.00    +0.044 C 
ATOM      2  C   UNL     1       9.316  -3.563   1.031  0.00  0.00    -0.046 A 
ATOM      3  C   UNL     1      10.342  -2.623   0.830  0.00  0.00    +0.021 A 
ATOM      4  C   UNL     1      10.140  -1.553   0.035  0.00  0.00    +0.094 A 
ATOM      5  N   UNL     1       8.936  -1.366  -0.589  0.00  0.00    -0.289 N 
ATOM      6  C   UNL     1       7.913  -2.269  -0.411  0.00  0.00    +0.117 A 
ATOM      7  C   UNL     1       8.114  -3.392   0.419  0.00  0.00    +0.048 A 
ATOM      8  N   UNL     1       6.865  -1.862  -1.109  0.00  0.00    -0.338 N 
ATOM      9  C   UNL     1       7.175  -0.719  -1.748  0.00  0.00    +0.090 A 
ATOM     10  C   UNL     1       8.475  -0.390  -1.429  0.00  0.00    +0.129 A 
ATOM     11  H   UNL     1       5.934  -2.448  -1.096  0.00  0.00    +0.167 HD
ENDROOT
BRANCH   9  12
ATOM     12  C   UNL     1       6.274   0.054  -2.635  0.00  0.00    +0.046 A 
ATOM     13  C   UNL     1       6.721   1.232  -3.232  0.00  0.00    +0.014 A 
ATOM     14  C   UNL     1       5.877   1.948  -4.056  0.00  0.00    +0.001 A 
ATOM     15  C   UNL     1       4.589   1.502  -4.293  0.00  0.00    +0.004 A 
ATOM     16  C   UNL     1       4.138   0.333  -3.710  0.00  0.00    +0.049 A 
ATOM     17  C   UNL     1       4.971  -0.394  -2.876  0.00  0.00    +0.166 A 
BRANCH  17  18
ATOM     18  O   UNL     1       4.526  -1.541  -2.298  0.00  0.00    -0.342 OA
BRANCH  18  19
ATOM     19  S   UNL     1       3.871  -1.336  -0.940  0.00  0.00    +0.151 S 
ATOM     20  O   UNL     1       4.630  -0.341  -0.269  0.00  0.00    -0.131 OA
ATOM     21  O   UNL     1       3.658  -2.630  -0.393  0.00  0.00    -0.131 OA
BRANCH  19  22
ATOM     22  C   UNL     1       2.277  -0.644  -1.230  0.00  0.00    +0.128 A 
ATOM     23  C   UNL     1       1.184  -1.473  -1.403  0.00  0.00    +0.030 A 
ATOM     24  C   UNL     1      -0.066  -0.929  -1.630  0.00  0.00    +0.002 A 
ATOM     25  C   UNL     1      -0.224   0.443  -1.684  0.00  0.00    +0.000 A 
ATOM     26  C   UNL     1       0.868   1.272  -1.510  0.00  0.00    +0.002 A 
ATOM     27  C   UNL     1       2.119   0.729  -1.283  0.00  0.00    +0.030 A 
ENDBRANCH  19  22
ENDBRANCH  18  19
ENDBRANCH  17  18
ENDBRANCH   9  12
BRANCH  10  28
ATOM     28  N   UNL     1       9.185   0.725  -1.876  0.00  0.00    -0.326 N 
ATOM     29  H   UNL     1       8.824   1.591  -2.451  0.00  0.00    +0.148 HD
BRANCH  28  30
ATOM     30  C   UNL     1      10.597   0.644  -1.479  0.00  0.00    +0.072 C 
ATOM     31  C   UNL     1      10.760   1.193  -0.060  0.00  0.00    +0.022 C 
ATOM     32  C   UNL     1      12.231   1.109   0.353  0.00  0.00    +0.002 C 
ATOM     33  C   UNL     1      13.081   1.936  -0.614  0.00  0.00    +0.000 C 
ATOM     34  C   UNL     1      12.918   1.387  -2.033  0.00  0.00    +0.002 C 
ATOM     35  C   UNL     1      11.447   1.471  -2.446  0.00  0.00    +0.022 C 
ENDBRANCH  28  30
ENDBRANCH  10  28
TORSDOF 6
