REMARK  Name = ZINC37562451
REMARK  7 active torsions:
REMARK  status: ('A' for Active; 'I' for Inactive)
REMARK    1  A    between atoms: C_3  and  S_18
REMARK    2  A    between atoms: C_6  and  C_7
REMARK    3  A    between atoms: C_7  and  N_8
REMARK    4  A    between atoms: N_8  and  C_9
REMARK    5  A    between atoms: C_9  and  C_10
REMARK    6  A    between atoms: C_12  and  N_15
REMARK    7  A    between atoms: S_18  and  N_21
REMARK                            x       y       z     vdW  Elec       q    Type
REMARK                         _______ _______ _______ _____ _____    ______ ____
ROOT
ATOM      1  C   UNL     1      -1.293  -0.775   0.011  0.00  0.00    -0.046 C 
ENDROOT
BRANCH   1   7
ATOM      2  C   UNL     1      -0.017   1.378   0.010  0.00  0.00    +0.003 A 
ATOM      3  C   UNL     1       1.171   2.086   0.002  0.00  0.00    +0.029 A 
ATOM      4  C   UNL     1       2.377   1.411  -0.013  0.00  0.00    +0.105 A 
ATOM      5  C   UNL     1       2.396   0.029  -0.020  0.00  0.00    +0.029 A 
ATOM      6  C   UNL     1       1.208  -0.679  -0.012  0.00  0.00    +0.003 A 
ATOM      7  C   UNL     1       0.002  -0.004   0.002  0.00  0.00    -0.064 A 
BRANCH   4   8
ATOM      8  S   UNL     1       3.891   2.312  -0.024  0.00  0.00    +0.056 S 
ATOM      9  O   UNL     1       4.872   1.453  -0.588  0.00  0.00    -0.153 OA
ATOM     10  O   UNL     1       3.597   3.593  -0.566  0.00  0.00    -0.153 OA
BRANCH   8  11
ATOM     11  N   UNL     1       4.327   2.556   1.555  0.00  0.00    -0.204 NA
ATOM     12  H   UNL     1       3.768   2.215   2.271  0.00  0.00    +0.144 HD
ATOM     13  H   UNL     1       5.142   3.039   1.764  0.00  0.00    +0.144 HD
ENDBRANCH   8  11
ENDBRANCH   4   8
ENDBRANCH   1   7
BRANCH   1  14
ATOM     14  N   UNL     1      -1.727  -1.018  -1.371  0.00  0.00    +0.384 N 
ATOM     15  H   UNL     1      -1.864  -0.136  -1.841  0.00  0.00    -0.085 HD
ATOM     16  H   UNL     1      -1.021  -1.552  -1.857  0.00  0.00    -0.085 HD
BRANCH  14  17
ATOM     17  C   UNL     1      -2.989  -1.770  -1.363  0.00  0.00    -0.046 C 
BRANCH  17  18
ATOM     18  C   UNL     1      -3.435  -2.020  -2.781  0.00  0.00    -0.055 A 
ATOM     19  C   UNL     1      -4.247  -1.110  -3.431  0.00  0.00    +0.042 A 
ATOM     20  C   UNL     1      -4.630  -1.364  -4.706  0.00  0.00    +0.164 A 
ATOM     21  S   UNL     1      -3.833  -2.930  -5.026  0.00  0.00    -0.073 S 
ATOM     22  C   UNL     1      -3.040  -3.137  -3.439  0.00  0.00    +0.049 A 
BRANCH  20  23
ATOM     23  N   UNL     1      -5.486  -0.554  -5.602  0.00  0.00    +0.063 N 
ATOM     24  O   UNL     1      -5.947   0.494  -5.213  0.00  0.00    -0.126 OA
ATOM     25  O   UNL     1      -5.725  -0.941  -6.722  0.00  0.00    -0.126 OA
ENDBRANCH  20  23
ENDBRANCH  17  18
ENDBRANCH  14  17
ENDBRANCH   1  14
TORSDOF 7
