REMARK  Name = ZINC09498056
REMARK  2 active torsions:
REMARK  status: ('A' for Active; 'I' for Inactive)
REMARK    1  A    between atoms: C_1  and  C_2
REMARK    2  A    between atoms: N_23  and  C_26
REMARK                            x       y       z     vdW  Elec       q    Type
REMARK                         _______ _______ _______ _____ _____    ______ ____
ROOT
ATOM      1  C   UNL     1       0.539  -5.669  -2.146  0.00  0.00    +0.047 C 
ATOM      2  C   UNL     1       0.110  -4.530  -1.257  0.00  0.00    -0.011 A 
ATOM      3  C   UNL     1      -1.156  -4.527  -0.705  0.00  0.00    +0.046 A 
ATOM      4  C   UNL     1      -1.559  -3.486   0.113  0.00  0.00    +0.020 A 
ATOM      5  C   UNL     1      -0.689  -2.444   0.379  0.00  0.00    +0.006 A 
ATOM      6  C   UNL     1       0.574  -2.444  -0.169  0.00  0.00    -0.027 A 
ATOM      7  C   UNL     1       0.991  -3.485  -0.994  0.00  0.00    +0.040 A 
ATOM      8  N   UNL     1       2.301  -3.264  -1.425  0.00  0.00    -0.286 N 
ATOM      9  C   UNL     1       2.809  -2.116  -0.937  0.00  0.00    +0.212 C 
ATOM     10  O   UNL     1       3.918  -1.671  -1.144  0.00  0.00    -0.277 OA
ATOM     11  C   UNL     1       1.736  -1.494  -0.086  0.00  0.00    +0.053 C 
ATOM     12  C   UNL     1       2.204  -1.311   1.362  0.00  0.00    +0.089 C 
ATOM     13  C   UNL     1       2.626   0.181   1.454  0.00  0.00    +0.074 C 
ATOM     14  C   UNL     1       2.373   0.760   0.049  0.00  0.00    -0.054 C 
ATOM     15  C   UNL     1       0.071   0.256   0.013  0.00  0.00    -0.076 C 
ATOM     16  C   UNL     1       0.149   1.791   0.137  0.00  0.00    -0.020 C 
ATOM     17  C   UNL     1       1.655   2.115   0.179  0.00  0.00    -0.016 C 
ATOM     18  C   UNL     1       1.626   0.767   2.425  0.00  0.00    +0.228 C 
ATOM     19  O   UNL     1       1.592   1.925   2.783  0.00  0.00    -0.275 OA
ATOM     20  N   UNL     1       0.783  -0.192   2.828  0.00  0.00    -0.209 N 
ATOM     21  C   UNL     1       1.018  -1.397   2.295  0.00  0.00    +0.229 C 
ATOM     22  O   UNL     1       0.379  -2.401   2.526  0.00  0.00    -0.275 OA
ATOM     23 CL   UNL     1      -2.247  -5.836  -1.039  0.00  0.00    -0.083 Cl
ATOM     24  H   UNL     1       2.788  -3.867  -2.008  0.00  0.00    +0.155 HD
ATOM     25  N   UNL     1       1.392  -0.136  -0.520  0.00  0.00    +0.395 N 
ATOM     26  H   UNL     1       1.394  -0.079  -1.545  0.00  0.00    -0.079 HD
ENDROOT
BRANCH  20  27
ATOM     27  C   UNL     1      -0.257   0.047   3.732  0.00  0.00    +0.052 A 
ATOM     28  C   UNL     1      -1.506   0.408   3.275  0.00  0.00    +0.024 A 
ATOM     29  C   UNL     1      -2.548   0.647   4.166  0.00  0.00    +0.002 A 
ATOM     30  C   UNL     1      -2.364   0.531   5.510  0.00  0.00    +0.008 A 
ATOM     31  C   UNL     1      -1.106   0.165   6.017  0.00  0.00    -0.016 A 
ATOM     32  C   UNL     1      -0.039  -0.087   5.119  0.00  0.00    +0.004 A 
ATOM     33  C   UNL     1       1.219  -0.447   5.628  0.00  0.00    +0.010 A 
ATOM     34  C   UNL     1       1.395  -0.560   6.973  0.00  0.00    +0.001 A 
ATOM     35  C   UNL     1       0.345  -0.319   7.856  0.00  0.00    +0.001 A 
ATOM     36  C   UNL     1      -0.887   0.038   7.399  0.00  0.00    +0.008 A 
ENDBRANCH  20  27
TORSDOF 1
