REMARK  Name = ZINC12635784
REMARK  5 active torsions:
REMARK  status: ('A' for Active; 'I' for Inactive)
REMARK    1  A    between atoms: C_3  and  C_6
REMARK    2  A    between atoms: C_13  and  C_15
REMARK    3  A    between atoms: C_13  and  C_27
REMARK    4  A    between atoms: C_13  and  N_61
REMARK    5  A    between atoms: N_31  and  C_32
REMARK                            x       y       z     vdW  Elec       q    Type
REMARK                         _______ _______ _______ _____ _____    ______ ____
ROOT
ATOM      1  C   UNL     1       2.422  -0.684   0.051  0.00  0.00    +0.040 C 
ENDROOT
BRANCH   1   2
ATOM      2  C   UNL     1       2.902  -1.012  -1.339  0.00  0.00    +0.029 A 
ATOM      3  C   UNL     1       4.205  -1.266  -1.563  0.00  0.00    +0.201 A 
ATOM      4  O   UNL     1       4.688  -1.563  -2.775  0.00  0.00    -0.462 OA
ATOM      5  C   UNL     1       3.903  -1.629  -3.869  0.00  0.00    +0.138 A 
ATOM      6  C   UNL     1       4.437  -1.940  -5.114  0.00  0.00    +0.048 A 
ATOM      7  C   UNL     1       3.615  -2.001  -6.219  0.00  0.00    +0.023 A 
ATOM      8  C   UNL     1       2.253  -1.756  -6.104  0.00  0.00    +0.042 A 
ATOM      9  C   UNL     1       1.704  -1.447  -4.878  0.00  0.00    +0.035 A 
ATOM     10  C   UNL     1       2.525  -1.382  -3.754  0.00  0.00    +0.066 A 
ATOM     11  C   UNL     1       1.982  -1.059  -2.420  0.00  0.00    +0.194 A 
ATOM     12  O   UNL     1       0.795  -0.840  -2.253  0.00  0.00    -0.287 OA
ATOM     13 CL   UNL     1       1.238  -1.840  -7.510  0.00  0.00    -0.084 Cl
ENDBRANCH   1   2
BRANCH   1  21
ATOM     14  C   UNL     1       4.051  -3.696   4.261  0.00  0.00    +0.282 C 
ATOM     15  O   UNL     1       3.967  -3.238   5.386  0.00  0.00    -0.267 OA
ATOM     16  N   UNL     1       4.133  -2.868   3.201  0.00  0.00    -0.299 N 
ATOM     17  C   UNL     1       4.039  -1.410   3.373  0.00  0.00    +0.089 C 
ATOM     18  C   UNL     1       2.985  -0.873   2.399  0.00  0.00    -0.058 C 
ATOM     19  C   UNL     1       3.255  -2.782   0.928  0.00  0.00    -0.058 C 
ATOM     20  C   UNL     1       4.320  -3.398   1.842  0.00  0.00    +0.089 C 
ATOM     21  N   UNL     1       3.337  -1.309   1.030  0.00  0.00    +0.391 N 
ATOM     22  H   UNL     1       4.298  -1.014   0.823  0.00  0.00    -0.080 HD
BRANCH  14  25
ATOM     23  C   UNL     1       3.950  -7.343   4.390  0.00  0.00    +0.042 A 
ATOM     24  C   UNL     1       3.849  -6.094   5.022  0.00  0.00    +0.054 A 
ATOM     25  C   UNL     1       4.062  -5.148   4.060  0.00  0.00    +0.189 A 
ATOM     26  O   UNL     1       4.278  -5.785   2.890  0.00  0.00    -0.458 OA
ATOM     27  C   UNL     1       4.217  -7.108   3.086  0.00  0.00    +0.196 A 
ENDBRANCH  14  25
ENDBRANCH   1  21
BRANCH   1  28
ATOM     28  C   UNL     1       2.438   0.809   0.249  0.00  0.00    +0.143 A 
ATOM     29  N   UNL     1       3.486   1.555   0.497  0.00  0.00    -0.115 NA
ATOM     30  N   UNL     1       3.091   2.777   0.600  0.00  0.00    -0.023 NA
ATOM     31  N   UNL     1       1.817   2.831   0.418  0.00  0.00    -0.044 NA
ATOM     32  N   UNL     1       1.377   1.637   0.205  0.00  0.00    -0.227 N 
BRANCH  32  33
ATOM     33  C   UNL     1      -0.015   1.254  -0.045  0.00  0.00    +0.111 C 
ATOM     34  C   UNL     1      -0.905   1.696   1.135  0.00  0.00    +0.027 C 
ATOM     35  C   UNL     1      -1.484   3.061   0.684  0.00  0.00    +0.002 C 
ATOM     36  C   UNL     1      -1.740   2.841  -0.828  0.00  0.00    +0.002 C 
ATOM     37  C   UNL     1      -0.546   1.982  -1.293  0.00  0.00    +0.027 C 
ENDBRANCH  32  33
ENDBRANCH   1  28
TORSDOF 5
