REMARK  Name = ZINC63170836
REMARK  8 active torsions:
REMARK  status: ('A' for Active; 'I' for Inactive)
REMARK    1  A    between atoms: C_1  and  C_2
REMARK    2  A    between atoms: C_2  and  C_4
REMARK    3  A    between atoms: C_2  and  N_21
REMARK    4  A    between atoms: C_4  and  C_5
REMARK    5  A    between atoms: C_5  and  N_6
REMARK    6  A    between atoms: N_6  and  S_7
REMARK    7  A    between atoms: S_7  and  C_10
REMARK    8  A    between atoms: C_12  and  N_18
REMARK                            x       y       z     vdW  Elec       q    Type
REMARK                         _______ _______ _______ _____ _____    ______ ____
ROOT
ATOM      1  S   UNL     1       1.707  -4.097  -2.690  0.00  0.00    +0.061 S 
ATOM      2  O   UNL     1       2.329  -4.242  -3.959  0.00  0.00    -0.153 OA
ATOM      3  O   UNL     1       2.347  -4.479  -1.480  0.00  0.00    -0.153 OA
ENDROOT
BRANCH   1   4
ATOM      4  C   UNL     1       0.194  -4.998  -2.765  0.00  0.00    +0.143 A 
ATOM      5  C   UNL     1      -0.144  -5.684  -3.916  0.00  0.00    +0.067 A 
ATOM      6  C   UNL     1      -1.330  -6.391  -3.977  0.00  0.00    +0.163 A 
ATOM      7  C   UNL     1      -2.181  -6.412  -2.884  0.00  0.00    +0.156 A 
ATOM      8  C   UNL     1      -1.843  -5.725  -1.732  0.00  0.00    +0.081 A 
ATOM      9  C   UNL     1      -0.652  -5.022  -1.670  0.00  0.00    +0.152 A 
ATOM     10  F   UNL     1      -0.318  -4.356  -0.543  0.00  0.00    -0.203 F 
ATOM     11  F   UNL     1      -3.341  -7.102  -2.944  0.00  0.00    -0.203 F 
BRANCH   6  12
ATOM     12  N   UNL     1      -1.692  -7.126  -5.210  0.00  0.00    +0.059 N 
ATOM     13  O   UNL     1      -0.949  -7.107  -6.164  0.00  0.00    -0.126 OA
ATOM     14  O   UNL     1      -2.729  -7.744  -5.263  0.00  0.00    -0.126 OA
ENDBRANCH   6  12
ENDBRANCH   1   4
BRANCH   1  15
ATOM     15  N   UNL     1       1.316  -2.496  -2.534  0.00  0.00    -0.190 NA
ATOM     16  H   UNL     1       1.541  -1.870  -3.240  0.00  0.00    +0.148 HD
BRANCH  15  17
ATOM     17  C   UNL     1       0.630  -2.023  -1.329  0.00  0.00    +0.104 C 
BRANCH  17  18
ATOM     18  C   UNL     1       0.718  -0.497  -1.257  0.00  0.00    +0.000 C 
BRANCH  18  20
ATOM     19  C   UNL     1      -0.019   1.526   0.010  0.00  0.00    -0.014 C 
ATOM     20  C   UNL     1       0.002  -0.004   0.002  0.00  0.00    -0.077 C 
BRANCH  20  21
ATOM     21  N   UNL     1       0.713  -0.491   1.192  0.00  0.00    +0.380 N 
ATOM     22  H   UNL     1       0.240  -0.165   2.022  0.00  0.00    -0.090 HD
ATOM     23  H   UNL     1       0.726  -1.500   1.187  0.00  0.00    -0.090 HD
ATOM     24  H   UNL     1       1.659  -0.141   1.185  0.00  0.00    -0.090 HD
ENDBRANCH  20  21
ENDBRANCH  18  20
ENDBRANCH  17  18
ENDBRANCH  15  17
ENDBRANCH   1  15
TORSDOF 7
