REMARK  Name = ZINC19952309
REMARK  3 active torsions:
REMARK  status: ('A' for Active; 'I' for Inactive)
REMARK    1  A    between atoms: C_6  and  O_7
REMARK    2  A    between atoms: C_10  and  N_12
REMARK    3  A    between atoms: N_12  and  C_13
REMARK                            x       y       z     vdW  Elec       q    Type
REMARK                         _______ _______ _______ _____ _____    ______ ____
ROOT
ATOM      1  C   UNL     1       5.361   6.631  -2.024  0.00  0.00    +0.046 A 
ATOM      2  C   UNL     1       4.119   6.062  -1.812  0.00  0.00    +0.013 A 
ATOM      3  C   UNL     1       3.633   5.923  -0.531  0.00  0.00    +0.018 A 
ATOM      4  C   UNL     1       4.379   6.342   0.566  0.00  0.00    +0.129 A 
ATOM      5  C   UNL     1       5.627   6.918   0.350  0.00  0.00    +0.091 A 
ATOM      6  C   UNL     1       6.114   7.060  -0.941  0.00  0.00    +0.120 A 
ATOM      7  O   UNL     1       3.720   6.100   1.732  0.00  0.00    -0.489 OA
ATOM      8  C   UNL     1       2.323   5.903   1.456  0.00  0.00    +0.256 C 
ATOM      9  C   UNL     1       2.333   5.357   0.008  0.00  0.00    +0.142 C 
ENDROOT
BRANCH   6  10
ATOM     10  O   UNL     1       7.335   7.623  -1.145  0.00  0.00    -0.507 OA
ATOM     11  H   UNL     1       7.933   7.964  -0.287  0.00  0.00    +0.292 HD
ENDBRANCH   6  10
BRANCH   9  12
ATOM     12  N   UNL     1       2.356   3.893   0.001  0.00  0.00    -0.332 N 
ATOM     13  H   UNL     1       3.317   3.358  -0.011  0.00  0.00    +0.147 HD
BRANCH  12  14
ATOM     14  C   UNL     1       1.155   3.174   0.008  0.00  0.00    +0.064 A 
ATOM     15  C   UNL     1      -0.058   3.847   0.022  0.00  0.00    +0.028 A 
ATOM     16  C   UNL     1      -1.243   3.136   0.030  0.00  0.00    +0.040 A 
ATOM     17  C   UNL     1      -1.221   1.752   0.017  0.00  0.00    +0.126 A 
ATOM     18  C   UNL     1      -0.013   1.076   0.008  0.00  0.00    +0.078 A 
ATOM     19  C   UNL     1       1.176   1.783   0.000  0.00  0.00    +0.147 A 
ATOM     20  F   UNL     1       2.355   1.124  -0.014  0.00  0.00    -0.203 F 
ATOM     21  F   UNL     1      -2.381   1.059   0.019  0.00  0.00    -0.205 F 
ENDBRANCH  12  14
ENDBRANCH   9  12
TORSDOF 3
