REMARK  Name = ZINC09530595
REMARK  9 active torsions:
REMARK  status: ('A' for Active; 'I' for Inactive)
REMARK    1  A    between atoms: C_5  and  C_7
REMARK    2  A    between atoms: C_7  and  C_9
REMARK    3  A    between atoms: C_7  and  N_59
REMARK    4  A    between atoms: C_9  and  N_10
REMARK    5  A    between atoms: C_11  and  C_13
REMARK    6  A    between atoms: C_16  and  S_19
REMARK    7  A    between atoms: S_19  and  N_22
REMARK    8  A    between atoms: N_22  and  C_23
REMARK    9  A    between atoms: C_23  and  C_24
REMARK                            x       y       z     vdW  Elec       q    Type
REMARK                         _______ _______ _______ _____ _____    ______ ____
ROOT
ATOM      1  N   UNL     1       3.742   5.246  -1.618  0.00  0.00    -0.313 N 
ATOM      2  C   UNL     1       3.982   5.855  -2.796  0.00  0.00    +0.244 C 
ATOM      3  O   UNL     1       3.213   5.704  -3.725  0.00  0.00    -0.270 OA
ATOM      4  H   UNL     1       4.356   5.366  -0.876  0.00  0.00    +0.149 HD
ENDROOT
BRANCH   2   5
ATOM      5  C   UNL     1       5.180   6.706  -2.958  0.00  0.00    +0.037 A 
ATOM      6  C   UNL     1       6.062   6.885  -1.892  0.00  0.00    +0.015 A 
ATOM      7  C   UNL     1       7.180   7.677  -2.051  0.00  0.00    +0.029 A 
ATOM      8  C   UNL     1       7.423   8.301  -3.262  0.00  0.00    +0.105 A 
ATOM      9  C   UNL     1       6.550   8.131  -4.322  0.00  0.00    +0.029 A 
ATOM     10  C   UNL     1       5.431   7.338  -4.178  0.00  0.00    +0.015 A 
BRANCH   8  11
ATOM     11  S   UNL     1       8.851   9.315  -3.455  0.00  0.00    +0.059 S 
ATOM     12  O   UNL     1       9.795   8.876  -2.489  0.00  0.00    -0.153 OA
ATOM     13  O   UNL     1       9.142   9.346  -4.846  0.00  0.00    -0.153 OA
BRANCH  11  14
ATOM     14  N   UNL     1       8.418  10.856  -3.028  0.00  0.00    -0.183 NA
ATOM     15  H   UNL     1       8.421  11.562  -3.693  0.00  0.00    +0.148 HD
BRANCH  14  16
ATOM     16  C   UNL     1       8.030  11.151  -1.647  0.00  0.00    +0.180 C 
BRANCH  16  17
ATOM     17  C   UNL     1       8.043  12.642  -1.429  0.00  0.00    +0.120 A 
ATOM     18  C   UNL     1       7.004  13.474  -1.621  0.00  0.00    +0.046 A 
ATOM     19  C   UNL     1       7.456  14.775  -1.300  0.00  0.00    +0.041 A 
ATOM     20  C   UNL     1       8.745  14.660  -0.931  0.00  0.00    +0.195 A 
ATOM     21  O   UNL     1       9.093  13.365  -1.006  0.00  0.00    -0.466 OA
ENDBRANCH  16  17
ENDBRANCH  14  16
ENDBRANCH  11  14
ENDBRANCH   8  11
ENDBRANCH   2   5
BRANCH   1  22
ATOM     22  C   UNL     1       2.555   4.403  -1.457  0.00  0.00    +0.094 C 
BRANCH  22  23
ATOM     23  C   UNL     1       2.587   3.734  -0.081  0.00  0.00    -0.019 C 
BRANCH  23  28
ATOM     24  C   UNL     1       5.997   2.309   0.691  0.00  0.00    +0.000 A 
ATOM     25  C   UNL     1       5.909   1.054   0.115  0.00  0.00    +0.001 A 
ATOM     26  C   UNL     1       4.743   0.663  -0.516  0.00  0.00    +0.020 A 
ATOM     27  C   UNL     1       3.668   1.531  -0.581  0.00  0.00    +0.043 A 
ATOM     28  C   UNL     1       3.758   2.788  -0.010  0.00  0.00    -0.041 A 
ATOM     29  C   UNL     1       4.922   3.176   0.626  0.00  0.00    +0.003 A 
ATOM     30 CL   UNL     1       2.205   1.043  -1.379  0.00  0.00    -0.083 Cl
ENDBRANCH  23  28
BRANCH  23  35
ATOM     31  C   UNL     1       1.656   5.787   0.838  0.00  0.00    -0.078 C 
ATOM     32  C   UNL     1       1.626   6.436   2.245  0.00  0.00    -0.020 C 
ATOM     33  C   UNL     1       1.876   5.234   3.185  0.00  0.00    -0.020 C 
ATOM     34  C   UNL     1       2.567   4.174   2.308  0.00  0.00    -0.078 C 
ATOM     35  N   UNL     1       2.715   4.776   0.982  0.00  0.00    +0.385 N 
ATOM     36  H   UNL     1       3.635   5.223   0.905  0.00  0.00    -0.081 HD
ENDBRANCH  23  35
ENDBRANCH  22  23
ENDBRANCH   1  22
TORSDOF 9
