REMARK  Name = ZINC34974773
REMARK  16 active torsions:
REMARK  status: ('A' for Active; 'I' for Inactive)
REMARK    1  A    between atoms: C_1  and  C_2
REMARK    2  A    between atoms: C_9  and  C_11
REMARK    3  A    between atoms: C_11  and  C_12
REMARK    4  A    between atoms: C_12  and  C_14
REMARK    5  A    between atoms: C_12  and  C_15
REMARK    6  A    between atoms: C_15  and  C_16
REMARK    7  A    between atoms: C_16  and  C_17
REMARK    8  A    between atoms: C_16  and  C_18
REMARK    9  A    between atoms: C_16  and  C_19
REMARK   10  A    between atoms: C_20  and  C_22
REMARK   11  A    between atoms: C_22  and  C_24
REMARK   12  A    between atoms: C_22  and  N_27
REMARK   13  A    between atoms: C_24  and  C_25
REMARK   14  A    between atoms: C_24  and  C_26
REMARK   15  A    between atoms: N_27  and  S_28
REMARK   16  A    between atoms: S_28  and  C_31
REMARK                            x       y       z     vdW  Elec       q    Type
REMARK                         _______ _______ _______ _____ _____    ______ ____
ROOT
ATOM      1  C   UNL     1      -2.597   2.025   1.837  0.00  0.00    +0.029 C 
ATOM      2  C   UNL     1      -1.929   0.722   2.280  0.00  0.00    +0.090 C 
ATOM      3  C   UNL     1      -2.975  -0.398   2.341  0.00  0.00    +0.130 C 
ATOM      4  N   UNL     1      -3.874  -0.140   3.475  0.00  0.00    -0.297 N 
ATOM      5  C   UNL     1      -3.293   0.034   4.814  0.00  0.00    +0.127 C 
ATOM      6  C   UNL     1      -2.246   1.154   4.753  0.00  0.00    +0.127 C 
ATOM      7  N   UNL     1      -1.344   0.897   3.617  0.00  0.00    -0.296 N 
ATOM      8  C   UNL     1      -0.011   0.819   3.798  0.00  0.00    +0.216 C 
ATOM      9  O   UNL     1       0.718   0.604   2.853  0.00  0.00    -0.276 OA
ATOM     10  C   UNL     1      -5.207  -0.063   3.291  0.00  0.00    +0.235 C 
ATOM     11  O   UNL     1      -5.668  -0.114   2.170  0.00  0.00    -0.274 OA
ENDROOT
BRANCH   8  12
ATOM     12  C   UNL     1       0.574   1.001   5.175  0.00  0.00    +0.099 C 
BRANCH  12  13
ATOM     13  C   UNL     1       2.096   0.866   5.104  0.00  0.00    -0.005 C 
ATOM     14  C   UNL     1       2.671   2.010   4.266  0.00  0.00    +0.008 C 
BRANCH  13  15
ATOM     15  C   UNL     1       2.680   0.925   6.517  0.00  0.00    +0.010 C 
BRANCH  15  16
ATOM     16  C   UNL     1       4.102   0.361   6.505  0.00  0.00    -0.037 C 
ATOM     17  C   UNL     1       4.944   1.118   5.476  0.00  0.00    +0.010 C 
ATOM     18  C   UNL     1       4.727   0.523   7.893  0.00  0.00    +0.010 C 
ATOM     19  C   UNL     1       4.059  -1.123   6.136  0.00  0.00    +0.010 C 
ENDBRANCH  15  16
ENDBRANCH  13  15
ENDBRANCH  12  13
ENDBRANCH   8  12
BRANCH  10  20
ATOM     20  C   UNL     1      -6.124   0.086   4.477  0.00  0.00    +0.165 C 
BRANCH  20  21
ATOM     21  C   UNL     1      -6.492   1.561   4.655  0.00  0.00    +0.010 C 
ATOM     22  C   UNL     1      -5.220   2.380   4.884  0.00  0.00    +0.009 C 
ATOM     23  C   UNL     1      -7.203   2.064   3.397  0.00  0.00    +0.009 C 
ENDBRANCH  20  21
BRANCH  20  24
ATOM     24  N   UNL     1      -7.341  -0.698   4.254  0.00  0.00    -0.178 NA
ATOM     25  H   UNL     1      -7.755  -0.713   3.377  0.00  0.00    +0.149 HD
BRANCH  24  26
ATOM     26  S   UNL     1      -8.013  -1.557   5.501  0.00  0.00    +0.059 S 
ATOM     27  O   UNL     1      -9.215  -2.126   5.001  0.00  0.00    -0.153 OA
ATOM     28  O   UNL     1      -6.970  -2.346   6.058  0.00  0.00    -0.153 OA
BRANCH  26  29
ATOM     29  C   UNL     1      -8.483  -0.396   6.740  0.00  0.00    +0.105 A 
ATOM     30  C   UNL     1      -7.630  -0.127   7.794  0.00  0.00    +0.030 A 
ATOM     31  C   UNL     1      -7.998   0.784   8.767  0.00  0.00    +0.022 A 
ATOM     32  C   UNL     1      -9.221   1.426   8.685  0.00  0.00    +0.041 A 
ATOM     33  C   UNL     1     -10.074   1.157   7.630  0.00  0.00    +0.022 A 
ATOM     34  C   UNL     1      -9.702   0.250   6.655  0.00  0.00    +0.030 A 
ATOM     35 CL   UNL     1      -9.684   2.569   9.906  0.00  0.00    -0.084 Cl
ENDBRANCH  26  29
ENDBRANCH  24  26
ENDBRANCH  20  24
ENDBRANCH  10  20
TORSDOF 9
