REMARK  Name = ZINC04043030
REMARK  12 active torsions:
REMARK  status: ('A' for Active; 'I' for Inactive)
REMARK    1  A    between atoms: C_1  and  C_2
REMARK    2  A    between atoms: N_4  and  C_5
REMARK    3  A    between atoms: C_8  and  N_11
REMARK    4  A    between atoms: N_11  and  C_12
REMARK    5  A    between atoms: C_12  and  C_17
REMARK    6  A    between atoms: N_21  and  C_22
REMARK    7  A    between atoms: C_22  and  C_24
REMARK    8  A    between atoms: C_22  and  C_34
REMARK    9  A    between atoms: C_25  and  C_26
REMARK   10  A    between atoms: C_34  and  C_35
REMARK   11  A    between atoms: C_34  and  C_36
REMARK   12  A    between atoms: C_34  and  C_37
REMARK                            x       y       z     vdW  Elec       q    Type
REMARK                         _______ _______ _______ _____ _____    ______ ____
ROOT
ATOM      1  C   UNL     1       0.141   8.450  -1.050  0.00  0.00    +0.175 A 
ATOM      2  N   UNL     1       0.725   9.423  -1.705  0.00  0.00    -0.111 NA
ATOM      3  N   UNL     1       1.750   8.935  -2.313  0.00  0.00    -0.023 NA
ATOM      4  N   UNL     1       1.836   7.675  -2.063  0.00  0.00    -0.043 NA
ATOM      5  N   UNL     1       0.865   7.339  -1.283  0.00  0.00    -0.220 N 
ENDROOT
BRANCH   1   6
ATOM      6  C   UNL     1      -1.096   8.555  -0.196  0.00  0.00    +0.093 C 
ATOM      7  C   UNL     1      -1.633  10.007  -0.196  0.00  0.00    +0.034 C 
ATOM      8  C   UNL     1      -3.129   9.815   0.169  0.00  0.00    +0.003 C 
ATOM      9  C   UNL     1      -3.537   8.525  -0.573  0.00  0.00    +0.003 C 
ATOM     10  C   UNL     1      -2.244   7.723  -0.804  0.00  0.00    +0.034 C 
BRANCH   6  11
ATOM     11  N   UNL     1      -0.812   8.113   1.172  0.00  0.00    -0.332 N 
ATOM     12  H   UNL     1      -1.308   7.372   1.555  0.00  0.00    +0.147 HD
BRANCH  11  16
ATOM     13  C   UNL     1       2.126  10.037   3.417  0.00  0.00    +0.033 A 
ATOM     14  C   UNL     1       1.843  10.469   2.128  0.00  0.00    +0.025 A 
ATOM     15  C   UNL     1       0.874   9.828   1.382  0.00  0.00    +0.025 A 
ATOM     16  C   UNL     1       0.174   8.758   1.925  0.00  0.00    +0.028 A 
ATOM     17  C   UNL     1       0.454   8.330   3.217  0.00  0.00    +0.025 A 
ATOM     18  C   UNL     1       1.427   8.968   3.960  0.00  0.00    +0.025 A 
BRANCH  13  22
ATOM     19  C   UNL     1       5.231  11.950   4.357  0.00  0.00    +0.109 C 
ATOM     20  C   UNL     1       4.220  11.161   3.566  0.00  0.00    +0.214 C 
ATOM     21  O   UNL     1       4.403  10.952   2.385  0.00  0.00    -0.276 OA
ATOM     22  N   UNL     1       3.114  10.684   4.171  0.00  0.00    -0.286 N 
ATOM     23  H   UNL     1       3.002  10.788   5.129  0.00  0.00    +0.155 HD
ENDBRANCH  13  22
ENDBRANCH  11  16
ENDBRANCH   6  11
ENDBRANCH   1   6
BRANCH   5  24
ATOM     24  C   UNL     1       0.598   5.999  -0.754  0.00  0.00    +0.139 C 
BRANCH  24  25
ATOM     25  C   UNL     1       1.837   5.484  -0.019  0.00  0.00    -0.012 C 
ATOM     26  C   UNL     1       2.272   6.512   1.028  0.00  0.00    +0.013 C 
ATOM     27  C   UNL     1       1.506   4.161   0.673  0.00  0.00    +0.013 C 
ATOM     28  C   UNL     1       2.971   5.266  -1.022  0.00  0.00    +0.013 C 
ENDBRANCH  24  25
BRANCH  24  29
ATOM     29  C   UNL     1       0.265   5.067  -1.891  0.00  0.00    +0.001 C 
ATOM     30  C   UNL     1      -0.938   4.514  -1.965  0.00  0.00    +0.007 C 
BRANCH  30  31
ATOM     31  C   UNL     1      -1.228   3.513  -3.012  0.00  0.00    -0.007 A 
ATOM     32  C   UNL     1      -0.200   3.028  -3.822  0.00  0.00    +0.011 A 
ATOM     33  C   UNL     1      -0.475   2.089  -4.794  0.00  0.00    +0.020 A 
ATOM     34  C   UNL     1      -1.771   1.635  -4.975  0.00  0.00    +0.042 A 
ATOM     35  C   UNL     1      -2.797   2.116  -4.180  0.00  0.00    +0.040 A 
ATOM     36  C   UNL     1      -2.533   3.052  -3.199  0.00  0.00    +0.049 A 
ATOM     37 CL   UNL     1      -3.820   3.654  -2.202  0.00  0.00    -0.083 Cl
ATOM     38 CL   UNL     1      -2.111   0.459  -6.206  0.00  0.00    -0.083 Cl
ENDBRANCH  30  31
ENDBRANCH  24  29
ENDBRANCH   5  24
TORSDOF 8
