REMARK  Name = ZINC09366901
REMARK  10 active torsions:
REMARK  status: ('A' for Active; 'I' for Inactive)
REMARK    1  A    between atoms: C_1  and  C_2
REMARK    2  A    between atoms: C_2  and  C_3
REMARK    3  A    between atoms: C_3  and  N_4
REMARK    4  A    between atoms: C_8  and  S_24
REMARK    5  A    between atoms: C_12  and  C_13
REMARK    6  A    between atoms: C_13  and  S_14
REMARK    7  A    between atoms: S_14  and  C_15
REMARK    8  A    between atoms: C_18  and  C_21
REMARK    9  A    between atoms: N_19  and  C_20
REMARK   10  A    between atoms: S_24  and  N_27
REMARK                            x       y       z     vdW  Elec       q    Type
REMARK                         _______ _______ _______ _____ _____    ______ ____
ROOT
ATOM      1  N   UNL     1       7.757   4.314  -1.551  0.00  0.00    -0.327 N 
ATOM      2  C   UNL     1       9.130   4.265  -1.412  0.00  0.00    +0.069 A 
ATOM      3  C   UNL     1      10.198   4.628  -2.222  0.00  0.00    +0.030 A 
ATOM      4  C   UNL     1      11.488   4.442  -1.774  0.00  0.00    +0.030 A 
ATOM      5  C   UNL     1      11.726   3.895  -0.521  0.00  0.00    +0.108 A 
ATOM      6  C   UNL     1      10.688   3.532   0.289  0.00  0.00    +0.058 A 
ATOM      7  C   UNL     1       9.371   3.710  -0.144  0.00  0.00    +0.091 A 
ATOM      8  N   UNL     1       8.159   3.460   0.415  0.00  0.00    -0.231 NA
ATOM      9  C   UNL     1       7.216   3.809  -0.410  0.00  0.00    +0.121 A 
ENDROOT
BRANCH   5  10
ATOM     10  S   UNL     1      13.384   3.667   0.030  0.00  0.00    +0.061 S 
ATOM     11  O   UNL     1      13.348   2.636   1.008  0.00  0.00    -0.153 OA
ATOM     12  O   UNL     1      14.192   3.583  -1.135  0.00  0.00    -0.153 OA
BRANCH  10  13
ATOM     13  N   UNL     1      13.833   5.052   0.819  0.00  0.00    -0.172 NA
ATOM     14  C   UNL     1      14.471   6.163   0.095  0.00  0.00    +0.137 C 
ATOM     15  C   UNL     1      13.716   7.457   0.441  0.00  0.00    +0.177 C 
ATOM     16  O   UNL     1      13.637   7.588   1.862  0.00  0.00    -0.377 OA
ATOM     17  C   UNL     1      12.902   6.544   2.506  0.00  0.00    +0.177 C 
ATOM     18  C   UNL     1      13.611   5.206   2.266  0.00  0.00    +0.137 C 
ENDBRANCH  10  13
ENDBRANCH   5  10
BRANCH   1  19
ATOM     19  C   UNL     1       7.020   4.818  -2.713  0.00  0.00    +0.123 C 
BRANCH  19  21
ATOM     20  C   UNL     1       5.983   6.840  -3.750  0.00  0.00    +0.005 C 
ATOM     21  C   UNL     1       6.753   6.314  -2.537  0.00  0.00    +0.018 C 
ENDBRANCH  19  21
ENDBRANCH   1  19
BRANCH   9  22
ATOM     22  C   UNL     1       5.740   3.679  -0.139  0.00  0.00    +0.151 C 
BRANCH  22  23
ATOM     23  S   UNL     1       5.160   2.064  -0.716  0.00  0.00    -0.078 S 
BRANCH  23  24
ATOM     24  C   UNL     1       3.455   2.180  -0.286  0.00  0.00    +0.192 A 
ATOM     25  N   UNL     1       2.863   3.199   0.291  0.00  0.00    -0.122 NA
ATOM     26  N   UNL     1       1.615   2.942   0.456  0.00  0.00    -0.133 NA
ATOM     27  C   UNL     1       1.338   1.754  -0.001  0.00  0.00    +0.137 A 
ATOM     28  N   UNL     1       2.501   1.224  -0.486  0.00  0.00    -0.309 N 
ATOM     29  C   UNL     1       2.685  -0.096  -1.096  0.00  0.00    +0.152 C 
BRANCH  27  30
ATOM     30  C   UNL     1      -0.013   1.086   0.008  0.00  0.00    +0.057 C 
ATOM     31  C   UNL     1      -1.136   1.773   0.788  0.00  0.00    +0.012 C 
ATOM     32  C   UNL     1      -1.150   1.781  -0.743  0.00  0.00    +0.012 C 
ENDBRANCH  27  30
ENDBRANCH  23  24
ENDBRANCH  22  23
ENDBRANCH   9  22
TORSDOF 8
