REMARK  Name = ZINC60198611
REMARK  9 active torsions:
REMARK  status: ('A' for Active; 'I' for Inactive)
REMARK    1  A    between atoms: C_1  and  C_2
REMARK    2  A    between atoms: C_2  and  C_3
REMARK    3  A    between atoms: C_2  and  C_4
REMARK    4  A    between atoms: C_2  and  O_5
REMARK    5  A    between atoms: O_5  and  C_6
REMARK    6  A    between atoms: N_8  and  C_9
REMARK    7  A    between atoms: C_9  and  C_10
REMARK    8  A    between atoms: N_16  and  S_17
REMARK    9  A    between atoms: S_17  and  C_20
REMARK                            x       y       z     vdW  Elec       q    Type
REMARK                         _______ _______ _______ _____ _____    ______ ____
ROOT
ATOM      1  C   UNL     1       4.793  -0.296  -3.938  0.00  0.00    +0.097 C 
ATOM      2  C   UNL     1       6.171   0.243  -4.332  0.00  0.00    +0.022 C 
ATOM      3  C   UNL     1       6.599  -0.384  -5.661  0.00  0.00    +0.003 C 
ATOM      4  C   UNL     1       5.600   0.000  -6.754  0.00  0.00    +0.017 C 
ATOM      5  C   UNL     1       4.215  -0.542  -6.388  0.00  0.00    +0.110 C 
ATOM      6  N   UNL     1       3.856  -0.062  -5.046  0.00  0.00    -0.172 NA
ENDROOT
BRANCH   6   7
ATOM      7  S   UNL     1       2.425   0.731  -4.787  0.00  0.00    +0.067 S 
ATOM      8  O   UNL     1       1.611   0.480  -5.924  0.00  0.00    -0.152 OA
ATOM      9  O   UNL     1       2.012   0.404  -3.467  0.00  0.00    -0.152 OA
BRANCH   7  10
ATOM     10  C   UNL     1       2.778   2.457  -4.792  0.00  0.00    +0.143 A 
ATOM     11  C   UNL     1       2.774   3.326  -5.832  0.00  0.00    +0.036 A 
ATOM     12  C   UNL     1       3.086   4.652  -5.598  0.00  0.00    +0.010 A 
ATOM     13  C   UNL     1       3.387   5.044  -4.336  0.00  0.00    +0.047 A 
ATOM     14  S   UNL     1       3.227   3.516  -3.427  0.00  0.00    -0.077 S 
ENDBRANCH   7  10
ENDBRANCH   6   7
BRANCH   1  15
ATOM     15  C   UNL     1       4.297   0.428  -2.685  0.00  0.00    +0.128 C 
BRANCH  15  18
ATOM     16  C   UNL     1       5.158   1.032  -0.487  0.00  0.00    +0.401 C 
ATOM     17  O   UNL     1       4.159   1.702  -0.312  0.00  0.00    -0.226 OA
ATOM     18  N   UNL     1       5.322   0.356  -1.641  0.00  0.00    -0.280 N 
ATOM     19  H   UNL     1       6.120  -0.178  -1.781  0.00  0.00    +0.152 HD
BRANCH  16  20
ATOM     20  O   UNL     1       6.100   0.966   0.472  0.00  0.00    -0.445 OA
BRANCH  20  22
ATOM     21  C   UNL     1       4.569   1.212   2.326  0.00  0.00    +0.055 C 
ATOM     22  C   UNL     1       5.860   1.707   1.670  0.00  0.00    +0.107 C 
ATOM     23  C   UNL     1       5.723   3.193   1.331  0.00  0.00    +0.055 C 
ATOM     24  C   UNL     1       7.031   1.510   2.635  0.00  0.00    +0.055 C 
ENDBRANCH  20  22
ENDBRANCH  16  20
ENDBRANCH  15  18
ENDBRANCH   1  15
TORSDOF 6
