REMARK  Name = ZINC58775648
REMARK  14 active torsions:
REMARK  status: ('A' for Active; 'I' for Inactive)
REMARK    1  A    between atoms: C_1  and  C_2
REMARK    2  A    between atoms: C_2  and  O_3
REMARK    3  A    between atoms: O_3  and  C_4
REMARK    4  A    between atoms: C_7  and  C_10
REMARK    5  A    between atoms: N_16  and  C_17
REMARK    6  A    between atoms: C_17  and  C_18
REMARK    7  A    between atoms: C_18  and  C_19
REMARK    8  A    between atoms: N_21  and  C_22
REMARK    9  A    between atoms: C_22  and  C_23
REMARK   10  A    between atoms: C_23  and  C_25
REMARK   11  A    between atoms: C_23  and  N_28
REMARK   12  A    between atoms: C_25  and  C_26
REMARK   13  A    between atoms: C_25  and  C_27
REMARK   14  A    between atoms: C_31  and  C_34
REMARK                            x       y       z     vdW  Elec       q    Type
REMARK                         _______ _______ _______ _____ _____    ______ ____
ROOT
ATOM      1  C   UNL     1       2.230  -5.708   5.013  0.00  0.00    +0.117 C 
ENDROOT
BRANCH   1   2
ATOM      2  C   UNL     1       2.871  -5.129   6.248  0.00  0.00    +0.215 C 
ATOM      3  O   UNL     1       4.078  -5.026   6.313  0.00  0.00    -0.276 OA
ATOM      4  N   UNL     1       2.104  -4.726   7.280  0.00  0.00    -0.317 N 
ATOM      5  H   UNL     1       1.139  -4.809   7.228  0.00  0.00    +0.149 HD
BRANCH   4   6
ATOM      6  C   UNL     1       2.727  -4.163   8.480  0.00  0.00    +0.089 C 
BRANCH   6   7
ATOM      7  C   UNL     1       1.661  -3.956   9.559  0.00  0.00    -0.049 C 
BRANCH   7   8
ATOM      8  N   UNL     1       1.234  -5.261  10.082  0.00  0.00    +0.383 N 
ATOM      9  C   UNL     1       2.399  -5.979  10.611  0.00  0.00    -0.078 C 
ATOM     10  C   UNL     1       1.948  -7.304  11.230  0.00  0.00    -0.016 C 
ATOM     11  C   UNL     1       1.265  -8.156  10.156  0.00  0.00    -0.018 C 
ATOM     12  C   UNL     1       0.096  -7.367   9.559  0.00  0.00    -0.016 C 
ATOM     13  C   UNL     1       0.616  -6.040   9.002  0.00  0.00    -0.078 C 
ATOM     14  C   UNL     1       0.741  -9.449  10.786  0.00  0.00    +0.007 C 
ATOM     15  H   UNL     1       0.562  -5.122  10.822  0.00  0.00    -0.081 HD
ENDBRANCH   7   8
BRANCH   7  16
ATOM     16  C   UNL     1       2.245  -3.116  10.697  0.00  0.00    -0.029 C 
ATOM     17  C   UNL     1       2.572  -1.714  10.181  0.00  0.00    +0.005 C 
ATOM     18  C   UNL     1       1.223  -3.017  11.832  0.00  0.00    +0.005 C 
ENDBRANCH   7  16
ENDBRANCH   6   7
ENDBRANCH   4   6
ENDBRANCH   1   2
BRANCH   1  19
ATOM     19  C   UNL     1       3.316  -6.082   4.003  0.00  0.00    +0.135 C 
BRANCH  19  26
ATOM     20  C   UNL     1       2.423  -5.740   1.656  0.00  0.00    +0.163 A 
ATOM     21  N   UNL     1       1.869  -6.481   0.738  0.00  0.00    -0.153 NA
ATOM     22  N   UNL     1       1.761  -7.785   1.240  0.00  0.00    -0.254 N 
ATOM     23  H   UNL     1       1.388  -8.550   0.774  0.00  0.00    +0.191 HD
ATOM     24  C   UNL     1       2.273  -7.783   2.488  0.00  0.00    +0.176 A 
ATOM     25  S   UNL     1       2.381  -9.131   3.538  0.00  0.00    -0.011 S 
ATOM     26  N   UNL     1       2.690  -6.530   2.756  0.00  0.00    -0.303 N 
BRANCH  20  30
ATOM     27  C   UNL     1       3.280  -1.591   1.313  0.00  0.00    +0.121 A 
ATOM     28  C   UNL     1       3.198  -2.180   2.568  0.00  0.00    +0.046 A 
ATOM     29  C   UNL     1       2.920  -3.525   2.683  0.00  0.00    +0.015 A 
ATOM     30  C   UNL     1       2.721  -4.296   1.536  0.00  0.00    +0.019 A 
ATOM     31  C   UNL     1       2.804  -3.700   0.277  0.00  0.00    +0.015 A 
ATOM     32  C   UNL     1       3.077  -2.354   0.170  0.00  0.00    +0.046 A 
BRANCH  27  33
ATOM     33  O   UNL     1       3.554  -0.265   1.203  0.00  0.00    -0.492 OA
BRANCH  33  35
ATOM     34  C   UNL     1       4.048   1.925   2.097  0.00  0.00    +0.048 C 
ATOM     35  C   UNL     1       3.752   0.459   2.419  0.00  0.00    +0.225 C 
ENDBRANCH  33  35
ENDBRANCH  27  33
ENDBRANCH  20  30
ENDBRANCH  19  26
ENDBRANCH   1  19
TORSDOF 10
