REMARK  Name = ZINC40892069
REMARK  8 active torsions:
REMARK  status: ('A' for Active; 'I' for Inactive)
REMARK    1  A    between atoms: C_1  and  C_2
REMARK    2  A    between atoms: C_2  and  C_3
REMARK    3  A    between atoms: C_5  and  C_8
REMARK    4  A    between atoms: C_11  and  N_15
REMARK    5  A    between atoms: C_19  and  C_22
REMARK    6  A    between atoms: N_24  and  C_25
REMARK    7  A    between atoms: C_25  and  C_26
REMARK    8  A    between atoms: C_26  and  C_27
REMARK                            x       y       z     vdW  Elec       q    Type
REMARK                         _______ _______ _______ _____ _____    ______ ____
ROOT
ATOM      1  N   UNL     1      -7.516  -2.761  -4.161  0.00  0.00    -0.327 N 
ATOM      2  C   UNL     1      -8.498  -1.774  -4.629  0.00  0.00    +0.105 C 
ATOM      3  C   UNL     1      -8.545  -1.811  -6.160  0.00  0.00    +0.020 C 
ATOM      4  C   UNL     1      -8.823  -3.243  -6.623  0.00  0.00    +0.016 C 
ATOM      5  C   UNL     1      -7.694  -4.162  -6.151  0.00  0.00    +0.092 C 
ATOM      6  C   UNL     1      -7.635  -4.150  -4.625  0.00  0.00    +0.118 C 
ENDROOT
BRANCH   1  10
ATOM      7  C   UNL     1      -4.441  -1.637  -1.582  0.00  0.00    +0.025 A 
ATOM      8  C   UNL     1      -4.256  -1.569  -2.962  0.00  0.00    +0.013 A 
ATOM      9  C   UNL     1      -5.274  -1.942  -3.813  0.00  0.00    +0.027 A 
ATOM     10  C   UNL     1      -6.486  -2.385  -3.297  0.00  0.00    +0.065 A 
ATOM     11  C   UNL     1      -6.674  -2.454  -1.919  0.00  0.00    +0.145 A 
ATOM     12  C   UNL     1      -5.655  -2.087  -1.064  0.00  0.00    +0.052 A 
ATOM     13  F   UNL     1      -7.853  -2.884  -1.419  0.00  0.00    -0.204 F 
BRANCH   7  16
ATOM     14  C   UNL     1      -1.412  -0.526   0.013  0.00  0.00    +0.227 A 
ATOM     15  N   UNL     1      -2.134  -0.788  -1.039  0.00  0.00    -0.191 NA
ATOM     16  C   UNL     1      -3.346  -1.237  -0.665  0.00  0.00    +0.202 A 
ATOM     17  N   UNL     1      -3.398  -1.261   0.644  0.00  0.00    -0.056 NA
ATOM     18  O   UNL     1      -2.135  -0.803   1.105  0.00  0.00    -0.338 OA
BRANCH  14  20
ATOM     19  C   UNL     1      -0.019   1.526   0.010  0.00  0.00    +0.014 C 
ATOM     20  C   UNL     1       0.002  -0.004   0.002  0.00  0.00    +0.095 C 
ENDBRANCH  14  20
ENDBRANCH   7  16
ENDBRANCH   1  10
BRANCH   5  21
ATOM     21  C   UNL     1      -7.952  -5.565  -6.635  0.00  0.00    +0.218 C 
ATOM     22  O   UNL     1      -8.076  -6.470  -5.837  0.00  0.00    -0.275 OA
ATOM     23  N   UNL     1      -8.045  -5.816  -7.957  0.00  0.00    -0.315 N 
ATOM     24  H   UNL     1      -7.945  -5.093  -8.595  0.00  0.00    +0.149 HD
BRANCH  23  25
ATOM     25  C   UNL     1      -8.296  -7.180  -8.428  0.00  0.00    +0.109 C 
BRANCH  25  26
ATOM     26  C   UNL     1      -8.355  -7.189  -9.957  0.00  0.00    +0.056 C 
BRANCH  26  27
ATOM     27  C   UNL     1      -8.613  -8.592 -10.441  0.00  0.00    -0.021 A 
ATOM     28  C   UNL     1      -7.689  -9.488 -10.821  0.00  0.00    +0.087 A 
ATOM     29  N   UNL     1      -8.297 -10.655 -11.198  0.00  0.00    -0.360 N 
ATOM     30  H   UNL     1      -7.835 -11.448 -11.512  0.00  0.00    +0.165 HD
ATOM     31  C   UNL     1      -9.662 -10.534 -11.067  0.00  0.00    +0.047 A 
ATOM     32  C   UNL     1      -9.920  -9.239 -10.581  0.00  0.00    +0.003 A 
ATOM     33  C   UNL     1     -11.234  -8.833 -10.343  0.00  0.00    +0.010 A 
ATOM     34  C   UNL     1     -12.265  -9.698 -10.580  0.00  0.00    +0.001 A 
ATOM     35  C   UNL     1     -12.016 -10.978 -11.056  0.00  0.00    +0.002 A 
ATOM     36  C   UNL     1     -10.727 -11.396 -11.306  0.00  0.00    +0.026 A 
ENDBRANCH  26  27
ENDBRANCH  25  26
ENDBRANCH  23  25
ENDBRANCH   5  21
TORSDOF 7
