REMARK  Name = ZINC63394108
REMARK  6 active torsions:
REMARK  status: ('A' for Active; 'I' for Inactive)
REMARK    1  A    between atoms: C_3  and  O_9
REMARK    2  A    between atoms: O_9  and  C_10
REMARK    3  A    between atoms: C_10  and  C_11
REMARK    4  A    between atoms: C_11  and  C_12
REMARK    5  A    between atoms: C_12  and  N_13
REMARK    6  A    between atoms: N_16  and  C_17
REMARK                            x       y       z     vdW  Elec       q    Type
REMARK                         _______ _______ _______ _____ _____    ______ ____
ROOT
ATOM      1  N   UNL     1       6.108   6.241   0.036  0.00  0.00    -0.299 N 
ATOM      2  C   UNL     1       6.267   7.579   0.041  0.00  0.00    +0.300 C 
ATOM      3  O   UNL     1       5.295   8.306   0.110  0.00  0.00    -0.253 OA
ATOM      4  N   UNL     1       7.503   8.111  -0.029  0.00  0.00    -0.288 N 
ATOM      5  H   UNL     1       6.884   5.660  -0.018  0.00  0.00    +0.150 HD
ATOM      6  H   UNL     1       8.279   7.531  -0.084  0.00  0.00    +0.151 HD
ENDROOT
BRANCH   4   7
ATOM      7  C   UNL     1       7.676   9.566  -0.024  0.00  0.00    +0.160 C 
ATOM      8  C   UNL     1       9.085   9.919  -0.505  0.00  0.00    +0.032 C 
ATOM      9  C   UNL     1      10.087   8.874  -0.047  0.00  0.00    +0.004 C 
ATOM     10  C   UNL     1      10.290   8.838   1.457  0.00  0.00    +0.019 C 
ATOM     11  C   UNL     1       9.023   8.357   2.167  0.00  0.00    +0.104 C 
ATOM     12  N   UNL     1       8.146   9.516   2.401  0.00  0.00    -0.314 N 
ATOM     13  C   UNL     1       7.503  10.093   1.385  0.00  0.00    +0.233 C 
ATOM     14  O   UNL     1       6.779  11.044   1.590  0.00  0.00    -0.274 OA
ATOM     15  H   UNL     1       8.034   9.861   3.301  0.00  0.00    +0.149 HD
ENDBRANCH   4   7
BRANCH   1  16
ATOM     16  C   UNL     1       4.764   5.662   0.113  0.00  0.00    +0.109 C 
BRANCH  16  17
ATOM     17  C   UNL     1       4.864   4.136   0.090  0.00  0.00    +0.060 C 
BRANCH  17  18
ATOM     18  C   UNL     1       3.461   3.531   0.170  0.00  0.00    +0.230 C 
BRANCH  18  19
ATOM     19  O   UNL     1       3.554   2.106   0.148  0.00  0.00    -0.490 OA
BRANCH  19  22
ATOM     20  C   UNL     1      -0.004   1.376   0.360  0.00  0.00    +0.023 A 
ATOM     21  C   UNL     1       1.180   2.085   0.295  0.00  0.00    +0.048 A 
ATOM     22  C   UNL     1       2.388   1.410   0.212  0.00  0.00    +0.139 A 
ATOM     23  C   UNL     1       2.405   0.021   0.195  0.00  0.00    +0.084 A 
ATOM     24  C   UNL     1       1.218  -0.684   0.260  0.00  0.00    +0.043 A 
ATOM     25  C   UNL     1       0.014  -0.007   0.343  0.00  0.00    +0.043 A 
ATOM     26 CL   UNL     1      -1.475  -0.895   0.425  0.00  0.00    -0.083 Cl
ATOM     27 CL   UNL     1       3.916  -0.828   0.092  0.00  0.00    -0.080 Cl
ENDBRANCH  19  22
ENDBRANCH  18  19
ENDBRANCH  17  18
ENDBRANCH  16  17
ENDBRANCH   1  16
TORSDOF 6
