REMARK  Name = ZINC09853294
REMARK  7 active torsions:
REMARK  status: ('A' for Active; 'I' for Inactive)
REMARK    1  A    between atoms: C_3  and  C_6
REMARK    2  A    between atoms: C_9  and  O_12
REMARK    3  A    between atoms: O_12  and  C_13
REMARK    4  A    between atoms: C_13  and  C_14
REMARK    5  A    between atoms: C_14  and  N_15
REMARK    6  A    between atoms: C_16  and  C_18
REMARK    7  A    between atoms: C_22  and  N_24
REMARK                            x       y       z     vdW  Elec       q    Type
REMARK                         _______ _______ _______ _____ _____    ______ ____
ROOT
ATOM      1  C   UNL     1      -6.869   4.960   0.060  0.00  0.00    +0.145 C 
ENDROOT
BRANCH   1   2
ATOM      2  N   UNL     1      -6.851   5.726  -1.188  0.00  0.00    -0.308 N 
ATOM      3  C   UNL     1      -7.774   6.686  -1.402  0.00  0.00    +0.244 C 
ATOM      4  O   UNL     1      -8.620   6.914  -0.560  0.00  0.00    -0.270 OA
ATOM      5  H   UNL     1      -6.176   5.544  -1.860  0.00  0.00    +0.149 HD
BRANCH   3   6
ATOM      6  C   UNL     1      -7.756   7.459  -2.661  0.00  0.00    +0.039 A 
ATOM      7  C   UNL     1      -6.782   7.203  -3.628  0.00  0.00    +0.014 A 
ATOM      8  C   UNL     1      -6.774   7.925  -4.803  0.00  0.00    +0.023 A 
ATOM      9  C   UNL     1      -7.723   8.910  -5.020  0.00  0.00    +0.071 A 
ATOM     10  C   UNL     1      -8.688   9.173  -4.063  0.00  0.00    +0.145 A 
ATOM     11  C   UNL     1      -8.710   8.454  -2.886  0.00  0.00    +0.047 A 
ATOM     12 CL   UNL     1      -7.702   9.819  -6.499  0.00  0.00    -0.081 Cl
BRANCH  10  13
ATOM     13  N   UNL     1      -9.700  10.227  -4.303  0.00  0.00    +0.058 N 
ATOM     14  O   UNL     1     -10.550  10.458  -3.462  0.00  0.00    -0.126 OA
ATOM     15  O   UNL     1      -9.682  10.862  -5.341  0.00  0.00    -0.126 OA
ENDBRANCH  10  13
ENDBRANCH   3   6
ENDBRANCH   1   2
BRANCH   1  16
ATOM     16  C   UNL     1      -5.725   3.943   0.050  0.00  0.00    +0.249 C 
BRANCH  16  17
ATOM     17  O   UNL     1      -4.474   4.634   0.048  0.00  0.00    -0.474 OA
BRANCH  17  21
ATOM     18  C   UNL     1      -1.176   2.281   0.020  0.00  0.00    +0.100 A 
ATOM     19  C   UNL     1      -0.978   3.668   0.027  0.00  0.00    +0.036 A 
ATOM     20  C   UNL     1      -2.096   4.482   0.036  0.00  0.00    +0.071 A 
ATOM     21  C   UNL     1      -3.350   3.873   0.039  0.00  0.00    +0.234 A 
ATOM     22  N   UNL     1      -3.445   2.553   0.032  0.00  0.00    -0.111 NA
ATOM     23  N   UNL     1      -2.411   1.792   0.018  0.00  0.00    -0.145 NA
BRANCH  18  26
ATOM     24  C   UNL     1       1.218  -0.649  -0.013  0.00  0.00    +0.008 A 
ATOM     25  C   UNL     1       0.002  -0.004   0.002  0.00  0.00    +0.018 A 
ATOM     26  C   UNL     1      -0.017   1.365   0.009  0.00  0.00    +0.039 A 
ATOM     27  S   UNL     1       1.725   1.757  -0.005  0.00  0.00    -0.095 S 
ATOM     28  C   UNL     1       2.359   0.088  -0.020  0.00  0.00    +0.046 A 
ENDBRANCH  18  26
ENDBRANCH  17  21
ENDBRANCH  16  17
ENDBRANCH   1  16
TORSDOF 7
