REMARK  Name = ZINC23857861
REMARK  7 active torsions:
REMARK  status: ('A' for Active; 'I' for Inactive)
REMARK    1  A    between atoms: C_1  and  N_2
REMARK    2  A    between atoms: C_9  and  C_11
REMARK    3  A    between atoms: C_11  and  C_13
REMARK    4  A    between atoms: C_11  and  N_27
REMARK    5  A    between atoms: C_13  and  N_14
REMARK    6  A    between atoms: C_15  and  C_17
REMARK    7  A    between atoms: C_22  and  N_23
REMARK                            x       y       z     vdW  Elec       q    Type
REMARK                         _______ _______ _______ _____ _____    ______ ____
ROOT
ATOM      1  C   UNL     1      -2.133   5.953   0.445  0.00  0.00    -0.020 C 
ENDROOT
BRANCH   1  10
ATOM      2  C   UNL     1       3.050   4.003   3.790  0.00  0.00    +0.129 C 
ATOM      3  N   UNL     1       2.039   3.183   3.109  0.00  0.00    -0.332 N 
ATOM      4  C   UNL     1       2.638   2.426   1.988  0.00  0.00    +0.109 C 
ATOM      5  C   UNL     1       1.469   2.321   0.982  0.00  0.00    +0.056 C 
ATOM      6  C   UNL     1       0.614   3.523   1.333  0.00  0.00    -0.025 A 
ATOM      7  C   UNL     1       1.009   3.978   2.586  0.00  0.00    +0.033 A 
ATOM      8  C   UNL     1       0.373   5.090   3.134  0.00  0.00    +0.023 A 
ATOM      9  C   UNL     1      -0.638   5.724   2.440  0.00  0.00    +0.004 A 
ATOM     10  C   UNL     1      -1.026   5.260   1.197  0.00  0.00    -0.059 A 
ATOM     11  C   UNL     1      -0.398   4.158   0.645  0.00  0.00    +0.007 A 
ENDBRANCH   1  10
BRANCH   1  12
ATOM     12  N   UNL     1      -3.196   6.338   1.382  0.00  0.00    +0.385 N 
ATOM     13  C   UNL     1      -3.725   5.165   2.089  0.00  0.00    -0.078 C 
ATOM     14  C   UNL     1      -4.723   5.617   3.157  0.00  0.00    -0.019 C 
ATOM     15  C   UNL     1      -5.863   6.390   2.488  0.00  0.00    -0.004 C 
ATOM     16  C   UNL     1      -5.281   7.579   1.719  0.00  0.00    -0.019 C 
ATOM     17  C   UNL     1      -4.267   7.070   0.693  0.00  0.00    -0.078 C 
ATOM     18  H   UNL     1      -2.759   7.013   2.133  0.00  0.00    -0.081 HD
ENDBRANCH   1  12
BRANCH   1  19
ATOM     19  C   UNL     1      -1.578   7.205  -0.239  0.00  0.00    +0.094 C 
BRANCH  19  20
ATOM     20  N   UNL     1      -0.573   6.814  -1.231  0.00  0.00    -0.313 N 
ATOM     21  C   UNL     1       0.131   7.760  -1.885  0.00  0.00    +0.246 C 
ATOM     22  O   UNL     1      -0.068   8.936  -1.651  0.00  0.00    -0.270 OA
ATOM     23  H   UNL     1      -0.393   5.750  -1.442  0.00  0.00    +0.149 HD
BRANCH  21  24
ATOM     24  C   UNL     1       1.146   7.366  -2.885  0.00  0.00    +0.068 A 
ATOM     25  C   UNL     1       1.279   6.027  -3.259  0.00  0.00    +0.035 A 
ATOM     26  C   UNL     1       2.225   5.667  -4.198  0.00  0.00    +0.042 A 
ATOM     27  C   UNL     1       3.047   6.630  -4.761  0.00  0.00    +0.022 A 
ATOM     28  C   UNL     1       2.923   7.956  -4.390  0.00  0.00    +0.035 A 
ATOM     29  C   UNL     1       1.978   8.330  -3.456  0.00  0.00    +0.138 A 
ATOM     30 CL   UNL     1       2.389   4.005  -4.669  0.00  0.00    -0.084 Cl
BRANCH  29  31
ATOM     31  N   UNL     1       1.847   9.750  -3.061  0.00  0.00    +0.057 N 
ATOM     32  O   UNL     1       1.733  10.612  -3.914  0.00  0.00    -0.126 OA
ATOM     33  O   UNL     1       1.853  10.057  -1.883  0.00  0.00    -0.126 OA
ENDBRANCH  29  31
ENDBRANCH  21  24
ENDBRANCH  19  20
ENDBRANCH   1  19
TORSDOF 6
