REMARK  Name = ZINC27336294
REMARK  6 active torsions:
REMARK  status: ('A' for Active; 'I' for Inactive)
REMARK    1  A    between atoms: C_3  and  C_6
REMARK    2  A    between atoms: C_6  and  C_8
REMARK    3  A    between atoms: C_6  and  N_26
REMARK    4  A    between atoms: C_8  and  N_9
REMARK    5  A    between atoms: C_10  and  C_12
REMARK    6  A    between atoms: C_19  and  C_21
REMARK                            x       y       z     vdW  Elec       q    Type
REMARK                         _______ _______ _______ _____ _____    ______ ____
ROOT
ATOM      1  N   UNL     1      -1.488   3.932   3.528  0.00  0.00    -0.316 N 
ATOM      2  C   UNL     1      -1.198   3.912   4.844  0.00  0.00    +0.218 C 
ATOM      3  O   UNL     1      -1.848   3.219   5.598  0.00  0.00    -0.275 OA
ATOM      4  H   UNL     1      -0.899   4.561   2.845  0.00  0.00    +0.149 HD
ENDROOT
BRANCH   2   5
ATOM      5  C   UNL     1      -0.066   4.751   5.379  0.00  0.00    +0.092 C 
ATOM      6  C   UNL     1       0.051   4.547   6.891  0.00  0.00    +0.016 C 
ATOM      7  C   UNL     1       1.221   5.373   7.430  0.00  0.00    +0.020 C 
ATOM      8  C   UNL     1       0.958   6.859   7.162  0.00  0.00    +0.108 C 
ATOM      9  N   UNL     1       0.701   7.041   5.727  0.00  0.00    -0.294 N 
ATOM     10  C   UNL     1      -0.343   6.229   5.087  0.00  0.00    +0.121 C 
ATOM     11  C   UNL     1       1.409   7.937   5.011  0.00  0.00    +0.282 C 
ATOM     12  O   UNL     1       1.137   8.133   3.841  0.00  0.00    -0.267 OA
BRANCH  11  13
ATOM     13  C   UNL     1       2.508   8.676   5.641  0.00  0.00    +0.189 A 
ATOM     14  C   UNL     1       3.382   9.510   5.006  0.00  0.00    +0.054 A 
ATOM     15  C   UNL     1       4.259   9.999   5.987  0.00  0.00    +0.042 A 
ATOM     16  C   UNL     1       3.891   9.442   7.162  0.00  0.00    +0.196 A 
ATOM     17  O   UNL     1       2.835   8.646   6.950  0.00  0.00    -0.458 OA
ENDBRANCH  11  13
ENDBRANCH   2   5
BRANCH   1  18
ATOM     18  C   UNL     1      -2.589   3.116   3.008  0.00  0.00    +0.096 C 
BRANCH  18  19
ATOM     19  C   UNL     1      -2.705   3.321   1.497  0.00  0.00    +0.016 C 
BRANCH  19  20
ATOM     20  N   UNL     1      -1.412   3.032   0.863  0.00  0.00    +0.387 N 
ATOM     21  C   UNL     1      -0.894   1.714   1.289  0.00  0.00    -0.078 C 
ATOM     22  C   UNL     1      -0.140   1.167   0.052  0.00  0.00    -0.020 C 
ATOM     23  C   UNL     1      -1.041   1.663  -1.110  0.00  0.00    -0.020 C 
ATOM     24  C   UNL     1      -1.531   3.037  -0.607  0.00  0.00    -0.078 C 
ATOM     25  H   UNL     1      -0.719   3.826   1.179  0.00  0.00    -0.081 HD
ENDBRANCH  19  20
BRANCH  19  28
ATOM     26  C   UNL     1      -5.631   1.569   0.100  0.00  0.00    +0.041 A 
ATOM     27  C   UNL     1      -4.989   2.747   0.544  0.00  0.00    +0.043 A 
ATOM     28  C   UNL     1      -3.754   2.391   0.943  0.00  0.00    +0.093 A 
ATOM     29  O   UNL     1      -3.613   1.069   0.759  0.00  0.00    -0.469 OA
ATOM     30  C   UNL     1      -4.750   0.563   0.254  0.00  0.00    +0.195 A 
ENDBRANCH  19  28
ENDBRANCH  18  19
ENDBRANCH   1  18
TORSDOF 6
