REMARK  Name = ZINC06443703
REMARK  12 active torsions:
REMARK  status: ('A' for Active; 'I' for Inactive)
REMARK    1  A    between atoms: C_1  and  C_2
REMARK    2  A    between atoms: C_12  and  C_14
REMARK    3  A    between atoms: C_14  and  C_16
REMARK    4  A    between atoms: C_14  and  N_67
REMARK    5  A    between atoms: N_20  and  C_21
REMARK    6  A    between atoms: C_21  and  C_22
REMARK    7  A    between atoms: C_22  and  O_23
REMARK    8  A    between atoms: O_23  and  C_24
REMARK    9  A    between atoms: C_25  and  C_26
REMARK   10  A    between atoms: C_25  and  N_67
REMARK   11  A    between atoms: C_32  and  C_33
REMARK   12  A    between atoms: C_32  and  N_67
REMARK                            x       y       z     vdW  Elec       q    Type
REMARK                         _______ _______ _______ _____ _____    ______ ____
ROOT
ATOM      1  C   UNL     1      -0.791  -3.658   5.078  0.00  0.00    +0.039 C 
ENDROOT
BRANCH   1  13
ATOM      2  C   UNL     1      -2.490  -2.275  -1.119  0.00  0.00    +0.046 C 
ATOM      3  C   UNL     1      -1.152  -2.252  -0.425  0.00  0.00    -0.026 A 
ATOM      4  C   UNL     1      -0.017  -1.898  -1.122  0.00  0.00    +0.005 A 
ATOM      5  C   UNL     1       1.220  -1.868  -0.493  0.00  0.00    +0.001 A 
ATOM      6  C   UNL     1       1.337  -2.201   0.827  0.00  0.00    +0.010 A 
ATOM      7  C   UNL     1       0.200  -2.569   1.553  0.00  0.00    -0.001 A 
ATOM      8  C   UNL     1      -1.058  -2.595   0.920  0.00  0.00    +0.052 A 
ATOM      9  N   UNL     1      -2.176  -2.958   1.639  0.00  0.00    -0.322 N 
ATOM     10  H   UNL     1      -3.042  -2.975   1.202  0.00  0.00    +0.169 HD
ATOM     11  C   UNL     1      -2.084  -3.289   2.939  0.00  0.00    +0.251 A 
ATOM     12  O   UNL     1      -3.094  -3.606   3.545  0.00  0.00    -0.268 OA
ATOM     13  C   UNL     1      -0.848  -3.280   3.621  0.00  0.00    +0.011 A 
ATOM     14  C   UNL     1       0.288  -2.931   2.969  0.00  0.00    +0.017 A 
ENDBRANCH   1  13
BRANCH   1  15
ATOM     15  C   UNL     1       0.643  -3.663   5.540  0.00  0.00    +0.143 A 
ATOM     16  N   UNL     1       1.395  -2.614   5.768  0.00  0.00    -0.115 NA
ATOM     17  N   UNL     1       2.554  -3.030   6.148  0.00  0.00    -0.023 NA
ATOM     18  N   UNL     1       2.560  -4.318   6.168  0.00  0.00    -0.044 NA
ATOM     19  N   UNL     1       1.398  -4.745   5.805  0.00  0.00    -0.228 N 
BRANCH  19  20
ATOM     20  C   UNL     1       0.981  -6.145   5.698  0.00  0.00    +0.175 C 
BRANCH  20  21
ATOM     21  C   UNL     1       1.278  -6.659   4.288  0.00  0.00    +0.183 C 
BRANCH  21  22
ATOM     22  O   UNL     1       0.871  -8.025   4.183  0.00  0.00    -0.381 OA
ATOM     23  C   UNL     1       1.105  -8.605   2.898  0.00  0.00    +0.194 C 
ENDBRANCH  21  22
ENDBRANCH  20  21
ENDBRANCH  19  20
ENDBRANCH   1  15
BRANCH   1  24
ATOM     24  N   UNL     1      -1.584  -2.684   5.858  0.00  0.00    +0.395 N 
ATOM     25  H   UNL     1      -2.558  -2.712   5.535  0.00  0.00    -0.079 HD
BRANCH  24  26
ATOM     26  C   UNL     1      -1.050  -1.321   5.657  0.00  0.00    -0.041 C 
BRANCH  26  27
ATOM     27  C   UNL     1      -1.722  -0.716   4.451  0.00  0.00    -0.064 A 
ATOM     28  C   UNL     1      -0.998  -0.496   3.294  0.00  0.00    +0.002 A 
ATOM     29  C   UNL     1      -1.616   0.054   2.186  0.00  0.00    +0.000 A 
ATOM     30  C   UNL     1      -2.954   0.395   2.240  0.00  0.00    +0.000 A 
ATOM     31  C   UNL     1      -3.677   0.181   3.399  0.00  0.00    +0.000 A 
ATOM     32  C   UNL     1      -3.060  -0.375   4.505  0.00  0.00    +0.002 A 
ENDBRANCH  26  27
ENDBRANCH  24  26
BRANCH  24  33
ATOM     33  C   UNL     1      -1.544  -3.035   7.293  0.00  0.00    -0.041 C 
BRANCH  33  34
ATOM     34  C   UNL     1      -2.623  -2.265   8.010  0.00  0.00    -0.064 A 
ATOM     35  C   UNL     1      -2.311  -1.090   8.669  0.00  0.00    +0.004 A 
ATOM     36  C   UNL     1      -3.301  -0.380   9.322  0.00  0.00    +0.038 A 
ATOM     37  C   UNL     1      -4.603  -0.851   9.326  0.00  0.00    +0.123 A 
ATOM     38  C   UNL     1      -4.913  -2.030   8.670  0.00  0.00    +0.038 A 
ATOM     39  C   UNL     1      -3.923  -2.736   8.013  0.00  0.00    +0.004 A 
ATOM     40  F   UNL     1      -5.570  -0.160   9.969  0.00  0.00    -0.205 F 
ENDBRANCH  33  34
ENDBRANCH  24  33
ENDBRANCH   1  24
TORSDOF 10
