REMARK  Name = ZINC63486394
REMARK  12 active torsions:
REMARK  status: ('A' for Active; 'I' for Inactive)
REMARK    1  A    between atoms: C_1  and  C_2
REMARK    2  A    between atoms: C_7  and  O_32
REMARK    3  A    between atoms: C_13  and  C_15
REMARK    4  A    between atoms: C_15  and  C_16
REMARK    5  A    between atoms: N_18  and  C_19
REMARK    6  A    between atoms: C_19  and  C_20
REMARK    7  A    between atoms: C_20  and  C_21
REMARK    8  A    between atoms: C_24  and  O_30
REMARK    9  A    between atoms: O_30  and  C_31
REMARK   10  A    between atoms: O_32  and  C_33
REMARK   11  A    between atoms: C_33  and  C_34
REMARK   12  A    between atoms: C_34  and  C_36
REMARK                            x       y       z     vdW  Elec       q    Type
REMARK                         _______ _______ _______ _____ _____    ______ ____
ROOT
ATOM      1  C   UNL     1       2.021   0.299   1.454  0.00  0.00    +0.111 C 
ENDROOT
BRANCH   1  13
ATOM      2  C   UNL     1      -0.019   1.526   0.010  0.00  0.00    +0.013 C 
ATOM      3  C   UNL     1       0.002  -0.004   0.002  0.00  0.00    +0.034 C 
ATOM      4  C   UNL     1       0.705  -0.489  -1.241  0.00  0.00    +0.000 A 
ATOM      5  C   UNL     1       0.474   0.182  -2.433  0.00  0.00    +0.031 A 
ATOM      6  C   UNL     1       1.090  -0.231  -3.598  0.00  0.00    +0.083 A 
ATOM      7  C   UNL     1       1.946  -1.324  -3.580  0.00  0.00    +0.143 A 
ATOM      8  C   UNL     1       2.180  -1.994  -2.391  0.00  0.00    +0.093 A 
ATOM      9  C   UNL     1       1.562  -1.574  -1.218  0.00  0.00    +0.139 A 
ATOM     10  O   UNL     1       1.836  -2.249  -0.068  0.00  0.00    -0.425 OA
ATOM     11  C   UNL     1       1.083  -1.967   1.014  0.00  0.00    +0.316 C 
ATOM     12  O   UNL     1       0.702  -2.836   1.762  0.00  0.00    -0.250 OA
ATOM     13  C   UNL     1       0.740  -0.510   1.245  0.00  0.00    +0.114 C 
ATOM     14 CL   UNL     1       0.793   0.617  -5.084  0.00  0.00    -0.080 Cl
BRANCH   7  15
ATOM     15  O   UNL     1       2.550  -1.736  -4.726  0.00  0.00    -0.486 OA
BRANCH  15  16
ATOM     16  C   UNL     1       3.418  -2.867  -4.631  0.00  0.00    +0.259 C 
BRANCH  16  17
ATOM     17  C   UNL     1       3.993  -3.175  -5.990  0.00  0.00    -0.043 C 
ATOM     18  C   UNL     1       3.665  -2.437  -7.021  0.00  0.00    +0.011 C 
ATOM     19  C   UNL     1       4.944  -4.331  -6.161  0.00  0.00    +0.042 C 
ENDBRANCH  16  17
ENDBRANCH  15  16
ENDBRANCH   7  15
ENDBRANCH   1  13
BRANCH   1  20
ATOM     20  C   UNL     1       2.676  -0.121   2.744  0.00  0.00    +0.214 C 
ATOM     21  O   UNL     1       2.169  -0.983   3.430  0.00  0.00    -0.276 OA
ATOM     22  N   UNL     1       3.827   0.461   3.137  0.00  0.00    -0.315 N 
ATOM     23  H   UNL     1       4.233   1.151   2.589  0.00  0.00    +0.149 HD
BRANCH  22  24
ATOM     24  C   UNL     1       4.464   0.052   4.391  0.00  0.00    +0.108 C 
BRANCH  24  25
ATOM     25  C   UNL     1       5.746   0.862   4.600  0.00  0.00    +0.052 C 
BRANCH  25  26
ATOM     26  C   UNL     1       6.401   0.442   5.890  0.00  0.00    -0.040 C 
ATOM     27  C   UNL     1       7.388  -0.470   6.041  0.00  0.00    +0.002 A 
ATOM     28  C   UNL     1       8.119  -1.312   5.088  0.00  0.00    +0.055 A 
ATOM     29  C   UNL     1       9.080  -2.153   5.542  0.00  0.00    +0.121 A 
ATOM     30  C   UNL     1       9.408  -2.252   6.905  0.00  0.00    +0.047 A 
ATOM     31  C   UNL     1       8.791  -1.519   7.856  0.00  0.00    +0.029 A 
ATOM     32  C   UNL     1       7.735  -0.576   7.477  0.00  0.00    +0.043 A 
ATOM     33  N   UNL     1       6.992   0.238   8.185  0.00  0.00    -0.380 N 
ATOM     34  C   UNL     1       6.092   0.959   7.277  0.00  0.00    +0.144 C 
ATOM     35  H   UNL     1       7.032   0.349   9.148  0.00  0.00    +0.160 HD
BRANCH  29  36
ATOM     36  O   UNL     1       9.749  -2.928   4.647  0.00  0.00    -0.495 OA
ATOM     37  C   UNL     1      10.754  -3.800   5.169  0.00  0.00    +0.277 C 
ENDBRANCH  29  36
ENDBRANCH  25  26
ENDBRANCH  24  25
ENDBRANCH  22  24
ENDBRANCH   1  20
TORSDOF 9
