REMARK  Name = ZINC21076778
REMARK  8 active torsions:
REMARK  status: ('A' for Active; 'I' for Inactive)
REMARK    1  A    between atoms: C_4  and  N_7
REMARK    2  A    between atoms: N_7  and  C_8
REMARK    3  A    between atoms: C_14  and  C_16
REMARK    4  A    between atoms: C_16  and  C_17
REMARK    5  A    between atoms: C_17  and  S_18
REMARK    6  A    between atoms: S_18  and  C_19
REMARK    7  A    between atoms: N_24  and  N_25
REMARK    8  A    between atoms: C_26  and  C_27
REMARK                            x       y       z     vdW  Elec       q    Type
REMARK                         _______ _______ _______ _____ _____    ______ ____
ROOT
ATOM      1  C   UNL     1      -8.112   3.564   1.469  0.00  0.00    +0.210 A 
ATOM      2  N   UNL     1      -7.458   2.402   1.766  0.00  0.00    -0.186 NA
ATOM      3  C   UNL     1      -6.130   2.692   1.918  0.00  0.00    +0.232 A 
ATOM      4  N   UNL     1      -5.973   3.980   1.728  0.00  0.00    -0.245 N 
ATOM      5  N   UNL     1      -7.227   4.532   1.438  0.00  0.00    -0.144 NA
ATOM      6  N   UNL     1      -5.127   1.785   2.224  0.00  0.00    -0.205 N 
ATOM      7  H   UNL     1      -5.372   0.722   2.369  0.00  0.00    +0.177 HD
ATOM      8  H   UNL     1      -4.972   4.430   1.810  0.00  0.00    +0.192 HD
ENDROOT
BRANCH   6   9
ATOM      9  N   UNL     1      -3.802   2.221   2.350  0.00  0.00    -0.187 NA
ATOM     10  C   UNL     1      -2.863   1.371   2.638  0.00  0.00    +0.140 C 
BRANCH  10  11
ATOM     11  C   UNL     1      -1.470   1.830   2.770  0.00  0.00    +0.020 A 
ATOM     12  C   UNL     1      -0.386   1.063   3.064  0.00  0.00    +0.093 A 
ATOM     13  N   UNL     1       0.734   1.843   3.094  0.00  0.00    -0.360 N 
ATOM     14  H   UNL     1       1.713   1.391   3.313  0.00  0.00    +0.165 HD
ATOM     15  C   UNL     1       0.410   3.155   2.824  0.00  0.00    +0.047 A 
ATOM     16  C   UNL     1      -0.978   3.210   2.612  0.00  0.00    +0.008 A 
ATOM     17  C   UNL     1      -1.591   4.426   2.316  0.00  0.00    +0.010 A 
ATOM     18  C   UNL     1      -0.829   5.571   2.231  0.00  0.00    +0.001 A 
ATOM     19  C   UNL     1       0.542   5.517   2.440  0.00  0.00    +0.002 A 
ATOM     20  C   UNL     1       1.161   4.322   2.733  0.00  0.00    +0.026 A 
ENDBRANCH  10  11
ENDBRANCH   6   9
BRANCH   1  21
ATOM     21  S   UNL     1      -9.842   3.733   1.179  0.00  0.00    -0.084 S 
BRANCH  21  22
ATOM     22  C   UNL     1     -10.060   5.503   0.844  0.00  0.00    +0.087 C 
BRANCH  22  23
ATOM     23  C   UNL     1     -11.537   5.792   0.571  0.00  0.00    +0.108 C 
BRANCH  23  25
ATOM     24  N   UNL     1     -12.940   7.745  -0.007  0.00  0.00    -0.240 N 
ATOM     25  C   UNL     1     -11.719   7.262   0.293  0.00  0.00    +0.225 C 
ATOM     26  O   UNL     1     -10.765   8.010   0.339  0.00  0.00    -0.275 OA
BRANCH  24  30
ATOM     27  C   UNL     1     -16.269   5.243   0.150  0.00  0.00    +0.000 A 
ATOM     28  C   UNL     1     -16.135   6.271   1.064  0.00  0.00    +0.002 A 
ATOM     29  C   UNL     1     -15.033   7.102   1.015  0.00  0.00    +0.024 A 
ATOM     30  C   UNL     1     -14.059   6.904   0.046  0.00  0.00    +0.041 A 
ATOM     31  C   UNL     1     -14.198   5.874  -0.875  0.00  0.00    +0.024 A 
ATOM     32  C   UNL     1     -15.300   5.043  -0.817  0.00  0.00    +0.002 A 
ENDBRANCH  24  30
BRANCH  24  33
ATOM     33  C   UNL     1     -13.091   9.089  -0.372  0.00  0.00    +0.041 A 
ATOM     34  C   UNL     1     -12.880  10.092   0.564  0.00  0.00    +0.024 A 
ATOM     35  C   UNL     1     -13.025  11.416   0.200  0.00  0.00    +0.002 A 
ATOM     36  C   UNL     1     -13.391  11.743  -1.093  0.00  0.00    +0.000 A 
ATOM     37  C   UNL     1     -13.607  10.747  -2.026  0.00  0.00    +0.002 A 
ATOM     38  C   UNL     1     -13.459   9.421  -1.670  0.00  0.00    +0.024 A 
ENDBRANCH  24  33
ENDBRANCH  23  25
ENDBRANCH  22  23
ENDBRANCH  21  22
ENDBRANCH   1  21
TORSDOF 8
