REMARK  Name = ZINC39711209
REMARK  10 active torsions:
REMARK  status: ('A' for Active; 'I' for Inactive)
REMARK    1  A    between atoms: C_1  and  C_2
REMARK    2  A    between atoms: C_6  and  C_15
REMARK    3  A    between atoms: C_13  and  C_14
REMARK    4  A    between atoms: C_15  and  C_17
REMARK    5  A    between atoms: C_15  and  N_26
REMARK    6  A    between atoms: N_21  and  C_22
REMARK    7  A    between atoms: C_22  and  C_23
REMARK    8  A    between atoms: C_23  and  O_24
REMARK    9  A    between atoms: O_24  and  C_25
REMARK   10  A    between atoms: N_29  and  C_32
REMARK                            x       y       z     vdW  Elec       q    Type
REMARK                         _______ _______ _______ _____ _____    ______ ____
ROOT
ATOM      1  C   UNL     1      -1.179  -4.878  -2.983  0.00  0.00    +0.142 C 
ENDROOT
BRANCH   1   7
ATOM      2  C   UNL     1       5.890  -4.132  -3.683  0.00  0.00    +0.044 C 
ATOM      3  C   UNL     1       4.517  -3.646  -3.297  0.00  0.00    -0.047 A 
ATOM      4  C   UNL     1       3.542  -4.553  -3.026  0.00  0.00    +0.013 A 
ATOM      5  C   UNL     1       2.213  -4.069  -2.651  0.00  0.00    -0.007 A 
ATOM      6  C   UNL     1       1.205  -4.942  -2.370  0.00  0.00    -0.003 C 
ATOM      7  C   UNL     1      -0.140  -4.353  -1.990  0.00  0.00    +0.123 C 
ATOM      8  C   UNL     1      -0.253  -2.845  -1.956  0.00  0.00    +0.226 C 
ATOM      9  O   UNL     1      -1.308  -2.319  -1.657  0.00  0.00    -0.275 OA
ATOM     10  N   UNL     1       0.800  -2.101  -2.250  0.00  0.00    -0.284 N 
ATOM     11  C   UNL     1       1.984  -2.615  -2.584  0.00  0.00    +0.041 A 
ATOM     12  C   UNL     1       3.062  -1.762  -2.884  0.00  0.00    +0.027 A 
ATOM     13  C   UNL     1       4.274  -2.274  -3.220  0.00  0.00    -0.046 A 
ATOM     14  C   UNL     1       5.401  -1.322  -3.528  0.00  0.00    +0.044 C 
ATOM     15  H   UNL     1       0.707  -1.136  -2.222  0.00  0.00    +0.155 HD
ENDBRANCH   1   7
BRANCH   1  16
ATOM     16  N   UNL     1      -1.131  -6.346  -3.012  0.00  0.00    -0.289 NA
ATOM     17  C   UNL     1      -1.368  -6.907  -1.675  0.00  0.00    +0.104 C 
ATOM     18  C   UNL     1      -1.131  -8.420  -1.711  0.00  0.00    +0.120 C 
ATOM     19  N   UNL     1      -1.956  -8.997  -2.783  0.00  0.00    -0.325 N 
ATOM     20  C   UNL     1      -1.875  -8.397  -4.124  0.00  0.00    +0.120 C 
ATOM     21  C   UNL     1      -2.082  -6.884  -3.993  0.00  0.00    +0.104 C 
BRANCH  19  22
ATOM     22  C   UNL     1      -2.796 -10.088  -2.535  0.00  0.00    +0.065 A 
ATOM     23  C   UNL     1      -4.109  -9.879  -2.135  0.00  0.00    +0.026 A 
ATOM     24  C   UNL     1      -4.936 -10.958  -1.891  0.00  0.00    +0.002 A 
ATOM     25  C   UNL     1      -4.458 -12.246  -2.045  0.00  0.00    +0.003 A 
ATOM     26  C   UNL     1      -3.151 -12.460  -2.443  0.00  0.00    +0.040 A 
ATOM     27  C   UNL     1      -2.320 -11.385  -2.695  0.00  0.00    +0.144 A 
ATOM     28  F   UNL     1      -1.044 -11.593  -3.090  0.00  0.00    -0.204 F 
ENDBRANCH  19  22
ENDBRANCH   1  16
BRANCH   1  29
ATOM     29  C   UNL     1      -2.553  -4.429  -2.556  0.00  0.00    +0.170 A 
ATOM     30  N   UNL     1      -3.259  -4.908  -1.561  0.00  0.00    -0.112 NA
ATOM     31  N   UNL     1      -4.374  -4.265  -1.518  0.00  0.00    -0.023 NA
ATOM     32  N   UNL     1      -4.398  -3.387  -2.460  0.00  0.00    -0.044 NA
ATOM     33  N   UNL     1      -3.291  -3.454  -3.118  0.00  0.00    -0.225 N 
BRANCH  33  34
ATOM     34  C   UNL     1      -2.909  -2.625  -4.265  0.00  0.00    +0.175 C 
BRANCH  34  35
ATOM     35  C   UNL     1      -3.370  -3.301  -5.558  0.00  0.00    +0.183 C 
BRANCH  35  36
ATOM     36  O   UNL     1      -2.998  -2.494  -6.676  0.00  0.00    -0.381 OA
ATOM     37  C   UNL     1      -3.383  -3.038  -7.940  0.00  0.00    +0.194 C 
ENDBRANCH  35  36
ENDBRANCH  34  35
ENDBRANCH  33  34
ENDBRANCH   1  29
TORSDOF 7
