REMARK  Name = ZINC27491101
REMARK  12 active torsions:
REMARK  status: ('A' for Active; 'I' for Inactive)
REMARK    1  A    between atoms: C_1  and  C_2
REMARK    2  A    between atoms: C_2  and  C_4
REMARK    3  A    between atoms: C_2  and  N_32
REMARK    4  A    between atoms: N_6  and  C_17
REMARK    5  A    between atoms: N_9  and  C_10
REMARK    6  A    between atoms: C_17  and  N_18
REMARK    7  A    between atoms: C_23  and  O_30
REMARK    8  A    between atoms: C_24  and  O_28
REMARK    9  A    between atoms: O_28  and  C_29
REMARK   10  A    between atoms: O_30  and  C_31
REMARK   11  A    between atoms: N_32  and  C_33
REMARK   12  A    between atoms: N_32  and  C_34
REMARK                            x       y       z     vdW  Elec       q    Type
REMARK                         _______ _______ _______ _____ _____    ______ ____
ROOT
ATOM      1  C   UNL     1       1.207   1.817   0.000  0.00  0.00    +0.154 A 
ATOM      2  N   UNL     1      -0.017   1.397   0.010  0.00  0.00    -0.156 NA
ATOM      3  N   UNL     1       0.002  -0.004   0.002  0.00  0.00    -0.257 N 
ATOM      4  C   UNL     1       1.296  -0.388  -0.012  0.00  0.00    +0.181 A 
ATOM      5  S   UNL     1       1.874  -2.000  -0.026  0.00  0.00    -0.011 S 
ATOM      6  N   UNL     1       2.049   0.730  -0.014  0.00  0.00    -0.274 N 
ENDROOT
BRANCH   6   7
ATOM      7  C   UNL     1       3.450   0.776  -0.027  0.00  0.00    +0.050 A 
ATOM      8  C   UNL     1       4.138   1.306   1.056  0.00  0.00    +0.029 A 
ATOM      9  C   UNL     1       5.519   1.346   1.043  0.00  0.00    +0.040 A 
ATOM     10  C   UNL     1       6.216   0.867  -0.054  0.00  0.00    +0.124 A 
ATOM     11  C   UNL     1       5.531   0.343  -1.137  0.00  0.00    +0.040 A 
ATOM     12  C   UNL     1       4.151   0.297  -1.126  0.00  0.00    +0.029 A 
ATOM     13  F   UNL     1       7.566   0.912  -0.067  0.00  0.00    -0.205 F 
ENDBRANCH   6   7
BRANCH   1  15
ATOM     14  C   UNL     1       1.415   3.864  -1.385  0.00  0.00    +0.032 C 
ATOM     15  C   UNL     1       1.640   3.261   0.004  0.00  0.00    +0.122 C 
BRANCH  15  16
ATOM     16  N   UNL     1       0.852   4.006   0.994  0.00  0.00    -0.299 NA
ATOM     17  C   UNL     1       1.326   5.391   1.110  0.00  0.00    +0.105 C 
ATOM     18  C   UNL     1      -0.580   3.965   0.667  0.00  0.00    +0.105 C 
ENDBRANCH  15  16
ENDBRANCH   1  15
BRANCH   3  19
ATOM     19  C   UNL     1      -1.166  -0.888   0.008  0.00  0.00    +0.072 C 
BRANCH  19  20
ATOM     20  N   UNL     1      -1.569  -1.177  -1.374  0.00  0.00    +0.396 N 
ATOM     21  C   UNL     1      -2.860  -1.883  -1.411  0.00  0.00    -0.071 C 
ATOM     22  C   UNL     1      -3.402  -1.830  -2.840  0.00  0.00    +0.017 C 
ATOM     23  C   UNL     1      -2.339  -2.279  -3.810  0.00  0.00    -0.044 A 
ATOM     24  C   UNL     1      -2.727  -2.636  -5.093  0.00  0.00    +0.053 A 
ATOM     25  C   UNL     1      -1.785  -3.046  -6.020  0.00  0.00    +0.162 A 
ATOM     26  C   UNL     1      -0.441  -3.098  -5.660  0.00  0.00    +0.162 A 
ATOM     27  C   UNL     1      -0.060  -2.743  -4.378  0.00  0.00    +0.051 A 
ATOM     28  C   UNL     1      -1.009  -2.333  -3.451  0.00  0.00    -0.057 A 
ATOM     29  C   UNL     1      -0.543  -1.960  -2.068  0.00  0.00    -0.040 C 
ATOM     30  H   UNL     1      -1.681  -0.215  -1.896  0.00  0.00    -0.079 HD
BRANCH  26  31
ATOM     31  O   UNL     1       0.493  -3.498  -6.563  0.00  0.00    -0.491 OA
ATOM     32  C   UNL     1       1.852  -3.528  -6.122  0.00  0.00    +0.277 C 
ENDBRANCH  26  31
BRANCH  25  33
ATOM     33  O   UNL     1      -2.169  -3.395  -7.276  0.00  0.00    -0.491 OA
ATOM     34  C   UNL     1      -3.565  -3.316  -7.573  0.00  0.00    +0.277 C 
ENDBRANCH  25  33
ENDBRANCH  19  20
ENDBRANCH   3  19
TORSDOF 7
