REMARK  Name = ZINC20701281
REMARK  4 active torsions:
REMARK  status: ('A' for Active; 'I' for Inactive)
REMARK    1  A    between atoms: C_1  and  C_2
REMARK    2  A    between atoms: C_5  and  O_27
REMARK    3  A    between atoms: C_15  and  C_18
REMARK    4  A    between atoms: C_23  and  O_24
REMARK                            x       y       z     vdW  Elec       q    Type
REMARK                         _______ _______ _______ _____ _____    ______ ____
ROOT
ATOM      1  C   UNL     1      -5.041   0.932  -1.080  0.00  0.00    +0.044 C 
ATOM      2  C   UNL     1      -4.243   1.244   0.159  0.00  0.00    -0.045 A 
ATOM      3  C   UNL     1      -4.882   1.746   1.277  0.00  0.00    +0.007 A 
ATOM      4  C   UNL     1      -4.149   2.032   2.414  0.00  0.00    +0.047 A 
ATOM      5  C   UNL     1      -2.784   1.824   2.430  0.00  0.00    +0.138 A 
ATOM      6  C   UNL     1      -2.123   1.321   1.302  0.00  0.00    +0.074 A 
ATOM      7  C   UNL     1      -2.881   1.025   0.168  0.00  0.00    -0.013 A 
ATOM      8  C   UNL     1      -2.175   0.466  -1.006  0.00  0.00    +0.049 C 
ATOM      9  C   UNL     1      -2.644   0.678  -2.397  0.00  0.00    -0.023 C 
ATOM     10  C   UNL     1      -1.586   0.711  -3.200  0.00  0.00    -0.030 C 
ATOM     11  C   UNL     1      -0.304   0.556  -2.378  0.00  0.00    +0.033 C 
ATOM     12  C   UNL     1      -0.746   1.097  -1.015  0.00  0.00    +0.029 C 
ATOM     13  C   UNL     1      -0.077   0.540   0.224  0.00  0.00    +0.109 C 
ATOM     14  N   UNL     1      -0.740   1.151   1.387  0.00  0.00    -0.334 N 
ATOM     15  H   UNL     1      -0.148   1.448   2.265  0.00  0.00    +0.147 HD
ENDROOT
BRANCH  13  16
ATOM     16  C   UNL     1       1.387   0.897   0.222  0.00  0.00    +0.017 A 
ATOM     17  C   UNL     1       1.814   2.072   0.811  0.00  0.00    +0.029 A 
ATOM     18  C   UNL     1       3.157   2.400   0.809  0.00  0.00    +0.043 A 
ATOM     19  C   UNL     1       4.078   1.553   0.218  0.00  0.00    +0.043 A 
ATOM     20  C   UNL     1       3.656   0.376  -0.372  0.00  0.00    +0.084 A 
ATOM     21  C   UNL     1       2.308   0.043  -0.367  0.00  0.00    +0.140 A 
ATOM     22 CL   UNL     1       4.811  -0.687  -1.114  0.00  0.00    -0.080 Cl
ATOM     23 CL   UNL     1       3.690   3.877   1.549  0.00  0.00    -0.083 Cl
BRANCH  21  24
ATOM     24  O   UNL     1       1.891  -1.116  -0.942  0.00  0.00    -0.505 OA
ATOM     25  H   UNL     1       2.622  -1.792  -1.409  0.00  0.00    +0.292 HD
ENDBRANCH  21  24
ENDBRANCH  13  16
BRANCH   5  26
ATOM     26  O   UNL     1      -2.073   2.111   3.554  0.00  0.00    -0.505 OA
ATOM     27  H   UNL     1      -0.986   1.948   3.573  0.00  0.00    +0.292 HD
ENDBRANCH   5  26
TORSDOF 3
