REMARK  Name = ZINC47982865
REMARK  8 active torsions:
REMARK  status: ('A' for Active; 'I' for Inactive)
REMARK    1  A    between atoms: C_1  and  C_2
REMARK    2  A    between atoms: C_3  and  C_14
REMARK    3  A    between atoms: C_4  and  C_13
REMARK    4  A    between atoms: N_5  and  C_7
REMARK    5  A    between atoms: C_14  and  N_15
REMARK    6  A    between atoms: N_15  and  C_16
REMARK    7  A    between atoms: N_15  and  C_17
REMARK    8  A    between atoms: C_17  and  N_18
REMARK                            x       y       z     vdW  Elec       q    Type
REMARK                         _______ _______ _______ _____ _____    ______ ____
ROOT
ATOM      1  N   UNL     1       0.983  -0.024  -3.136  0.00  0.00    +0.394 N 
ATOM      2  C   UNL     1       1.554   1.128  -2.425  0.00  0.00    -0.093 C 
ATOM      3  H   UNL     1       1.605  -0.814  -3.051  0.00  0.00    -0.079 HD
ENDROOT
BRANCH   1   4
ATOM      4  C   UNL     1      -0.321  -0.363  -2.550  0.00  0.00    -0.037 C 
BRANCH   4   7
ATOM      5  C   UNL     1      -0.341   1.478   0.029  0.00  0.00    +0.068 C 
ATOM      6  C   UNL     1      -0.137  -0.015   0.010  0.00  0.00    +0.062 A 
ATOM      7  C   UNL     1      -0.128  -0.827  -1.129  0.00  0.00    -0.020 A 
ATOM      8  C   UNL     1       0.084  -2.102  -0.730  0.00  0.00    +0.043 A 
ATOM      9  N   UNL     1       0.205  -2.097   0.617  0.00  0.00    -0.237 N 
ATOM     10  N   UNL     1       0.067  -0.774   1.056  0.00  0.00    -0.171 NA
ATOM     11  C   UNL     1       0.170  -3.312  -1.625  0.00  0.00    +0.066 C 
BRANCH   9  12
ATOM     12  C   UNL     1       0.432  -3.217   1.429  0.00  0.00    +0.066 A 
ATOM     13  C   UNL     1       1.350  -4.183   1.041  0.00  0.00    +0.028 A 
ATOM     14  C   UNL     1       1.571  -5.285   1.843  0.00  0.00    +0.002 A 
ATOM     15  C   UNL     1       0.880  -5.427   3.032  0.00  0.00    +0.000 A 
ATOM     16  C   UNL     1      -0.035  -4.466   3.422  0.00  0.00    +0.002 A 
ATOM     17  C   UNL     1      -0.256  -3.359   2.627  0.00  0.00    +0.028 A 
ENDBRANCH   9  12
ENDBRANCH   4   7
ENDBRANCH   1   4
BRANCH   1  18
ATOM     18  C   UNL     1       0.809   0.313  -4.555  0.00  0.00    +0.072 C 
BRANCH  18  19
ATOM     19  N   UNL     1       2.121   0.535  -5.168  0.00  0.00    -0.258 N 
ATOM     20  C   UNL     1       2.658   1.728  -5.496  0.00  0.00    +0.176 A 
ATOM     21  S   UNL     1       1.971   3.263  -5.176  0.00  0.00    -0.011 S 
ATOM     22  N   UNL     1       3.831   1.498  -6.117  0.00  0.00    -0.307 N 
ATOM     23  C   UNL     1       4.066   0.122  -6.054  0.00  0.00    +0.132 A 
ATOM     24  N   UNL     1       3.053  -0.453  -5.518  0.00  0.00    -0.158 NA
ATOM     25  C   UNL     1       5.374  -0.485  -6.492  0.00  0.00    +0.076 C 
ATOM     26  C   UNL     1       6.458   0.244  -5.726  0.00  0.00    +0.008 C 
ATOM     27  C   UNL     1       7.057   1.429  -6.530  0.00  0.00    +0.002 C 
ATOM     28  C   UNL     1       5.941   1.925  -7.460  0.00  0.00    +0.022 C 
ATOM     29  C   UNL     1       4.703   2.388  -6.783  0.00  0.00    +0.125 C 
ENDBRANCH  18  19
ENDBRANCH   1  18
TORSDOF 5
