REMARK  Name = ZINC49186490
REMARK  9 active torsions:
REMARK  status: ('A' for Active; 'I' for Inactive)
REMARK    1  A    between atoms: C_1  and  C_2
REMARK    2  A    between atoms: C_5  and  C_7
REMARK    3  A    between atoms: C_7  and  C_9
REMARK    4  A    between atoms: C_7  and  N_10
REMARK    5  A    between atoms: N_10  and  S_11
REMARK    6  A    between atoms: S_11  and  C_14
REMARK    7  A    between atoms: C_18  and  C_20
REMARK    8  A    between atoms: C_20  and  C_22
REMARK    9  A    between atoms: C_20  and  N_23
REMARK                            x       y       z     vdW  Elec       q    Type
REMARK                         _______ _______ _______ _____ _____    ______ ____
ROOT
ATOM      1  S   UNL     1       2.490  -5.528   1.726  0.00  0.00    +0.059 S 
ATOM      2  O   UNL     1       3.692  -5.313   2.452  0.00  0.00    -0.153 OA
ATOM      3  O   UNL     1       1.265  -5.862   2.363  0.00  0.00    -0.153 OA
ENDROOT
BRANCH   1   4
ATOM      4  C   UNL     1       2.823  -6.814   0.569  0.00  0.00    +0.105 A 
ATOM      5  C   UNL     1       1.786  -7.580   0.069  0.00  0.00    +0.028 A 
ATOM      6  C   UNL     1       2.048  -8.589  -0.839  0.00  0.00    +0.002 A 
ATOM      7  C   UNL     1       3.346  -8.833  -1.246  0.00  0.00    +0.002 A 
ATOM      8  C   UNL     1       4.383  -8.068  -0.746  0.00  0.00    -0.060 A 
ATOM      9  C   UNL     1       4.121  -7.055   0.158  0.00  0.00    +0.030 A 
BRANCH   8  10
ATOM     10  C   UNL     1       5.798  -8.335  -1.189  0.00  0.00    -0.047 C 
ATOM     11  C   UNL     1       6.034  -7.691  -2.557  0.00  0.00    -0.009 C 
BRANCH  10  12
ATOM     12  N   UNL     1       6.016  -9.784  -1.285  0.00  0.00    +0.382 N 
ATOM     13  H   UNL     1       5.374 -10.177  -1.957  0.00  0.00    -0.089 HD
ATOM     14  H   UNL     1       6.964  -9.963  -1.582  0.00  0.00    -0.089 HD
ATOM     15  H   UNL     1       5.861 -10.208  -0.383  0.00  0.00    -0.089 HD
ENDBRANCH  10  12
ENDBRANCH   8  10
ENDBRANCH   1   4
BRANCH   1  16
ATOM     16  N   UNL     1       2.210  -4.147   0.855  0.00  0.00    -0.182 NA
ATOM     17  H   UNL     1       2.818  -3.395   0.929  0.00  0.00    +0.149 HD
BRANCH  16  18
ATOM     18  C   UNL     1       1.043  -4.062  -0.027  0.00  0.00    +0.110 C 
ATOM     19  C   UNL     1       1.452  -4.441  -1.452  0.00  0.00    +0.031 C 
BRANCH  18  24
ATOM     20  C   UNL     1      -0.018   1.503   0.010  0.00  0.00    +0.051 C 
ATOM     21  C   UNL     1       0.002  -0.004   0.002  0.00  0.00    -0.013 A 
ATOM     22  C   UNL     1      -1.039  -0.872   0.002  0.00  0.00    +0.011 A 
ATOM     23  C   UNL     1      -0.780  -2.230  -0.007  0.00  0.00    +0.013 A 
ATOM     24  C   UNL     1       0.507  -2.653  -0.016  0.00  0.00    +0.008 A 
ATOM     25  S   UNL     1       1.404  -1.109  -0.018  0.00  0.00    -0.097 S 
ENDBRANCH  18  24
ENDBRANCH  16  18
ENDBRANCH   1  16
TORSDOF 6
