REMARK  Name = ZINC38971744
REMARK  4 active torsions:
REMARK  status: ('A' for Active; 'I' for Inactive)
REMARK    1  A    between atoms: C_6  and  C_7
REMARK    2  A    between atoms: N_13  and  N_14
REMARK    3  A    between atoms: C_15  and  C_16
REMARK    4  A    between atoms: C_21  and  O_22
REMARK                            x       y       z     vdW  Elec       q    Type
REMARK                         _______ _______ _______ _____ _____    ______ ____
ROOT
ATOM      1  C   UNL     1      -1.306  -0.782   0.021  0.00  0.00    +0.264 C 
ATOM      2  N   UNL     1      -2.340  -0.051  -0.727  0.00  0.00    -0.189 NA
ATOM      3  N   UNL     1      -2.684  -0.748  -1.686  0.00  0.00    -0.219 N 
ATOM      4  C   UNL     1      -2.025  -1.935  -1.755  0.00  0.00    +0.174 C 
ATOM      5  S   UNL     1      -2.271  -3.124  -2.962  0.00  0.00    -0.015 S 
ATOM      6  N   UNL     1      -1.147  -2.042  -0.729  0.00  0.00    -0.172 N 
ATOM      7  H   UNL     1      -3.359  -0.475  -2.327  0.00  0.00    +0.176 HD
ENDROOT
BRANCH   1  13
ATOM      8  C   UNL     1      -0.037   1.375   0.051  0.00  0.00    +0.010 A 
ATOM      9  C   UNL     1       1.147   2.087   0.061  0.00  0.00    +0.039 A 
ATOM     10  C   UNL     1       2.358   1.415   0.051  0.00  0.00    +0.123 A 
ATOM     11  C   UNL     1       2.381   0.031   0.032  0.00  0.00    +0.039 A 
ATOM     12  C   UNL     1       1.195  -0.679   0.022  0.00  0.00    +0.010 A 
ATOM     13  C   UNL     1      -0.013  -0.007   0.031  0.00  0.00    -0.002 A 
ATOM     14  F   UNL     1       3.517   2.111   0.060  0.00  0.00    -0.205 F 
ENDBRANCH   1  13
BRANCH   6  15
ATOM     15  N   UNL     1      -0.283  -3.107  -0.443  0.00  0.00    -0.183 NA
ATOM     16  C   UNL     1      -0.345  -4.200  -1.143  0.00  0.00    +0.142 C 
BRANCH  16  17
ATOM     17  C   UNL     1       0.484  -5.360  -0.772  0.00  0.00    +0.038 A 
ATOM     18  C   UNL     1       0.424  -6.535  -1.526  0.00  0.00    +0.028 A 
ATOM     19  C   UNL     1       1.204  -7.618  -1.174  0.00  0.00    +0.020 A 
ATOM     20  C   UNL     1       2.046  -7.545  -0.077  0.00  0.00    +0.034 A 
ATOM     21  C   UNL     1       2.114  -6.388   0.677  0.00  0.00    +0.061 A 
ATOM     22  C   UNL     1       1.342  -5.289   0.334  0.00  0.00    +0.139 A 
ATOM     23 BR   UNL     1       3.267  -6.301   2.173  0.00  0.00    -0.046 Br
ATOM     24 BR   UNL     1       1.122  -9.208  -2.194  0.00  0.00    -0.050 Br
BRANCH  22  25
ATOM     25  O   UNL     1       1.412  -4.149   1.070  0.00  0.00    -0.505 OA
ATOM     26  H   UNL     1       0.784  -4.116   1.804  0.00  0.00    +0.292 HD
ENDBRANCH  22  25
ENDBRANCH  16  17
ENDBRANCH   6  15
TORSDOF 4
