REMARK  Name = ZINC11817131
REMARK  7 active torsions:
REMARK  status: ('A' for Active; 'I' for Inactive)
REMARK    1  A    between atoms: C_1  and  C_2
REMARK    2  A    between atoms: C_3  and  C_13
REMARK    3  A    between atoms: N_6  and  C_7
REMARK    4  A    between atoms: C_13  and  C_15
REMARK    5  A    between atoms: C_13  and  N_57
REMARK    6  A    between atoms: C_16  and  N_57
REMARK    7  A    between atoms: N_19  and  C_22
REMARK                            x       y       z     vdW  Elec       q    Type
REMARK                         _______ _______ _______ _____ _____    ______ ____
ROOT
ATOM      1  N   UNL     1       0.447   5.522  -0.745  0.00  0.00    +0.385 N 
ATOM      2  H   UNL     1      -0.410   5.781  -0.241  0.00  0.00    -0.085 HD
ATOM      3  H   UNL     1       1.265   5.872  -0.231  0.00  0.00    -0.085 HD
ENDROOT
BRANCH   1   4
ATOM      4  C   UNL     1       0.527   4.053  -0.845  0.00  0.00    -0.068 C 
ATOM      5  C   UNL     1       1.992   3.628  -0.981  0.00  0.00    +0.003 C 
ATOM      6  C   UNL     1       2.073   2.100  -1.016  0.00  0.00    +0.103 C 
ATOM      7  N   UNL     1       1.498   1.550   0.218  0.00  0.00    -0.330 N 
ATOM      8  C   UNL     1       0.079   1.905   0.346  0.00  0.00    +0.103 C 
ATOM      9  C   UNL     1      -0.062   3.427   0.422  0.00  0.00    +0.003 C 
BRANCH   7  10
ATOM     10  C   UNL     1       1.674   0.163   0.279  0.00  0.00    +0.033 A 
ATOM     11  C   UNL     1       2.321  -0.501  -0.756  0.00  0.00    +0.027 A 
ATOM     12  C   UNL     1       2.501  -1.869  -0.695  0.00  0.00    +0.051 A 
ATOM     13  C   UNL     1       2.028  -2.585   0.393  0.00  0.00    +0.166 A 
ATOM     14  C   UNL     1       1.374  -1.923   1.430  0.00  0.00    +0.168 A 
ATOM     15  C   UNL     1       1.199  -0.550   1.370  0.00  0.00    +0.072 A 
ATOM     16  O   UNL     1       1.010  -2.841   2.372  0.00  0.00    -0.453 OA
ATOM     17  C   UNL     1       1.083  -4.119   1.714  0.00  0.00    +0.466 C 
ATOM     18  O   UNL     1       2.073  -3.918   0.687  0.00  0.00    -0.453 OA
ENDBRANCH   7  10
ENDBRANCH   1   4
BRANCH   1  19
ATOM     19  C   UNL     1       0.423   6.127  -2.090  0.00  0.00    -0.040 C 
ATOM     20  C   UNL     1      -1.015   6.150  -2.614  0.00  0.00    -0.009 C 
BRANCH  19  23
ATOM     21  C   UNL     1       1.543   7.815  -4.474  0.00  0.00    +0.066 C 
ATOM     22  C   UNL     1       1.435   8.266  -3.040  0.00  0.00    +0.043 A 
ATOM     23  C   UNL     1       0.951   7.536  -2.009  0.00  0.00    -0.021 A 
ATOM     24  C   UNL     1       1.032   8.319  -0.852  0.00  0.00    +0.137 A 
ATOM     25  N   UNL     1       1.542   9.480  -1.177  0.00  0.00    -0.174 NA
ATOM     26  N   UNL     1       1.803   9.473  -2.554  0.00  0.00    -0.237 N 
BRANCH  26  27
ATOM     27  C   UNL     1       2.352  10.528  -3.295  0.00  0.00    +0.066 A 
ATOM     28  C   UNL     1       3.397  11.276  -2.770  0.00  0.00    +0.028 A 
ATOM     29  C   UNL     1       3.940  12.312  -3.504  0.00  0.00    +0.002 A 
ATOM     30  C   UNL     1       3.436  12.612  -4.756  0.00  0.00    +0.000 A 
ATOM     31  C   UNL     1       2.391  11.873  -5.280  0.00  0.00    +0.002 A 
ATOM     32  C   UNL     1       1.848  10.832  -4.552  0.00  0.00    +0.028 A 
ENDBRANCH  26  27
ENDBRANCH  19  23
ENDBRANCH   1  19
TORSDOF 5
