REMARK  Name = ZINC20284463
REMARK  12 active torsions:
REMARK  status: ('A' for Active; 'I' for Inactive)
REMARK    1  A    between atoms: C_1  and  C_2
REMARK    2  A    between atoms: C_2  and  C_3
REMARK    3  A    between atoms: C_2  and  C_4
REMARK    4  A    between atoms: C_4  and  C_5
REMARK    5  A    between atoms: C_5  and  C_7
REMARK    6  A    between atoms: C_5  and  N_23
REMARK    7  A    between atoms: N_9  and  C_10
REMARK    8  A    between atoms: C_10  and  C_11
REMARK    9  A    between atoms: C_10  and  C_17
REMARK   10  A    between atoms: N_23  and  S_24
REMARK   11  A    between atoms: S_24  and  C_27
REMARK   12  A    between atoms: N_36  and  C_37
REMARK                            x       y       z     vdW  Elec       q    Type
REMARK                         _______ _______ _______ _____ _____    ______ ____
ROOT
ATOM      1  C   UNL     1      -0.220   0.024  -0.318  0.00  0.00    +0.162 C 
ENDROOT
BRANCH   1   2
ATOM      2  C   UNL     1      -1.496  -0.407  -0.995  0.00  0.00    +0.232 C 
ATOM      3  O   UNL     1      -2.302   0.425  -1.355  0.00  0.00    -0.274 OA
ATOM      4  N   UNL     1      -1.742  -1.716  -1.199  0.00  0.00    -0.303 N 
ATOM      5  H   UNL     1      -1.012  -2.470  -0.872  0.00  0.00    +0.150 HD
BRANCH   4   6
ATOM      6  C   UNL     1      -2.983  -2.134  -1.856  0.00  0.00    +0.134 C 
BRANCH   6   7
ATOM      7  C   UNL     1      -2.778  -3.478  -2.508  0.00  0.00    -0.023 A 
ATOM      8  C   UNL     1      -2.037  -4.452  -1.865  0.00  0.00    +0.006 A 
ATOM      9  C   UNL     1      -1.853  -5.686  -2.461  0.00  0.00    +0.000 A 
ATOM     10  C   UNL     1      -2.401  -5.942  -3.703  0.00  0.00    +0.000 A 
ATOM     11  C   UNL     1      -3.138  -4.966  -4.349  0.00  0.00    +0.000 A 
ATOM     12  C   UNL     1      -3.326  -3.734  -3.751  0.00  0.00    +0.006 A 
ENDBRANCH   6   7
BRANCH   6  13
ATOM     13  C   UNL     1      -4.084  -2.235  -0.833  0.00  0.00    -0.023 A 
ATOM     14  C   UNL     1      -3.821  -2.768   0.415  0.00  0.00    +0.006 A 
ATOM     15  C   UNL     1      -4.830  -2.856   1.356  0.00  0.00    +0.000 A 
ATOM     16  C   UNL     1      -6.105  -2.421   1.045  0.00  0.00    +0.000 A 
ATOM     17  C   UNL     1      -6.370  -1.894  -0.205  0.00  0.00    +0.000 A 
ATOM     18  C   UNL     1      -5.359  -1.801  -1.144  0.00  0.00    +0.006 A 
ENDBRANCH   6  13
ENDBRANCH   4   6
ENDBRANCH   1   2
BRANCH   1  19
ATOM     19  N   UNL     1      -0.191   1.485  -0.215  0.00  0.00    -0.178 NA
ATOM     20  H   UNL     1      -1.117   2.040  -0.008  0.00  0.00    +0.149 HD
BRANCH  19  21
ATOM     21  S   UNL     1       1.172   2.318  -0.651  0.00  0.00    +0.059 S 
ATOM     22  O   UNL     1       0.849   3.699  -0.564  0.00  0.00    -0.153 OA
ATOM     23  O   UNL     1       2.250   1.741   0.072  0.00  0.00    -0.153 OA
BRANCH  21  24
ATOM     24  C   UNL     1       1.469   1.978  -2.354  0.00  0.00    +0.109 A 
ATOM     25  C   UNL     1       2.265   0.904  -2.713  0.00  0.00    +0.031 A 
ATOM     26  C   UNL     1       2.498   0.627  -4.046  0.00  0.00    +0.031 A 
ATOM     27  C   UNL     1       1.941   1.435  -5.026  0.00  0.00    +0.090 A 
ATOM     28  C   UNL     1       1.143   2.520  -4.665  0.00  0.00    +0.159 A 
ATOM     29  C   UNL     1       0.910   2.787  -3.325  0.00  0.00    +0.077 A 
ATOM     30  O   UNL     1       0.741   3.122  -5.811  0.00  0.00    -0.407 OA
ATOM     31  C   UNL     1       1.252   2.460  -6.860  0.00  0.00    +0.421 A 
ATOM     32  O   UNL     1       1.075   2.750  -8.027  0.00  0.00    -0.223 OA
ATOM     33  N   UNL     1       1.991   1.423  -6.419  0.00  0.00    -0.277 N 
ATOM     34  C   UNL     1       2.715   0.459  -7.252  0.00  0.00    +0.156 C 
ENDBRANCH  21  24
ENDBRANCH  19  21
ENDBRANCH   1  19
BRANCH   1  35
ATOM     35  C   UNL     1      -0.154  -0.588   1.082  0.00  0.00    +0.032 C 
BRANCH  35  37
ATOM     36  C   UNL     1       1.215  -0.748   3.166  0.00  0.00    +0.007 C 
ATOM     37  C   UNL     1       1.207  -0.280   1.710  0.00  0.00    -0.015 C 
ATOM     38  C   UNL     1       2.304  -1.010   0.933  0.00  0.00    +0.007 C 
ENDBRANCH  35  37
ENDBRANCH   1  35
TORSDOF 9
