REMARK  Name = ZINC59310035
REMARK  5 active torsions:
REMARK  status: ('A' for Active; 'I' for Inactive)
REMARK    1  A    between atoms: C_14  and  C_15
REMARK    2  A    between atoms: N_16  and  N_17
REMARK    3  A    between atoms: C_20  and  S_23
REMARK    4  A    between atoms: S_23  and  C_24
REMARK    5  A    between atoms: C_24  and  C_25
REMARK                            x       y       z     vdW  Elec       q    Type
REMARK                         _______ _______ _______ _____ _____    ______ ____
ROOT
ATOM      1  C   UNL     1       4.965   0.238  -0.046  0.00  0.00    +0.139 C 
ATOM      2  N   UNL     1       4.915   1.536  -0.136  0.00  0.00    -0.188 NA
ENDROOT
BRANCH   1  16
ATOM      3  C   UNL     1      -0.016   1.354   0.056  0.00  0.00    +0.001 A 
ATOM      4  C   UNL     1       1.161   2.101   0.049  0.00  0.00    +0.001 A 
ATOM      5  C   UNL     1       2.384   1.507   0.019  0.00  0.00    +0.009 A 
ATOM      6  C   UNL     1       2.474   0.104  -0.006  0.00  0.00    -0.009 A 
ATOM      7  C   UNL     1       1.239  -0.684   0.002  0.00  0.00    -0.017 A 
ATOM      8  C   UNL     1       0.003  -0.004   0.034  0.00  0.00    +0.008 A 
ATOM      9  C   UNL     1       1.294  -2.078  -0.021  0.00  0.00    +0.017 A 
ATOM     10  C   UNL     1       2.528  -2.727  -0.053  0.00  0.00    -0.017 A 
ATOM     11  C   UNL     1       2.608  -4.136  -0.078  0.00  0.00    +0.008 A 
ATOM     12  C   UNL     1       3.825  -4.738  -0.109  0.00  0.00    +0.001 A 
ATOM     13  C   UNL     1       5.007  -3.998  -0.116  0.00  0.00    +0.001 A 
ATOM     14  C   UNL     1       4.998  -2.639  -0.093  0.00  0.00    +0.009 A 
ATOM     15  C   UNL     1       3.771  -1.953  -0.061  0.00  0.00    -0.009 A 
ATOM     16  C   UNL     1       3.726  -0.544  -0.038  0.00  0.00    +0.010 A 
ENDBRANCH   1  16
BRANCH   2  17
ATOM     17  N   UNL     1       6.100   2.284  -0.144  0.00  0.00    -0.205 N 
ATOM     18  C   UNL     1       6.048   3.662  -0.239  0.00  0.00    +0.232 A 
ATOM     19  N   UNL     1       4.955   4.391  -0.323  0.00  0.00    -0.186 NA
ATOM     20  C   UNL     1       5.282   5.685  -0.401  0.00  0.00    +0.211 A 
ATOM     21  N   UNL     1       6.588   5.797  -0.367  0.00  0.00    -0.144 NA
ATOM     22  N   UNL     1       7.108   4.497  -0.258  0.00  0.00    -0.245 N 
ATOM     23  H   UNL     1       6.958   1.834  -0.082  0.00  0.00    +0.177 HD
ATOM     24  H   UNL     1       8.044   4.249  -0.206  0.00  0.00    +0.192 HD
BRANCH  20  25
ATOM     25  S   UNL     1       4.142   7.023  -0.528  0.00  0.00    -0.075 S 
BRANCH  25  26
ATOM     26  C   UNL     1       5.200   8.495  -0.594  0.00  0.00    +0.172 C 
BRANCH  26  27
ATOM     27  C   UNL     1       4.339   9.727  -0.705  0.00  0.00    +0.221 C 
ATOM     28  O   UNL     1       3.131   9.623  -0.737  0.00  0.00    -0.275 OA
ATOM     29  N   UNL     1       4.912  10.946  -0.770  0.00  0.00    -0.329 N 
ATOM     30  H   UNL     1       5.878  11.029  -0.745  0.00  0.00    +0.145 HD
ATOM     31  H   UNL     1       4.358  11.739  -0.841  0.00  0.00    +0.145 HD
ENDBRANCH  26  27
ENDBRANCH  25  26
ENDBRANCH  20  25
ENDBRANCH   2  17
TORSDOF 5
