REMARK  Name = ZINC13533904
REMARK  7 active torsions:
REMARK  status: ('A' for Active; 'I' for Inactive)
REMARK    1  A    between atoms: C_1  and  C_2
REMARK    2  A    between atoms: C_2  and  C_3
REMARK    3  A    between atoms: C_3  and  C_4
REMARK    4  A    between atoms: C_4  and  N_5
REMARK    5  A    between atoms: C_6  and  C_11
REMARK    6  A    between atoms: C_9  and  S_10
REMARK    7  A    between atoms: C_14  and  O_17
REMARK                            x       y       z     vdW  Elec       q    Type
REMARK                         _______ _______ _______ _____ _____    ______ ____
ROOT
ATOM      1  N   UNL     1      -1.093   2.161   0.035  0.00  0.00    -0.302 N 
ATOM      2  C   UNL     1       0.104   1.482   0.029  0.00  0.00    +0.165 A 
ATOM      3  N   UNL     1       1.058   2.384   0.001  0.00  0.00    -0.128 NA
ATOM      4  N   UNL     1       0.547   3.563  -0.007  0.00  0.00    -0.122 NA
ATOM      5  C   UNL     1      -0.764   3.487   0.016  0.00  0.00    +0.189 A 
ENDROOT
BRANCH   2   6
ATOM      6  C   UNL     1       0.283   0.015   0.045  0.00  0.00    +0.020 A 
ATOM      7  C   UNL     1       1.490  -0.548  -0.372  0.00  0.00    +0.015 A 
ATOM      8  C   UNL     1       1.655  -1.916  -0.349  0.00  0.00    +0.046 A 
ATOM      9  C   UNL     1       0.617  -2.735   0.076  0.00  0.00    +0.117 A 
ATOM     10  C   UNL     1      -0.588  -2.180   0.485  0.00  0.00    +0.046 A 
ATOM     11  C   UNL     1      -0.758  -0.812   0.471  0.00  0.00    +0.015 A 
BRANCH   9  12
ATOM     12  O   UNL     1       0.781  -4.084   0.091  0.00  0.00    -0.507 OA
ATOM     13  H   UNL     1       0.526  -4.521  -0.734  0.00  0.00    +0.292 HD
ENDBRANCH   9  12
ENDBRANCH   2   6
BRANCH   5  14
ATOM     14  S   UNL     1      -1.890   4.842   0.016  0.00  0.00    -0.103 S 
ATOM     15  H   UNL     1      -2.070   5.011  -1.372  0.00  0.00    +0.110 HD
ENDBRANCH   5  14
BRANCH   1  16
ATOM     16  C   UNL     1      -2.438   1.582   0.058  0.00  0.00    +0.126 C 
BRANCH  16  17
ATOM     17  C   UNL     1      -2.934   1.503   1.503  0.00  0.00    +0.021 C 
BRANCH  17  19
ATOM     18  C   UNL     1      -4.836   0.819   2.973  0.00  0.00    +0.004 C 
ATOM     19  C   UNL     1      -4.340   0.898   1.528  0.00  0.00    -0.002 C 
ENDBRANCH  17  19
ENDBRANCH  16  17
ENDBRANCH   1  16
TORSDOF 6
