REMARK  Name = ZINC40827449
REMARK  4 active torsions:
REMARK  status: ('A' for Active; 'I' for Inactive)
REMARK    1  A    between atoms: C_3  and  N_8
REMARK    2  A    between atoms: C_12  and  N_16
REMARK    3  A    between atoms: N_16  and  C_17
REMARK    4  A    between atoms: N_16  and  C_23
REMARK                            x       y       z     vdW  Elec       q    Type
REMARK                         _______ _______ _______ _____ _____    ______ ____
ROOT
ATOM      1  N   UNL     1       5.848   4.381  -1.484  0.00  0.00    -0.212 N 
ATOM      2  C   UNL     1       6.690   3.581  -2.150  0.00  0.00    +0.225 C 
ATOM      3  O   UNL     1       7.200   3.834  -3.220  0.00  0.00    -0.275 OA
ATOM      4  C   UNL     1       6.903   2.311  -1.355  0.00  0.00    +0.091 C 
ATOM      5  C   UNL     1       6.029   2.519  -0.101  0.00  0.00    +0.030 C 
ATOM      6  C   UNL     1       5.419   3.887  -0.317  0.00  0.00    +0.213 C 
ATOM      7  O   UNL     1       4.659   4.445   0.446  0.00  0.00    -0.277 OA
ENDROOT
BRANCH   1  10
ATOM      8  C   UNL     1       6.015   7.773  -2.902  0.00  0.00    +0.003 A 
ATOM      9  C   UNL     1       6.406   6.536  -2.426  0.00  0.00    +0.024 A 
ATOM     10  C   UNL     1       5.454   5.637  -1.967  0.00  0.00    +0.045 A 
ATOM     11  C   UNL     1       4.109   5.983  -1.987  0.00  0.00    +0.044 A 
ATOM     12  C   UNL     1       3.723   7.222  -2.464  0.00  0.00    +0.043 A 
ATOM     13  C   UNL     1       4.676   8.116  -2.921  0.00  0.00    +0.020 A 
ATOM     14 CL   UNL     1       2.043   7.656  -2.490  0.00  0.00    -0.083 Cl
ENDBRANCH   1  10
BRANCH   5  15
ATOM     15  N   UNL     1       6.857   2.510   1.113  0.00  0.00    +0.391 N 
ATOM     16  H   UNL     1       6.262   2.564   1.926  0.00  0.00    -0.080 HD
BRANCH  15  17
ATOM     17  C   UNL     1       7.640   1.268   1.162  0.00  0.00    -0.067 C 
ATOM     18  C   UNL     1       6.701   0.067   1.036  0.00  0.00    -0.015 C 
ATOM     19  C   UNL     1       7.517  -1.226   1.087  0.00  0.00    -0.002 C 
ATOM     20  C   UNL     1       8.268  -1.304   2.417  0.00  0.00    -0.000 C 
ATOM     21  C   UNL     1       9.208  -0.102   2.543  0.00  0.00    -0.002 C 
ATOM     22  C   UNL     1       8.392   1.191   2.492  0.00  0.00    -0.015 C 
ENDBRANCH  15  17
BRANCH  15  23
ATOM     23  C   UNL     1       7.767   3.662   1.095  0.00  0.00    -0.067 C 
ATOM     24  C   UNL     1       6.957   4.953   1.232  0.00  0.00    -0.015 C 
ATOM     25  C   UNL     1       7.905   6.154   1.213  0.00  0.00    -0.002 C 
ATOM     26  C   UNL     1       8.677   6.174  -0.108  0.00  0.00    -0.000 C 
ATOM     27  C   UNL     1       9.486   4.883  -0.246  0.00  0.00    -0.002 C 
ATOM     28  C   UNL     1       8.538   3.682  -0.227  0.00  0.00    -0.015 C 
ENDBRANCH  15  23
ENDBRANCH   5  15
TORSDOF 4
