REMARK  Name = ZINC09970323
REMARK  11 active torsions:
REMARK  status: ('A' for Active; 'I' for Inactive)
REMARK    1  A    between atoms: C_1  and  C_2
REMARK    2  A    between atoms: C_2  and  C_27
REMARK    3  A    between atoms: C_3  and  C_25
REMARK    4  A    between atoms: C_3  and  O_26
REMARK    5  A    between atoms: C_4  and  C_23
REMARK    6  A    between atoms: C_4  and  O_24
REMARK    7  A    between atoms: C_5  and  C_21
REMARK    8  A    between atoms: C_5  and  O_22
REMARK    9  A    between atoms: C_6  and  C_8
REMARK   10  A    between atoms: C_6  and  O_9
REMARK   11  A    between atoms: O_9  and  C_10
REMARK                            x       y       z     vdW  Elec       q    Type
REMARK                         _______ _______ _______ _____ _____    ______ ____
ROOT
ATOM      1  C   UNL     1       0.354  -1.235   1.222  0.00  0.00    +0.044 C 
ATOM      2  C   UNL     1       0.014  -0.622  -0.138  0.00  0.00    +0.099 C 
ATOM      3  C   UNL     1      -0.351   0.852   0.025  0.00  0.00    +0.123 C 
ATOM      4  C   UNL     1       0.877   1.741   0.155  0.00  0.00    +0.129 C 
ATOM      5  C   UNL     1       1.919   1.468  -0.920  0.00  0.00    +0.159 C 
ATOM      6  C   UNL     1       2.208  -0.018  -1.097  0.00  0.00    +0.242 C 
ATOM      7  O   UNL     1       1.047  -0.815  -1.078  0.00  0.00    -0.328 OA
ATOM      8  C   UNL     1       3.233  -0.480  -0.057  0.00  0.00    +0.092 C 
ATOM      9  C   UNL     1       1.465   2.063  -2.259  0.00  0.00    +0.051 C 
ATOM     10  C   UNL     1       0.427   3.211   0.032  0.00  0.00    +0.047 C 
ATOM     11  C   UNL     1      -1.204   1.002   1.298  0.00  0.00    +0.047 C 
ATOM     12  C   UNL     1      -1.244  -1.352  -0.664  0.00  0.00    +0.044 C 
ENDROOT
BRANCH   5  13
ATOM     13  O   UNL     1       3.144   2.123  -0.543  0.00  0.00    -0.379 OA
ATOM     14  H   UNL     1       3.854   2.035  -1.194  0.00  0.00    +0.211 HD
ENDBRANCH   5  13
BRANCH   4  15
ATOM     15  O   UNL     1       1.464   1.578   1.453  0.00  0.00    -0.383 OA
ATOM     16  H   UNL     1       2.252   2.119   1.599  0.00  0.00    +0.210 HD
ENDBRANCH   4  15
BRANCH   3  17
ATOM     17  O   UNL     1      -1.149   1.268  -1.090  0.00  0.00    -0.383 OA
ATOM     18  H   UNL     1      -1.976   0.777  -1.187  0.00  0.00    +0.210 HD
ENDBRANCH   3  17
BRANCH   6  19
ATOM     19  O   UNL     1       2.828  -0.181  -2.396  0.00  0.00    -0.458 OA
BRANCH  19  20
ATOM     20  C   UNL     1       3.101  -1.452  -2.794  0.00  0.00    +0.125 A 
ATOM     21  C   UNL     1       2.700  -2.527  -1.995  0.00  0.00    +0.046 A 
ATOM     22  C   UNL     1       2.953  -3.809  -2.369  0.00  0.00    +0.012 A 
ATOM     23  C   UNL     1       3.639  -4.062  -3.570  0.00  0.00    -0.018 A 
ATOM     24  C   UNL     1       3.922  -5.375  -3.984  0.00  0.00    +0.009 A 
ATOM     25  C   UNL     1       4.588  -5.584  -5.152  0.00  0.00    +0.016 A 
ATOM     26  C   UNL     1       4.995  -4.514  -5.949  0.00  0.00    +0.018 A 
ATOM     27  C   UNL     1       4.738  -3.228  -5.579  0.00  0.00    +0.024 A 
ATOM     28  C   UNL     1       4.052  -2.974  -4.379  0.00  0.00    -0.013 A 
ATOM     29  C   UNL     1       3.769  -1.661  -3.966  0.00  0.00    +0.054 A 
ATOM     30 BR   UNL     1       5.917  -4.852  -7.564  0.00  0.00    -0.050 Br
ENDBRANCH  19  20
ENDBRANCH   6  19
TORSDOF 5
