REMARK  Name = ZINC20688781
REMARK  7 active torsions:
REMARK  status: ('A' for Active; 'I' for Inactive)
REMARK    1  A    between atoms: C_1  and  C_2
REMARK    2  A    between atoms: C_2  and  N_3
REMARK    3  A    between atoms: N_3  and  C_4
REMARK    4  A    between atoms: N_3  and  S_10
REMARK    5  A    between atoms: S_10  and  C_13
REMARK    6  A    between atoms: C_26  and  C_29
REMARK    7  A    between atoms: C_32  and  C_34
REMARK                            x       y       z     vdW  Elec       q    Type
REMARK                         _______ _______ _______ _____ _____    ______ ____
ROOT
ATOM      1  C   UNL     1      -2.730   1.437  -0.959  0.00  0.00    +0.109 A 
ATOM      2  C   UNL     1      -1.403   1.371  -1.342  0.00  0.00    +0.030 A 
ATOM      3  C   UNL     1      -0.861   2.383  -2.108  0.00  0.00    +0.025 A 
ATOM      4  C   UNL     1      -1.645   3.465  -2.487  0.00  0.00    +0.031 A 
ATOM      5  C   UNL     1      -2.975   3.538  -2.102  0.00  0.00    -0.018 A 
ATOM      6  C   UNL     1      -3.509   2.514  -1.331  0.00  0.00    +0.034 A 
ATOM      7  C   UNL     1      -3.859   4.681  -2.488  0.00  0.00    +0.049 C 
ATOM      8  C   UNL     1      -4.102   5.610  -1.322  0.00  0.00    -0.023 C 
ATOM      9  C   UNL     1      -4.156   6.853  -1.736  0.00  0.00    -0.030 C 
ATOM     10  C   UNL     1      -3.962   6.921  -3.238  0.00  0.00    +0.033 C 
ATOM     11  C   UNL     1      -3.236   5.585  -3.570  0.00  0.00    +0.029 C 
ATOM     12  C   UNL     1      -1.746   5.792  -3.282  0.00  0.00    +0.111 C 
ATOM     13  N   UNL     1      -1.080   4.486  -3.260  0.00  0.00    -0.336 N 
ATOM     14  H   UNL     1      -0.160   4.327  -3.841  0.00  0.00    +0.147 HD
ENDROOT
BRANCH  12  15
ATOM     15  C   UNL     1      -1.579   6.469  -1.946  0.00  0.00    +0.010 A 
ATOM     16  C   UNL     1      -1.343   7.776  -1.675  0.00  0.00    +0.013 A 
ATOM     17  C   UNL     1      -1.225   8.177  -0.358  0.00  0.00    +0.011 A 
ATOM     18  C   UNL     1      -1.350   7.251   0.625  0.00  0.00    -0.013 A 
ATOM     19  S   UNL     1      -1.650   5.760  -0.309  0.00  0.00    -0.097 S 
ATOM     20  C   UNL     1      -1.264   7.435   2.118  0.00  0.00    +0.051 C 
ENDBRANCH  12  15
BRANCH   1  21
ATOM     21  S   UNL     1      -3.428   0.144   0.013  0.00  0.00    +0.075 S 
ATOM     22  O   UNL     1      -4.839   0.253  -0.119  0.00  0.00    -0.150 OA
ATOM     23  O   UNL     1      -2.721  -1.043  -0.321  0.00  0.00    -0.150 OA
BRANCH  21  24
ATOM     24  N   UNL     1      -3.074   0.476   1.596  0.00  0.00    -0.203 N 
BRANCH  24  25
ATOM     25  C   UNL     1      -3.920   1.299   2.343  0.00  0.00    +0.051 A 
ATOM     26  C   UNL     1      -4.139   2.613   1.949  0.00  0.00    +0.025 A 
ATOM     27  C   UNL     1      -4.980   3.423   2.688  0.00  0.00    +0.002 A 
ATOM     28  C   UNL     1      -5.596   2.929   3.823  0.00  0.00    +0.000 A 
ATOM     29  C   UNL     1      -5.376   1.623   4.221  0.00  0.00    +0.002 A 
ATOM     30  C   UNL     1      -4.540   0.807   3.484  0.00  0.00    +0.025 A 
ENDBRANCH  24  25
BRANCH  24  32
ATOM     31  C   UNL     1      -0.728   0.916   2.126  0.00  0.00    +0.026 C 
ATOM     32  C   UNL     1      -1.874  -0.093   2.213  0.00  0.00    +0.128 C 
ENDBRANCH  24  32
ENDBRANCH  21  24
ENDBRANCH   1  21
TORSDOF 5
