REMARK  Name = ZINC51476689
REMARK  6 active torsions:
REMARK  status: ('A' for Active; 'I' for Inactive)
REMARK    1  A    between atoms: N_12  and  C_13
REMARK    2  A    between atoms: C_13  and  C_14
REMARK    3  A    between atoms: N_16  and  C_17
REMARK    4  A    between atoms: C_17  and  C_18
REMARK    5  A    between atoms: N_22  and  C_24
REMARK    6  A    between atoms: C_24  and  C_25
REMARK                            x       y       z     vdW  Elec       q    Type
REMARK                         _______ _______ _______ _____ _____    ______ ____
ROOT
ATOM      1  C   UNL     1       4.931  -0.298   3.724  0.00  0.00    +0.196 C 
ATOM      2  O   UNL     1       4.353  -0.993   4.532  0.00  0.00    -0.278 OA
ATOM      3  N   UNL     1       6.190   0.115   3.970  0.00  0.00    -0.317 N 
ATOM      4  H   UNL     1       6.653   0.671   3.323  0.00  0.00    +0.149 HD
ENDROOT
BRANCH   1   5
ATOM      5  C   UNL     1       4.242   0.103   2.445  0.00  0.00    +0.019 C 
BRANCH   5  15
ATOM      6  C   UNL     1      -0.019   1.526   0.010  0.00  0.00    +0.000 C 
ATOM      7  C   UNL     1       1.417   2.055  -0.000  0.00  0.00    -0.002 C 
ATOM      8  C   UNL     1       2.157   1.548   1.239  0.00  0.00    -0.015 C 
ATOM      9  C   UNL     1       2.178   0.018   1.230  0.00  0.00    -0.065 C 
ATOM     10  C   UNL     1       0.742  -0.511   1.242  0.00  0.00    -0.025 C 
ATOM     11  C   UNL     1       0.002  -0.004   0.002  0.00  0.00    +0.002 C 
ATOM     12  C   UNL     1       0.768  -2.042   1.229  0.00  0.00    +0.000 C 
ATOM     13  C   UNL     1       1.579  -2.539   2.429  0.00  0.00    -0.018 C 
ATOM     14  C   UNL     1       2.984  -1.934   2.374  0.00  0.00    -0.078 C 
ATOM     15  N   UNL     1       2.890  -0.470   2.417  0.00  0.00    +0.387 N 
ATOM     16  H   UNL     1       2.390  -0.188   3.247  0.00  0.00    -0.081 HD
ENDBRANCH   5  15
ENDBRANCH   1   5
BRANCH   3  17
ATOM     17  C   UNL     1       6.860  -0.275   5.213  0.00  0.00    +0.105 C 
BRANCH  17  18
ATOM     18  C   UNL     1       8.269   0.322   5.242  0.00  0.00    -0.012 C 
ATOM     19  C   UNL     1       9.183  -0.361   4.191  0.00  0.00    -0.016 C 
ATOM     20  C   UNL     1      10.595  -0.175   4.786  0.00  0.00    -0.078 C 
ATOM     21  N   UNL     1      10.434   0.038   6.236  0.00  0.00    +0.386 N 
ATOM     22  C   UNL     1       8.993  -0.031   6.565  0.00  0.00    -0.074 C 
ATOM     23  H   UNL     1      10.796   0.945   6.489  0.00  0.00    -0.081 HD
BRANCH  21  24
ATOM     24  C   UNL     1      11.160  -1.005   6.973  0.00  0.00    +0.036 C 
BRANCH  24  25
ATOM     25  C   UNL     1      12.663  -0.843   6.738  0.00  0.00    +0.376 C 
ATOM     26  F   UNL     1      13.072   0.417   7.189  0.00  0.00    -0.173 F 
ATOM     27  F   UNL     1      13.354  -1.836   7.440  0.00  0.00    -0.173 F 
ATOM     28  F   UNL     1      12.937  -0.960   5.371  0.00  0.00    -0.173 F 
ENDBRANCH  24  25
ENDBRANCH  21  24
ENDBRANCH  17  18
ENDBRANCH   3  17
TORSDOF 6
