REMARK  Name = ZINC39750841
REMARK  12 active torsions:
REMARK  status: ('A' for Active; 'I' for Inactive)
REMARK    1  A    between atoms: C_1  and  C_2
REMARK    2  A    between atoms: C_2  and  N_3
REMARK    3  A    between atoms: C_4  and  C_21
REMARK    4  A    between atoms: C_7  and  S_8
REMARK    5  A    between atoms: S_8  and  C_9
REMARK    6  A    between atoms: C_9  and  C_10
REMARK    7  A    between atoms: C_16  and  C_18
REMARK    8  A    between atoms: C_18  and  C_19
REMARK    9  A    between atoms: C_18  and  C_20
REMARK   10  A    between atoms: C_21  and  C_23
REMARK   11  A    between atoms: C_21  and  N_24
REMARK   12  A    between atoms: C_25  and  C_27
REMARK                            x       y       z     vdW  Elec       q    Type
REMARK                         _______ _______ _______ _____ _____    ______ ____
ROOT
ATOM      1  N   UNL     1      -1.372  -0.511   0.012  0.00  0.00    -0.305 N 
ATOM      2  C   UNL     1      -2.139  -0.798   1.108  0.00  0.00    +0.154 A 
ATOM      3  N   UNL     1      -3.292  -1.221   0.675  0.00  0.00    -0.132 NA
ATOM      4  N   UNL     1      -3.308  -1.222  -0.610  0.00  0.00    -0.122 NA
ATOM      5  C   UNL     1      -2.156  -0.790  -1.070  0.00  0.00    +0.192 A 
ENDROOT
BRANCH   1   7
ATOM      6  C   UNL     1      -0.019   1.526   0.010  0.00  0.00    +0.027 C 
ATOM      7  C   UNL     1       0.002  -0.004   0.002  0.00  0.00    +0.122 C 
ENDBRANCH   1   7
BRANCH   2   8
ATOM      8  C   UNL     1      -1.725  -0.651   2.550  0.00  0.00    +0.138 C 
ATOM      9  C   UNL     1      -1.439  -2.033   3.141  0.00  0.00    +0.036 C 
BRANCH   8  10
ATOM     10  N   UNL     1      -2.805  -0.011   3.305  0.00  0.00    -0.302 N 
ATOM     11  C   UNL     1      -2.525   0.672   4.433  0.00  0.00    +0.245 C 
ATOM     12  O   UNL     1      -1.377   0.757   4.824  0.00  0.00    -0.270 OA
ATOM     13  H   UNL     1      -3.721  -0.079   2.994  0.00  0.00    +0.150 HD
BRANCH  11  14
ATOM     14  C   UNL     1      -3.615   1.318   5.195  0.00  0.00    +0.037 A 
ATOM     15  C   UNL     1      -4.935   1.217   4.752  0.00  0.00    +0.014 A 
ATOM     16  C   UNL     1      -5.947   1.822   5.468  0.00  0.00    +0.021 A 
ATOM     17  C   UNL     1      -5.656   2.528   6.623  0.00  0.00    +0.041 A 
ATOM     18  C   UNL     1      -4.348   2.631   7.067  0.00  0.00    +0.021 A 
ATOM     19  C   UNL     1      -3.328   2.026   6.364  0.00  0.00    +0.014 A 
ATOM     20 CL   UNL     1      -6.935   3.287   7.518  0.00  0.00    -0.084 Cl
ENDBRANCH  11  14
ENDBRANCH   8  10
ENDBRANCH   2   8
BRANCH   5  21
ATOM     21  S   UNL     1      -1.707  -0.609  -2.764  0.00  0.00    -0.077 S 
BRANCH  21  22
ATOM     22  C   UNL     1      -3.184  -1.145  -3.670  0.00  0.00    +0.173 C 
BRANCH  22  23
ATOM     23  C   UNL     1      -2.931  -1.038  -5.152  0.00  0.00    +0.229 C 
ATOM     24  O   UNL     1      -1.859  -0.639  -5.557  0.00  0.00    -0.275 OA
ATOM     25  N   UNL     1      -3.895  -1.386  -6.027  0.00  0.00    -0.263 N 
ATOM     26  C   UNL     1      -3.661  -1.287  -7.394  0.00  0.00    +0.188 A 
ATOM     27  N   UNL     1      -2.575  -0.887  -8.026  0.00  0.00    -0.126 NA
ATOM     28  N   UNL     1      -2.511  -0.851  -9.287  0.00  0.00    -0.144 NA
ATOM     29  C   UNL     1      -3.560  -1.223  -9.993  0.00  0.00    +0.106 A 
ATOM     30  S   UNL     1      -4.691  -1.655  -8.678  0.00  0.00    -0.035 S 
ATOM     31  H   UNL     1      -4.752  -1.704  -5.703  0.00  0.00    +0.157 HD
BRANCH  29  32
ATOM     32  C   UNL     1      -3.749  -1.277 -11.487  0.00  0.00    +0.040 C 
ATOM     33  C   UNL     1      -3.566   0.124 -12.075  0.00  0.00    +0.014 C 
ATOM     34  C   UNL     1      -2.716  -2.225 -12.099  0.00  0.00    +0.014 C 
ENDBRANCH  29  32
ENDBRANCH  22  23
ENDBRANCH  21  22
ENDBRANCH   5  21
TORSDOF 8
