REMARK  Name = ZINC40323114
REMARK  7 active torsions:
REMARK  status: ('A' for Active; 'I' for Inactive)
REMARK    1  A    between atoms: C_3  and  C_6
REMARK    2  A    between atoms: C_6  and  C_8
REMARK    3  A    between atoms: C_6  and  N_27
REMARK    4  A    between atoms: C_8  and  N_9
REMARK    5  A    between atoms: C_10  and  C_12
REMARK    6  A    between atoms: C_15  and  S_17
REMARK    7  A    between atoms: S_17  and  C_20
REMARK                            x       y       z     vdW  Elec       q    Type
REMARK                         _______ _______ _______ _____ _____    ______ ____
ROOT
ATOM      1  N   UNL     1       5.785   0.625  -1.182  0.00  0.00    -0.310 N 
ATOM      2  C   UNL     1       6.619   0.631  -2.241  0.00  0.00    +0.279 C 
ATOM      3  O   UNL     1       6.173   0.508  -3.367  0.00  0.00    -0.267 OA
ATOM      4  H   UNL     1       6.140   0.723  -0.284  0.00  0.00    +0.149 HD
ENDROOT
BRANCH   2   5
ATOM      5  C   UNL     1       8.063   0.785  -2.037  0.00  0.00    +0.192 A 
ATOM      6  C   UNL     1       9.013   0.813  -3.017  0.00  0.00    +0.056 A 
ATOM      7  C   UNL     1      10.251   0.977  -2.374  0.00  0.00    +0.070 A 
ATOM      8  C   UNL     1      10.004   1.040  -1.047  0.00  0.00    +0.246 A 
ATOM      9  O   UNL     1       8.684   0.929  -0.848  0.00  0.00    -0.433 OA
BRANCH   8  10
ATOM     10  S   UNL     1      11.219   1.241   0.214  0.00  0.00    +0.058 S 
ATOM     11  O   UNL     1      10.658   0.711   1.407  0.00  0.00    -0.161 OA
ATOM     12  O   UNL     1      12.446   0.770  -0.326  0.00  0.00    -0.161 OA
BRANCH  10  13
ATOM     13  C   UNL     1      11.415   2.973   0.476  0.00  0.00    +0.097 A 
ATOM     14  C   UNL     1      12.348   3.681  -0.258  0.00  0.00    +0.028 A 
ATOM     15  C   UNL     1      12.502   5.039  -0.052  0.00  0.00    +0.017 A 
ATOM     16  C   UNL     1      11.723   5.689   0.887  0.00  0.00    +0.018 A 
ATOM     17  C   UNL     1      10.790   4.980   1.622  0.00  0.00    +0.017 A 
ATOM     18  C   UNL     1      10.633   3.623   1.412  0.00  0.00    +0.028 A 
ATOM     19 BR   UNL     1      11.934   7.547   1.169  0.00  0.00    -0.050 Br
ENDBRANCH  10  13
ENDBRANCH   8  10
ENDBRANCH   2   5
BRANCH   1  20
ATOM     20  C   UNL     1       4.343   0.471  -1.386  0.00  0.00    +0.097 C 
BRANCH  20  21
ATOM     21  C   UNL     1       3.644   0.363  -0.029  0.00  0.00    +0.016 C 
BRANCH  21  22
ATOM     22  N   UNL     1       4.236  -0.740   0.740  0.00  0.00    +0.387 N 
ATOM     23  C   UNL     1       4.018  -2.001   0.003  0.00  0.00    -0.078 C 
ATOM     24  C   UNL     1       5.083  -2.984   0.421  0.00  0.00    -0.019 C 
ATOM     25  C   UNL     1       4.579  -3.920   1.536  0.00  0.00    -0.002 C 
ATOM     26  C   UNL     1       3.734  -3.163   2.580  0.00  0.00    -0.002 C 
ATOM     27  C   UNL     1       4.318  -1.817   2.925  0.00  0.00    -0.019 C 
ATOM     28  C   UNL     1       3.679  -0.744   2.020  0.00  0.00    -0.078 C 
ATOM     29  H   UNL     1       5.229  -0.582   0.819  0.00  0.00    -0.081 HD
ENDBRANCH  21  22
BRANCH  21  32
ATOM     30  C   UNL     1      -0.019   0.334  -0.435  0.00  0.00    +0.041 A 
ATOM     31  C   UNL     1       1.193   1.014  -0.175  0.00  0.00    +0.043 A 
ATOM     32  C   UNL     1       2.176   0.097  -0.239  0.00  0.00    +0.093 A 
ATOM     33  O   UNL     1       1.626  -1.095  -0.524  0.00  0.00    -0.469 OA
ATOM     34  C   UNL     1       0.296  -0.957  -0.644  0.00  0.00    +0.195 A 
ENDBRANCH  21  32
ENDBRANCH  20  21
ENDBRANCH   1  20
TORSDOF 7
