REMARK  Name = ZINC06866831
REMARK  5 active torsions:
REMARK  status: ('A' for Active; 'I' for Inactive)
REMARK    1  A    between atoms: C_4  and  C_7
REMARK    2  A    between atoms: C_7  and  C_9
REMARK    3  A    between atoms: C_12  and  N_18
REMARK    4  A    between atoms: C_13  and  N_15
REMARK    5  A    between atoms: C_21  and  C_24
REMARK                            x       y       z     vdW  Elec       q    Type
REMARK                         _______ _______ _______ _____ _____    ______ ____
ROOT
ATOM      1  C   UNL     1       1.207   1.793   0.198  0.00  0.00    +0.025 A 
ATOM      2  C   UNL     1       1.213   3.171   0.445  0.00  0.00    +0.013 A 
ATOM      3  C   UNL     1       0.035   3.833   0.642  0.00  0.00    +0.026 A 
ATOM      4  C   UNL     1      -1.172   3.139   0.596  0.00  0.00    +0.060 A 
ATOM      5  C   UNL     1      -1.182   1.769   0.346  0.00  0.00    +0.148 A 
ATOM      6  C   UNL     1      -0.007   1.099   0.153  0.00  0.00    +0.046 A 
ENDROOT
BRANCH   4   7
ATOM      7  N   UNL     1      -2.369   3.816   0.796  0.00  0.00    -0.328 N 
ATOM      8  C   UNL     1      -2.601   4.800  -0.269  0.00  0.00    +0.106 C 
ATOM      9  C   UNL     1      -3.990   5.420  -0.098  0.00  0.00    +0.031 C 
ATOM     10  C   UNL     1      -4.077   6.095   1.274  0.00  0.00    +0.078 C 
ATOM     11  C   UNL     1      -3.783   5.059   2.363  0.00  0.00    +0.031 C 
ATOM     12  C   UNL     1      -2.401   4.449   2.121  0.00  0.00    +0.106 C 
BRANCH  10  13
ATOM     13  C   UNL     1      -5.460   6.657   1.474  0.00  0.00    +0.214 C 
ATOM     14  O   UNL     1      -6.146   6.268   2.396  0.00  0.00    -0.276 OA
ATOM     15  N   UNL     1      -5.936   7.592   0.628  0.00  0.00    -0.329 N 
ATOM     16  H   UNL     1      -5.388   7.903  -0.110  0.00  0.00    +0.145 HD
ATOM     17  H   UNL     1      -6.827   7.954   0.756  0.00  0.00    +0.145 HD
ENDBRANCH  10  13
ENDBRANCH   4   7
BRANCH   5  18
ATOM     18  N   UNL     1      -2.467   1.036   0.293  0.00  0.00    +0.058 N 
ATOM     19  O   UNL     1      -2.477  -0.163   0.078  0.00  0.00    -0.126 OA
ATOM     20  O   UNL     1      -3.515   1.632   0.465  0.00  0.00    -0.126 OA
ENDBRANCH   5  18
BRANCH   1  21
ATOM     21  C   UNL     1       2.477   1.076  -0.016  0.00  0.00    +0.193 C 
ATOM     22  O   UNL     1       2.483  -0.138  -0.093  0.00  0.00    -0.287 OA
BRANCH  21  26
ATOM     23  C   UNL     1       6.111   3.246  -0.360  0.00  0.00    +0.000 A 
ATOM     24  C   UNL     1       6.108   1.998   0.239  0.00  0.00    +0.001 A 
ATOM     25  C   UNL     1       4.931   1.288   0.354  0.00  0.00    +0.012 A 
ATOM     26  C   UNL     1       3.741   1.831  -0.135  0.00  0.00    +0.022 A 
ATOM     27  C   UNL     1       3.753   3.088  -0.743  0.00  0.00    +0.012 A 
ATOM     28  C   UNL     1       4.936   3.790  -0.847  0.00  0.00    +0.001 A 
ENDBRANCH  21  26
ENDBRANCH   1  21
TORSDOF 5
