REMARK  Name = ZINC09705425
REMARK  6 active torsions:
REMARK  status: ('A' for Active; 'I' for Inactive)
REMARK    1  A    between atoms: C_1  and  C_2
REMARK    2  A    between atoms: C_2  and  C_3
REMARK    3  A    between atoms: C_2  and  C_4
REMARK    4  A    between atoms: C_7  and  N_10
REMARK    5  A    between atoms: N_21  and  N_22
REMARK    6  A    between atoms: N_22  and  C_23
REMARK                            x       y       z     vdW  Elec       q    Type
REMARK                         _______ _______ _______ _____ _____    ______ ____
ROOT
ATOM      1  N   UNL     1      -3.285   3.059   4.356  0.00  0.00    -0.247 N 
ATOM      2  C   UNL     1      -3.959   2.188   5.143  0.00  0.00    +0.267 A 
ATOM      3  O   UNL     1      -4.145   1.036   4.794  0.00  0.00    -0.267 OA
ATOM      4  C   UNL     1      -4.459   2.684   6.432  0.00  0.00    +0.065 A 
ATOM      5  C   UNL     1      -5.164   1.865   7.313  0.00  0.00    +0.015 A 
ATOM      6  C   UNL     1      -5.606   2.377   8.501  0.00  0.00    +0.001 A 
ATOM      7  C   UNL     1      -5.361   3.702   8.838  0.00  0.00    +0.002 A 
ATOM      8  C   UNL     1      -4.673   4.527   7.993  0.00  0.00    +0.028 A 
ATOM      9  C   UNL     1      -4.207   4.032   6.771  0.00  0.00    +0.080 A 
ATOM     10  N   UNL     1      -3.520   4.814   5.905  0.00  0.00    -0.214 NA
ATOM     11  C   UNL     1      -3.080   4.347   4.763  0.00  0.00    +0.220 A 
ATOM     12  N   UNL     1      -2.386   5.193   3.934  0.00  0.00    -0.236 N 
ATOM     13  H   UNL     1      -2.077   4.879   3.070  0.00  0.00    +0.173 HD
ENDROOT
BRANCH   1  17
ATOM     14  C   UNL     1      -1.806   1.797   0.669  0.00  0.00    -0.045 A 
ATOM     15  C   UNL     1      -1.019   1.691   1.802  0.00  0.00    +0.006 A 
ATOM     16  C   UNL     1      -1.504   2.113   3.024  0.00  0.00    +0.026 A 
ATOM     17  C   UNL     1      -2.788   2.634   3.117  0.00  0.00    +0.053 A 
ATOM     18  C   UNL     1      -3.578   2.735   1.979  0.00  0.00    +0.026 A 
ATOM     19  C   UNL     1      -3.084   2.316   0.759  0.00  0.00    +0.006 A 
BRANCH  14  21
ATOM     20  C   UNL     1      -0.917  -0.145  -0.590  0.00  0.00    +0.012 C 
ATOM     21  C   UNL     1      -1.270   1.342  -0.664  0.00  0.00    +0.013 C 
ATOM     22  C   UNL     1      -0.017   2.147  -1.012  0.00  0.00    +0.012 C 
ENDBRANCH  14  21
ENDBRANCH   1  17
BRANCH  12  23
ATOM     23  N   UNL     1      -2.124   6.509   4.337  0.00  0.00    -0.271 N 
ATOM     24  H   UNL     1      -2.433   6.822   5.201  0.00  0.00    +0.169 HD
BRANCH  23  25
ATOM     25  C   UNL     1      -1.442   7.339   3.523  0.00  0.00    +0.106 C 
ATOM     26  C   UNL     1      -1.285   8.669   3.867  0.00  0.00    +0.114 C 
ATOM     27  C   UNL     1      -1.859   9.215   5.110  0.00  0.00    +0.258 C 
ATOM     28  O   UNL     1      -2.489   8.506   5.871  0.00  0.00    -0.270 OA
ATOM     29  N   UNL     1      -1.661  10.521   5.383  0.00  0.00    -0.236 N 
ATOM     30  C   UNL     1      -0.973  11.315   4.551  0.00  0.00    +0.313 C 
ATOM     31  O   UNL     1      -0.835  12.484   4.853  0.00  0.00    -0.252 OA
ATOM     32  N   UNL     1      -0.429  10.888   3.403  0.00  0.00    -0.236 N 
ATOM     33  C   UNL     1      -0.542   9.604   3.004  0.00  0.00    +0.258 C 
ATOM     34  O   UNL     1      -0.043   9.228   1.960  0.00  0.00    -0.270 OA
ATOM     35  H   UNL     1      -2.029  10.895   6.199  0.00  0.00    +0.159 HD
ATOM     36  H   UNL     1       0.058  11.516   2.846  0.00  0.00    +0.159 HD
ENDBRANCH  23  25
ENDBRANCH  12  23
TORSDOF 4
