REMARK  Name = ZINC14550544
REMARK  8 active torsions:
REMARK  status: ('A' for Active; 'I' for Inactive)
REMARK    1  A    between atoms: C_1  and  C_2
REMARK    2  A    between atoms: C_2  and  C_3
REMARK    3  A    between atoms: C_3  and  C_5
REMARK    4  A    between atoms: C_3  and  N_6
REMARK    5  A    between atoms: C_7  and  C_9
REMARK    6  A    between atoms: C_16  and  C_25
REMARK    7  A    between atoms: C_29  and  O_31
REMARK    8  A    between atoms: O_31  and  C_32
REMARK                            x       y       z     vdW  Elec       q    Type
REMARK                         _______ _______ _______ _____ _____    ______ ____
ROOT
ATOM      1  C   UNL     1       2.792  -4.215  -0.918  0.00  0.00    +0.058 A 
ATOM      2  C   UNL     1       2.248  -5.350  -0.319  0.00  0.00    +0.015 A 
ATOM      3  C   UNL     1       1.903  -5.329   1.014  0.00  0.00    +0.001 A 
ATOM      4  C   UNL     1       2.094  -4.176   1.757  0.00  0.00    +0.006 A 
ATOM      5  C   UNL     1       2.626  -3.043   1.181  0.00  0.00    -0.019 A 
ATOM      6  C   UNL     1       2.997  -3.039  -0.168  0.00  0.00    +0.044 A 
ATOM      7  N   UNL     1       3.576  -1.959  -0.815  0.00  0.00    -0.336 N 
ATOM      8  C   UNL     1       3.711  -0.716  -0.038  0.00  0.00    +0.105 C 
ATOM      9  C   UNL     1       4.099  -1.110   1.371  0.00  0.00    +0.029 C 
ATOM     10  C   UNL     1       2.824  -1.797   1.953  0.00  0.00    +0.049 C 
ATOM     11  C   UNL     1       3.078  -1.793   3.414  0.00  0.00    -0.023 C 
ATOM     12  C   UNL     1       3.859  -0.758   3.705  0.00  0.00    -0.030 C 
ATOM     13  C   UNL     1       4.219  -0.002   2.423  0.00  0.00    +0.033 C 
ATOM     14  H   UNL     1       3.128  -1.784  -1.702  0.00  0.00    +0.147 HD
ENDROOT
BRANCH   8  15
ATOM     15  C   UNL     1       2.398   0.024  -0.021  0.00  0.00    -0.024 A 
ATOM     16  C   UNL     1       1.215  -0.663  -0.222  0.00  0.00    +0.006 A 
ATOM     17  C   UNL     1       0.009   0.013  -0.207  0.00  0.00    +0.004 A 
ATOM     18  C   UNL     1      -0.017   1.378   0.008  0.00  0.00    +0.045 A 
ATOM     19  C   UNL     1       1.169   2.069   0.210  0.00  0.00    +0.120 A 
ATOM     20  C   UNL     1       2.378   1.388   0.196  0.00  0.00    +0.051 A 
BRANCH  19  21
ATOM     21  O   UNL     1       1.146   3.411   0.422  0.00  0.00    -0.495 OA
ATOM     22  C   UNL     1      -0.134   4.046   0.423  0.00  0.00    +0.277 C 
ENDBRANCH  19  21
ENDBRANCH   8  15
BRANCH   1  24
ATOM     23  N   UNL     1       2.964  -5.367  -3.068  0.00  0.00    -0.309 N 
ATOM     24  C   UNL     1       3.157  -4.245  -2.347  0.00  0.00    +0.246 C 
ATOM     25  O   UNL     1       3.632  -3.257  -2.873  0.00  0.00    -0.270 OA
ATOM     26  H   UNL     1       2.584  -6.154  -2.648  0.00  0.00    +0.149 HD
BRANCH  23  27
ATOM     27  C   UNL     1       3.326  -5.396  -4.488  0.00  0.00    +0.070 C 
ATOM     28  C   UNL     1       4.811  -5.737  -4.628  0.00  0.00    +0.028 C 
BRANCH  27  30
ATOM     29  C   UNL     1       1.014  -6.050  -5.173  0.00  0.00    +0.005 C 
ATOM     30  C   UNL     1       2.489  -6.456  -5.206  0.00  0.00    +0.018 C 
ENDBRANCH  27  30
ENDBRANCH  23  27
ENDBRANCH   1  24
TORSDOF 5
