REMARK  Name = ZINC05158937
REMARK  12 active torsions:
REMARK  status: ('A' for Active; 'I' for Inactive)
REMARK    1  A    between atoms: C_1  and  C_2
REMARK    2  A    between atoms: C_2  and  C_26
REMARK    3  A    between atoms: C_3  and  C_4
REMARK    4  A    between atoms: C_4  and  C_5
REMARK    5  A    between atoms: C_6  and  O_25
REMARK    6  A    between atoms: C_8  and  O_23
REMARK    7  A    between atoms: C_9  and  C_12
REMARK    8  A    between atoms: C_10  and  O_11
REMARK    9  A    between atoms: C_12  and  C_14
REMARK   10  A    between atoms: C_15  and  C_16
REMARK   11  A    between atoms: C_19  and  O_22
REMARK   12  A    between atoms: O_23  and  C_24
REMARK                            x       y       z     vdW  Elec       q    Type
REMARK                         _______ _______ _______ _____ _____    ______ ____
ROOT
ATOM      1  C   UNL     1      -0.869  -0.563   3.379  0.00  0.00    +0.040 A 
ATOM      2  C   UNL     1      -2.189  -0.131   3.401  0.00  0.00    +0.127 A 
ATOM      3  C   UNL     1      -3.105  -0.713   4.267  0.00  0.00    +0.092 A 
ATOM      4  C   UNL     1      -2.709  -1.730   5.117  0.00  0.00    +0.138 A 
ATOM      5  C   UNL     1      -1.377  -2.173   5.101  0.00  0.00    +0.105 A 
ATOM      6  C   UNL     1      -0.458  -1.582   4.218  0.00  0.00    +0.138 A 
ENDROOT
BRANCH   6   7
ATOM      7  O   UNL     1       0.830  -2.007   4.192  0.00  0.00    -0.506 OA
ATOM      8  H   UNL     1       1.412  -1.535   4.804  0.00  0.00    +0.292 HD
ENDBRANCH   6   7
BRANCH   5   9
ATOM      9  C   UNL     1      -0.946  -3.254   6.002  0.00  0.00    +0.193 C 
ATOM     10  O   UNL     1      -0.440  -2.986   7.078  0.00  0.00    -0.287 OA
BRANCH   9  11
ATOM     11  C   UNL     1      -1.126  -4.651   5.607  0.00  0.00    +0.052 C 
ATOM     12  C   UNL     1      -0.827  -5.642   6.474  0.00  0.00    +0.012 C 
BRANCH  12  13
ATOM     13  C   UNL     1      -1.008  -7.046   6.077  0.00  0.00    -0.025 A 
ATOM     14  C   UNL     1      -1.484  -7.358   4.798  0.00  0.00    +0.011 A 
ATOM     15  C   UNL     1      -1.652  -8.674   4.431  0.00  0.00    +0.046 A 
ATOM     16  C   UNL     1      -1.348  -9.692   5.327  0.00  0.00    +0.117 A 
ATOM     17  C   UNL     1      -0.874  -9.388   6.598  0.00  0.00    +0.046 A 
ATOM     18  C   UNL     1      -0.698  -8.075   6.974  0.00  0.00    +0.011 A 
BRANCH  16  19
ATOM     19  O   UNL     1      -1.514 -10.988   4.960  0.00  0.00    -0.507 OA
ATOM     20  H   UNL     1      -0.734 -11.384   4.549  0.00  0.00    +0.292 HD
ENDBRANCH  16  19
ENDBRANCH  12  13
ENDBRANCH   9  11
ENDBRANCH   5   9
BRANCH   4  21
ATOM     21  O   UNL     1      -3.605  -2.297   5.964  0.00  0.00    -0.494 OA
ATOM     22  C   UNL     1      -4.942  -1.795   5.925  0.00  0.00    +0.277 C 
ENDBRANCH   4  21
BRANCH   2  23
ATOM     23  O   UNL     1      -2.586   0.867   2.570  0.00  0.00    -0.506 OA
ATOM     24  H   UNL     1      -2.907   0.559   1.711  0.00  0.00    +0.292 HD
ENDBRANCH   2  23
BRANCH   1  25
ATOM     25  C   UNL     1       0.116   0.076   2.435  0.00  0.00    +0.069 C 
BRANCH  25  28
ATOM     26  C   UNL     1      -0.179   1.488   0.012  0.00  0.00    +0.038 C 
ATOM     27  C   UNL     1      -0.087  -0.016   0.003  0.00  0.00    -0.079 C 
ATOM     28  C   UNL     1       0.109  -0.667   1.123  0.00  0.00    -0.023 C 
ATOM     29  C   UNL     1      -0.220  -0.772  -1.294  0.00  0.00    +0.038 C 
ENDBRANCH  25  28
ENDBRANCH   1  25
TORSDOF 9
