REMARK  Name = ZINC36316393
REMARK  21 active torsions:
REMARK  status: ('A' for Active; 'I' for Inactive)
REMARK    1  A    between atoms: C_1  and  C_2
REMARK    2  A    between atoms: C_2  and  C_3
REMARK    3  A    between atoms: C_3  and  C_4
REMARK    4  A    between atoms: C_4  and  O_5
REMARK    5  A    between atoms: O_5  and  C_6
REMARK    6  A    between atoms: C_6  and  C_7
REMARK    7  A    between atoms: C_7  and  C_9
REMARK    8  A    between atoms: C_7  and  O_37
REMARK    9  A    between atoms: C_9  and  N_10
REMARK   10  A    between atoms: N_10  and  C_11
REMARK   11  A    between atoms: N_10  and  C_34
REMARK   12  A    between atoms: C_11  and  C_12
REMARK   13  A    between atoms: C_13  and  C_32
REMARK   14  A    between atoms: N_15  and  C_26
REMARK   15  A    between atoms: C_16  and  O_17
REMARK   16  A    between atoms: O_17  and  C_18
REMARK   17  A    between atoms: C_21  and  O_24
REMARK   18  A    between atoms: O_24  and  C_25
REMARK   19  A    between atoms: C_32  and  C_33
REMARK   20  A    between atoms: C_34  and  C_35
REMARK   21  A    between atoms: C_34  and  C_36
REMARK                            x       y       z     vdW  Elec       q    Type
REMARK                         _______ _______ _______ _____ _____    ______ ____
ROOT
ATOM      1  C   UNL     1      -6.437  -9.771   1.305  0.00  0.00    +0.021 A 
ATOM      2  C   UNL     1      -7.183  -9.771   2.487  0.00  0.00    +0.068 A 
ATOM      3  N   UNL     1      -8.180 -10.606   2.348  0.00  0.00    -0.168 NA
ATOM      4  N   UNL     1      -8.108 -11.171   1.068  0.00  0.00    -0.200 N 
ATOM      5  C   UNL     1      -7.027 -10.637   0.439  0.00  0.00    +0.225 A 
ENDROOT
BRANCH   4   6
ATOM      6  C   UNL     1      -8.994 -12.115   0.531  0.00  0.00    +0.069 A 
ATOM      7  C   UNL     1      -9.341 -12.057  -0.812  0.00  0.00    +0.028 A 
ATOM      8  C   UNL     1     -10.215 -12.988  -1.339  0.00  0.00    +0.002 A 
ATOM      9  C   UNL     1     -10.743 -13.977  -0.531  0.00  0.00    +0.000 A 
ATOM     10  C   UNL     1     -10.400 -14.037   0.808  0.00  0.00    +0.002 A 
ATOM     11  C   UNL     1      -9.523 -13.112   1.339  0.00  0.00    +0.028 A 
ENDBRANCH   4   6
BRANCH   2  12
ATOM     12  C   UNL     1      -6.887  -8.948   3.715  0.00  0.00    +0.054 C 
ATOM     13  C   UNL     1      -7.608  -7.603   3.613  0.00  0.00    +0.010 C 
ENDBRANCH   2  12
BRANCH   1  14
ATOM     14  C   UNL     1      -5.201  -8.951   1.035  0.00  0.00    -0.035 C 
BRANCH  14  15
ATOM     15  N   UNL     1      -5.569  -7.533   0.927  0.00  0.00    +0.386 N 
ATOM     16  H   UNL     1      -6.119  -7.265   1.730  0.00  0.00    -0.081 HD
BRANCH  15  17
ATOM     17  C   UNL     1      -6.355  -7.323  -0.296  0.00  0.00    -0.074 C 
ATOM     18  C   UNL     1      -5.708  -8.083  -1.456  0.00  0.00    -0.014 C 
ATOM     19  C   UNL     1      -7.780  -7.837  -0.081  0.00  0.00    -0.014 C 
ENDBRANCH  15  17
BRANCH  15  20
ATOM     20  C   UNL     1      -4.351  -6.714   0.872  0.00  0.00    -0.044 C 
BRANCH  20  21
ATOM     21  C   UNL     1      -4.724  -5.235   0.994  0.00  0.00    +0.124 C 
BRANCH  21  22
ATOM     22  O   UNL     1      -5.428  -4.823  -0.180  0.00  0.00    -0.391 OA
ATOM     23  H   UNL     1      -4.948  -4.985  -1.003  0.00  0.00    +0.210 HD
ENDBRANCH  21  22
BRANCH  21  24
ATOM     24  C   UNL     1      -3.452  -4.398   1.145  0.00  0.00    +0.189 C 
BRANCH  24  25
ATOM     25  O   UNL     1      -3.805  -3.033   1.376  0.00  0.00    -0.377 OA
BRANCH  25  26
ATOM     26  C   UNL     1      -2.683  -2.161   1.532  0.00  0.00    +0.160 C 
BRANCH  26  27
ATOM     27  C   UNL     1      -3.177  -0.733   1.772  0.00  0.00    +0.028 C 
BRANCH  27  29
ATOM     28  C   UNL     1      -2.470   1.628   2.179  0.00  0.00    +0.004 C 
ATOM     29  C   UNL     1      -1.976   0.200   1.940  0.00  0.00    -0.001 C 
ENDBRANCH  27  29
ENDBRANCH  26  27
ENDBRANCH  25  26
ENDBRANCH  24  25
ENDBRANCH  21  24
ENDBRANCH  20  21
ENDBRANCH  15  20
ENDBRANCH  14  15
ENDBRANCH   1  14
BRANCH   5  30
ATOM     30  O   UNL     1      -6.611 -10.921  -0.822  0.00  0.00    -0.438 OA
BRANCH  30  31
ATOM     31  C   UNL     1      -5.804 -12.000  -1.001  0.00  0.00    +0.131 A 
ATOM     32  C   UNL     1      -5.518 -12.837   0.068  0.00  0.00    +0.050 A 
ATOM     33  C   UNL     1      -4.699 -13.934  -0.114  0.00  0.00    +0.049 A 
ATOM     34  C   UNL     1      -4.161 -14.198  -1.365  0.00  0.00    +0.120 A 
ATOM     35  C   UNL     1      -4.447 -13.361  -2.433  0.00  0.00    +0.049 A 
ATOM     36  C   UNL     1      -5.272 -12.268  -2.253  0.00  0.00    +0.050 A 
BRANCH  34  37
ATOM     37  O   UNL     1      -3.354 -15.278  -1.543  0.00  0.00    -0.495 OA
ATOM     38  C   UNL     1      -2.836 -15.490  -2.858  0.00  0.00    +0.277 C 
ENDBRANCH  34  37
ENDBRANCH  30  31
ENDBRANCH   5  30
TORSDOF 16
