REMARK  Name = ZINC11904492
REMARK  4 active torsions:
REMARK  status: ('A' for Active; 'I' for Inactive)
REMARK    1  A    between atoms: C_6  and  N_7
REMARK    2  A    between atoms: N_7  and  S_8
REMARK    3  A    between atoms: S_8  and  C_11
REMARK    4  A    between atoms: C_14  and  N_17
REMARK                            x       y       z     vdW  Elec       q    Type
REMARK                         _______ _______ _______ _____ _____    ______ ____
ROOT
ATOM      1  C   UNL     1       3.942  -2.397  -0.411  0.00  0.00    +0.109 A 
ATOM      2  C   UNL     1       4.546  -1.208  -0.778  0.00  0.00    +0.030 A 
ATOM      3  C   UNL     1       5.800  -0.890  -0.294  0.00  0.00    +0.027 A 
ATOM      4  C   UNL     1       6.458  -1.770   0.555  0.00  0.00    +0.059 A 
ATOM      5  C   UNL     1       5.851  -2.966   0.918  0.00  0.00    +0.027 A 
ATOM      6  C   UNL     1       4.596  -3.276   0.434  0.00  0.00    +0.030 A 
ENDROOT
BRANCH   4   7
ATOM      7  N   UNL     1       7.730  -1.453   1.044  0.00  0.00    -0.144 N 
ATOM      8  C   UNL     1       8.276  -1.912   2.180  0.00  0.00    +0.240 C 
ATOM      9  O   UNL     1       7.678  -2.699   2.882  0.00  0.00    -0.274 OA
ATOM     10  C   UNL     1       9.644  -1.432   2.561  0.00  0.00    +0.122 C 
ATOM     11  C   UNL     1      10.335  -0.847   1.300  0.00  0.00    +0.198 C 
ATOM     12  S   UNL     1       8.838  -0.428   0.317  0.00  0.00    +0.052 S 
ATOM     13  O   UNL     1       8.965  -0.887  -1.022  0.00  0.00    -0.155 OA
ATOM     14  O   UNL     1       8.391   0.889   0.609  0.00  0.00    -0.155 OA
ENDBRANCH   4   7
BRANCH   1  15
ATOM     15  S   UNL     1       2.340  -2.796  -1.026  0.00  0.00    +0.072 S 
ATOM     16  O   UNL     1       2.180  -4.199  -0.863  0.00  0.00    -0.150 OA
ATOM     17  O   UNL     1       2.219  -2.157  -2.290  0.00  0.00    -0.150 OA
BRANCH  15  18
ATOM     18  N   UNL     1       1.237  -2.075  -0.024  0.00  0.00    -0.216 N 
ATOM     19  H   UNL     1       0.628  -1.405  -0.374  0.00  0.00    +0.174 HD
BRANCH  18  25
ATOM     20  C   UNL     1       1.110  -1.445   2.303  0.00  0.00    +0.026 A 
ATOM     21  C   UNL     1       1.058  -1.799   3.637  0.00  0.00    +0.022 A 
ATOM     22  C   UNL     1       1.077  -3.134   4.001  0.00  0.00    +0.041 A 
ATOM     23  C   UNL     1       1.149  -4.117   3.030  0.00  0.00    +0.022 A 
ATOM     24  C   UNL     1       1.202  -3.769   1.695  0.00  0.00    +0.026 A 
ATOM     25  C   UNL     1       1.183  -2.430   1.327  0.00  0.00    +0.048 A 
ATOM     26 CL   UNL     1       1.010  -3.575   5.679  0.00  0.00    -0.084 Cl
ENDBRANCH  18  25
ENDBRANCH  15  18
ENDBRANCH   1  15
TORSDOF 4
