REMARK  Name = ZINC09446326
REMARK  13 active torsions:
REMARK  status: ('A' for Active; 'I' for Inactive)
REMARK    1  A    between atoms: C_1  and  C_2
REMARK    2  A    between atoms: C_4  and  O_35
REMARK    3  A    between atoms: C_5  and  C_9
REMARK    4  A    between atoms: N_17  and  C_32
REMARK    5  A    between atoms: C_18  and  C_20
REMARK    6  A    between atoms: C_22  and  O_30
REMARK    7  A    between atoms: C_23  and  O_28
REMARK    8  A    between atoms: C_24  and  O_26
REMARK    9  A    between atoms: O_26  and  C_27
REMARK   10  A    between atoms: O_28  and  C_29
REMARK   11  A    between atoms: O_30  and  C_31
REMARK   12  A    between atoms: C_32  and  C_33
REMARK   13  A    between atoms: C_33  and  O_34
REMARK                            x       y       z     vdW  Elec       q    Type
REMARK                         _______ _______ _______ _____ _____    ______ ____
ROOT
ATOM      1  C   UNL     1      -0.093  -4.412  -0.090  0.00  0.00    +0.102 A 
ATOM      2  C   UNL     1       0.096  -5.166   1.073  0.00  0.00    +0.035 A 
ATOM      3  C   UNL     1       0.104  -6.487   0.668  0.00  0.00    +0.126 A 
ATOM      4  N   UNL     1      -0.075  -6.470  -0.686  0.00  0.00    -0.272 N 
ATOM      5  H   UNL     1      -0.113  -7.256  -1.253  0.00  0.00    +0.189 HD
ATOM      6  N   UNL     1      -0.192  -5.257  -1.097  0.00  0.00    -0.173 NA
ATOM      7  C   UNL     1       0.299  -7.335   1.849  0.00  0.00    +0.266 C 
ATOM      8  O   UNL     1       0.354  -8.550   1.829  0.00  0.00    -0.268 OA
ATOM      9  N   UNL     1       0.409  -6.579   2.956  0.00  0.00    -0.283 N 
ATOM     10  C   UNL     1       0.292  -5.169   2.564  0.00  0.00    +0.142 C 
ENDROOT
BRANCH   1  15
ATOM     11  C   UNL     1      -0.408   1.334  -0.415  0.00  0.00    +0.045 C 
ATOM     12  C   UNL     1      -0.326  -0.168  -0.332  0.00  0.00    -0.029 A 
ATOM     13  C   UNL     1      -0.571  -0.933  -1.457  0.00  0.00    +0.050 A 
ATOM     14  C   UNL     1      -0.497  -2.315  -1.387  0.00  0.00    +0.126 A 
ATOM     15  C   UNL     1      -0.174  -2.932  -0.175  0.00  0.00    +0.045 A 
ATOM     16  C   UNL     1       0.072  -2.153   0.953  0.00  0.00    +0.034 A 
ATOM     17  C   UNL     1       0.000  -0.776   0.868  0.00  0.00    +0.045 A 
ATOM     18 CL   UNL     1       0.313   0.195   2.273  0.00  0.00    -0.083 Cl
BRANCH  14  19
ATOM     19  O   UNL     1      -0.739  -3.067  -2.492  0.00  0.00    -0.506 OA
ATOM     20  H   UNL     1       0.049  -3.251  -3.023  0.00  0.00    +0.292 HD
ENDBRANCH  14  19
ENDBRANCH   1  15
BRANCH  10  21
ATOM     21  C   UNL     1      -0.896  -4.539   3.245  0.00  0.00    -0.015 A 
ATOM     22  C   UNL     1      -0.726  -3.406   4.019  0.00  0.00    +0.055 A 
ATOM     23  C   UNL     1      -1.816  -2.824   4.647  0.00  0.00    +0.165 A 
ATOM     24  C   UNL     1      -3.081  -3.380   4.498  0.00  0.00    +0.204 A 
ATOM     25  C   UNL     1      -3.248  -4.518   3.718  0.00  0.00    +0.165 A 
ATOM     26  C   UNL     1      -2.153  -5.092   3.089  0.00  0.00    +0.055 A 
BRANCH  25  27
ATOM     27  O   UNL     1      -4.483  -5.066   3.569  0.00  0.00    -0.491 OA
ATOM     28  C   UNL     1      -4.564  -6.296   2.846  0.00  0.00    +0.277 C 
ENDBRANCH  25  27
BRANCH  24  29
ATOM     29  O   UNL     1      -4.154  -2.811   5.113  0.00  0.00    -0.488 OA
ATOM     30  C   UNL     1      -4.865  -1.810   4.383  0.00  0.00    +0.277 C 
ENDBRANCH  24  29
BRANCH  23  31
ATOM     31  O   UNL     1      -1.648  -1.710   5.410  0.00  0.00    -0.491 OA
ATOM     32  C   UNL     1      -0.320  -1.193   5.519  0.00  0.00    +0.277 C 
ENDBRANCH  23  31
ENDBRANCH  10  21
BRANCH   9  33
ATOM     33  C   UNL     1       0.611  -7.077   4.319  0.00  0.00    +0.137 C 
BRANCH  33  34
ATOM     34  C   UNL     1       2.110  -7.184   4.606  0.00  0.00    +0.175 C 
BRANCH  34  35
ATOM     35  O   UNL     1       2.692  -5.878   4.591  0.00  0.00    -0.393 OA
ATOM     36  H   UNL     1       3.643  -5.870   4.766  0.00  0.00    +0.209 HD
ENDBRANCH  34  35
ENDBRANCH  33  34
ENDBRANCH   9  33
TORSDOF 9
