REMARK  Name = ZINC00781248
REMARK  8 active torsions:
REMARK  status: ('A' for Active; 'I' for Inactive)
REMARK    1  A    between atoms: C_1  and  C_2
REMARK    2  A    between atoms: C_3  and  C_31
REMARK    3  A    between atoms: C_4  and  C_20
REMARK    4  A    between atoms: C_10  and  C_15
REMARK    5  A    between atoms: C_31  and  O_33
REMARK    6  A    between atoms: O_33  and  C_34
REMARK    7  A    between atoms: C_34  and  C_35
REMARK    8  A    between atoms: C_34  and  C_36
REMARK                            x       y       z     vdW  Elec       q    Type
REMARK                         _______ _______ _______ _____ _____    ______ ____
ROOT
ATOM      1  C   UNL     1       2.362  -0.233   0.185  0.00  0.00    +0.061 C 
ATOM      2  C   UNL     1       2.365   1.271   0.088  0.00  0.00    +0.016 C 
ATOM      3  C   UNL     1       1.216   1.927  -0.146  0.00  0.00    +0.065 C 
ATOM      4  C   UNL     1       1.183   3.423  -0.263  0.00  0.00    +0.099 C 
ATOM      5  C   UNL     1       2.424   4.038   0.338  0.00  0.00    +0.024 C 
ATOM      6  C   UNL     1       3.527   3.291   0.554  0.00  0.00    +0.016 C 
ATOM      7  N   UNL     1       3.537   1.959   0.240  0.00  0.00    -0.321 N 
ATOM      8  C   UNL     1       4.773   3.900   1.148  0.00  0.00    +0.060 C 
ATOM      9  C   UNL     1       4.870   5.372   0.742  0.00  0.00    +0.039 C 
ATOM     10  C   UNL     1       3.610   6.095   1.228  0.00  0.00    +0.088 C 
ATOM     11  C   UNL     1       2.400   5.407   0.655  0.00  0.00    +0.162 C 
ATOM     12  O   UNL     1       1.385   6.047   0.465  0.00  0.00    -0.292 OA
ATOM     13  H   UNL     1       4.499   1.442   0.110  0.00  0.00    +0.152 HD
ENDROOT
BRANCH   4  14
ATOM     14  C   UNL     1       1.091   3.804  -1.718  0.00  0.00    +0.047 A 
ATOM     15  C   UNL     1       2.059   3.435  -2.577  0.00  0.00    +0.204 A 
ATOM     16  O   UNL     1       2.029   3.740  -3.878  0.00  0.00    -0.462 OA
ATOM     17  C   UNL     1       1.026   4.453  -4.431  0.00  0.00    +0.138 A 
ATOM     18  C   UNL     1       1.027   4.758  -5.787  0.00  0.00    +0.047 A 
ATOM     19  C   UNL     1      -0.009   5.489  -6.327  0.00  0.00    +0.004 A 
ATOM     20  C   UNL     1      -1.058   5.926  -5.532  0.00  0.00    +0.001 A 
ATOM     21  C   UNL     1      -1.079   5.635  -4.186  0.00  0.00    +0.015 A 
ATOM     22  C   UNL     1      -0.037   4.896  -3.627  0.00  0.00    +0.064 A 
ATOM     23  C   UNL     1      -0.015   4.559  -2.190  0.00  0.00    +0.197 A 
ATOM     24  O   UNL     1      -0.907   4.916  -1.440  0.00  0.00    -0.287 OA
ENDBRANCH   4  14
BRANCH   9  25
ATOM     25  C   UNL     1       6.087   5.994   1.377  0.00  0.00    -0.006 A 
ATOM     26  C   UNL     1       7.159   6.572   0.783  0.00  0.00    +0.011 A 
ATOM     27  C   UNL     1       8.171   7.083   1.575  0.00  0.00    +0.008 A 
ATOM     28  C   UNL     1       8.061   6.989   2.923  0.00  0.00    +0.045 A 
ATOM     29  S   UNL     1       6.487   6.166   3.109  0.00  0.00    -0.101 S 
ENDBRANCH   9  25
BRANCH   3  30
ATOM     30  C   UNL     1       0.015   1.193  -0.292  0.00  0.00    +0.338 C 
ATOM     31  O   UNL     1      -0.809   1.191   0.603  0.00  0.00    -0.245 OA
BRANCH  30  32
ATOM     32  O   UNL     1      -0.213   0.492  -1.422  0.00  0.00    -0.459 OA
BRANCH  32  33
ATOM     33  C   UNL     1      -1.444  -0.231  -1.499  0.00  0.00    +0.171 C 
ATOM     34  C   UNL     1      -2.523   0.663  -2.112  0.00  0.00    +0.052 C 
ATOM     35  C   UNL     1      -1.253  -1.472  -2.373  0.00  0.00    +0.052 C 
ENDBRANCH  32  33
ENDBRANCH  30  32
ENDBRANCH   3  30
TORSDOF 5
