REMARK  Name = ZINC14705759
REMARK  7 active torsions:
REMARK  status: ('A' for Active; 'I' for Inactive)
REMARK    1  A    between atoms: C_1  and  C_2
REMARK    2  A    between atoms: C_2  and  C_4
REMARK    3  A    between atoms: C_2  and  S_16
REMARK    4  A    between atoms: N_9  and  C_10
REMARK    5  A    between atoms: S_16  and  C_17
REMARK    6  A    between atoms: N_30  and  C_31
REMARK    7  A    between atoms: C_31  and  C_32
REMARK                            x       y       z     vdW  Elec       q    Type
REMARK                         _______ _______ _______ _____ _____    ______ ____
ROOT
ATOM      1  C   UNL     1      -0.481  -0.061  -2.851  0.00  0.00    +0.180 C 
ATOM      2  N   UNL     1      -1.476   0.772  -2.728  0.00  0.00    -0.158 NA
ATOM      3  N   UNL     1      -1.700   1.373  -3.974  0.00  0.00    -0.221 N 
ATOM      4  C   UNL     1      -0.800   0.864  -4.837  0.00  0.00    +0.121 C 
ATOM      5  C   UNL     1      -0.671   1.196  -6.202  0.00  0.00    +0.040 C 
ATOM      6  C   UNL     1      -0.842   2.456  -6.795  0.00  0.00    +0.123 C 
ATOM      7  N   UNL     1      -0.638   2.366  -8.089  0.00  0.00    -0.254 NA
ATOM      8  C   UNL     1      -0.329   1.115  -8.467  0.00  0.00    +0.072 A 
ATOM      9  C   UNL     1      -0.322   0.297  -7.311  0.00  0.00    +0.012 A 
ATOM     10  C   UNL     1      -0.024  -1.059  -7.417  0.00  0.00    +0.011 A 
ATOM     11  C   UNL     1       0.266  -1.594  -8.640  0.00  0.00    +0.001 A 
ATOM     12  C   UNL     1       0.265  -0.797  -9.779  0.00  0.00    +0.002 A 
ATOM     13  C   UNL     1      -0.033   0.532  -9.707  0.00  0.00    +0.028 A 
ATOM     14  N   UNL     1      -0.034  -0.025  -4.148  0.00  0.00    -0.263 N 
ATOM     15  H   UNL     1      -2.380   2.034  -4.178  0.00  0.00    +0.176 HD
ENDROOT
BRANCH   1  16
ATOM     16  S   UNL     1       0.184  -1.062  -1.562  0.00  0.00    -0.076 S 
BRANCH  16  18
ATOM     17  C   UNL     1      -0.609   0.813   0.264  0.00  0.00    +0.029 C 
ATOM     18  C   UNL     1      -0.833  -0.652  -0.117  0.00  0.00    +0.137 C 
BRANCH  18  19
ATOM     19  C   UNL     1      -0.444  -1.537   1.038  0.00  0.00    +0.234 C 
ATOM     20  O   UNL     1       0.667  -2.021   1.085  0.00  0.00    -0.274 OA
ATOM     21  N   UNL     1      -1.332  -1.792   2.020  0.00  0.00    -0.239 N 
ATOM     22  C   UNL     1      -0.985  -2.584   3.054  0.00  0.00    +0.310 C 
ATOM     23  O   UNL     1       0.129  -3.069   3.100  0.00  0.00    -0.252 OA
ATOM     24  N   UNL     1      -1.872  -2.839   4.035  0.00  0.00    -0.269 N 
ATOM     25  H   UNL     1      -2.221  -1.405   1.983  0.00  0.00    +0.159 HD
ATOM     26  H   UNL     1      -2.758  -2.445   4.002  0.00  0.00    +0.156 HD
BRANCH  24  27
ATOM     27  C   UNL     1      -1.515  -3.671   5.103  0.00  0.00    +0.035 A 
ATOM     28  C   UNL     1      -2.450  -4.540   5.649  0.00  0.00    +0.023 A 
ATOM     29  C   UNL     1      -2.095  -5.360   6.703  0.00  0.00    +0.002 A 
ATOM     30  C   UNL     1      -0.810  -5.316   7.212  0.00  0.00    +0.000 A 
ATOM     31  C   UNL     1       0.123  -4.451   6.670  0.00  0.00    +0.002 A 
ATOM     32  C   UNL     1      -0.225  -3.633   5.613  0.00  0.00    +0.023 A 
ENDBRANCH  24  27
ENDBRANCH  18  19
ENDBRANCH  16  18
ENDBRANCH   1  16
BRANCH  14  33
ATOM     33  C   UNL     1       1.075  -0.810  -4.697  0.00  0.00    +0.145 C 
BRANCH  33  34
ATOM     34  C   UNL     1       2.401  -0.122  -4.364  0.00  0.00    +0.136 C 
ATOM     35  C   UNL     1       3.586  -0.919  -4.966  0.00  0.00    +0.035 C 
ATOM     36  C   UNL     1       4.657   0.199  -5.094  0.00  0.00    +0.031 C 
ATOM     37  C   UNL     1       3.799   1.438  -5.427  0.00  0.00    +0.160 C 
ATOM     38  O   UNL     1       2.461   1.171  -4.985  0.00  0.00    -0.375 OA
ENDBRANCH  33  34
ENDBRANCH  14  33
TORSDOF 6
