REMARK  Name = ZINC21078366
REMARK  8 active torsions:
REMARK  status: ('A' for Active; 'I' for Inactive)
REMARK    1  A    between atoms: C_4  and  N_28
REMARK    2  A    between atoms: C_5  and  N_7
REMARK    3  A    between atoms: C_8  and  C_10
REMARK    4  A    between atoms: C_10  and  C_11
REMARK    5  A    between atoms: C_11  and  S_12
REMARK    6  A    between atoms: S_12  and  C_13
REMARK    7  A    between atoms: N_18  and  N_19
REMARK    8  A    between atoms: C_20  and  C_21
REMARK                            x       y       z     vdW  Elec       q    Type
REMARK                         _______ _______ _______ _____ _____    ______ ____
ROOT
ATOM      1  C   UNL     1      -0.030  -0.002   0.068  0.00  0.00    +0.210 A 
ATOM      2  N   UNL     1      -0.054   1.363   0.091  0.00  0.00    -0.186 NA
ATOM      3  C   UNL     1       1.239   1.809   0.072  0.00  0.00    +0.232 A 
ATOM      4  N   UNL     1       2.027   0.762   0.039  0.00  0.00    -0.245 N 
ATOM      5  N   UNL     1       1.224  -0.385   0.036  0.00  0.00    -0.144 NA
ATOM      6  N   UNL     1       1.644   3.136   0.086  0.00  0.00    -0.205 N 
ATOM      7  H   UNL     1       0.894   3.940   0.115  0.00  0.00    +0.177 HD
ATOM      8  H   UNL     1       3.119   0.896   0.019  0.00  0.00    +0.192 HD
ENDROOT
BRANCH   6   9
ATOM      9  N   UNL     1       3.009   3.451   0.064  0.00  0.00    -0.188 NA
ATOM     10  C   UNL     1       3.389   4.693   0.077  0.00  0.00    +0.138 C 
BRANCH  10  11
ATOM     11  C   UNL     1       4.825   5.025   0.053  0.00  0.00    -0.005 A 
ATOM     12  C   UNL     1       5.780   4.006   0.023  0.00  0.00    +0.010 A 
ATOM     13  C   UNL     1       7.122   4.323  -0.004  0.00  0.00    +0.016 A 
ATOM     14  C   UNL     1       7.524   5.649   0.010  0.00  0.00    +0.018 A 
ATOM     15  C   UNL     1       6.582   6.663   0.046  0.00  0.00    +0.016 A 
ATOM     16  C   UNL     1       5.237   6.360   0.068  0.00  0.00    +0.010 A 
ATOM     17 BR   UNL     1       9.366   6.074  -0.020  0.00  0.00    -0.050 Br
ENDBRANCH  10  11
ENDBRANCH   6   9
BRANCH   1  18
ATOM     18  S   UNL     1      -1.438  -1.062   0.078  0.00  0.00    -0.084 S 
BRANCH  18  19
ATOM     19  C   UNL     1      -0.729  -2.732   0.036  0.00  0.00    +0.086 C 
BRANCH  19  20
ATOM     20  C   UNL     1      -1.858  -3.765   0.041  0.00  0.00    +0.107 C 
BRANCH  20  22
ATOM     21  N   UNL     1      -2.081  -6.228   0.004  0.00  0.00    -0.284 N 
ATOM     22  C   UNL     1      -1.269  -5.152   0.006  0.00  0.00    +0.218 C 
ATOM     23  O   UNL     1      -0.066  -5.300  -0.021  0.00  0.00    -0.275 OA
ATOM     24  H   UNL     1      -3.168  -6.097   0.101  0.00  0.00    +0.155 HD
BRANCH  21  29
ATOM     25  C   UNL     1       0.217  -9.079   0.336  0.00  0.00    +0.002 A 
ATOM     26  C   UNL     1      -0.468 -10.051  -0.370  0.00  0.00    +0.002 A 
ATOM     27  C   UNL     1      -1.687  -9.757  -0.952  0.00  0.00    +0.034 A 
ATOM     28  C   UNL     1      -2.225  -8.490  -0.830  0.00  0.00    +0.147 A 
ATOM     29  C   UNL     1      -1.539  -7.512  -0.122  0.00  0.00    +0.064 A 
ATOM     30  C   UNL     1      -0.312  -7.810   0.457  0.00  0.00    +0.025 A 
BRANCH  28  31
ATOM     31  N   UNL     1      -3.530  -8.176  -1.454  0.00  0.00    +0.058 N 
ATOM     32  O   UNL     1      -4.177  -9.058  -1.989  0.00  0.00    -0.126 OA
ATOM     33  O   UNL     1      -3.956  -7.035  -1.432  0.00  0.00    -0.126 OA
ENDBRANCH  28  31
ENDBRANCH  21  29
ENDBRANCH  20  22
ENDBRANCH  19  20
ENDBRANCH  18  19
ENDBRANCH   1  18
TORSDOF 8
