REMARK  Name = ZINC42583520
REMARK  11 active torsions:
REMARK  status: ('A' for Active; 'I' for Inactive)
REMARK    1  A    between atoms: C_1  and  C_2
REMARK    2  A    between atoms: C_3  and  C_21
REMARK    3  A    between atoms: C_7  and  C_8
REMARK    4  A    between atoms: N_9  and  O_10
REMARK    5  A    between atoms: N_12  and  C_13
REMARK    6  A    between atoms: N_12  and  C_14
REMARK    7  A    between atoms: C_14  and  C_16
REMARK    8  A    between atoms: C_14  and  C_17
REMARK    9  A    between atoms: C_17  and  C_18
REMARK   10  A    between atoms: C_18  and  C_19
REMARK   11  A    between atoms: C_18  and  C_20
REMARK                            x       y       z     vdW  Elec       q    Type
REMARK                         _______ _______ _______ _____ _____    ______ ____
ROOT
ATOM      1  C   UNL     1       2.437  -0.490  -1.323  0.00  0.00    +0.046 C 
ATOM      2  C   UNL     1       1.180  -0.964  -0.639  0.00  0.00    -0.016 A 
ATOM      3  C   UNL     1      -0.071  -0.655  -1.149  0.00  0.00    +0.035 A 
ATOM      4  N   UNL     1      -1.159  -1.079  -0.536  0.00  0.00    -0.280 N 
ATOM      5  N   UNL     1      -1.120  -1.780   0.537  0.00  0.00    -0.158 NA
ATOM      6  C   UNL     1       0.022  -2.132   1.109  0.00  0.00    +0.152 A 
ATOM      7  C   UNL     1       1.240  -1.733   0.527  0.00  0.00    +0.064 A 
ATOM      8  N   UNL     1       0.018  -2.892   2.269  0.00  0.00    -0.314 N 
ATOM      9  C   UNL     1       0.113  -2.235   3.575  0.00  0.00    +0.131 C 
ATOM     10  C   UNL     1      -0.188   0.166  -2.407  0.00  0.00    +0.065 C 
ATOM     11  H   UNL     1      -2.023  -0.850  -0.911  0.00  0.00    +0.189 HD
ENDROOT
BRANCH   7  12
ATOM     12  C   UNL     1       2.537  -2.110   1.131  0.00  0.00    +0.166 C 
ATOM     13  N   UNL     1       3.038  -1.393   2.095  0.00  0.00    -0.071 NA
ATOM     14  N   UNL     1       3.217  -3.225   0.671  0.00  0.00    -0.340 N 
ATOM     15  H   UNL     1       2.843  -3.759  -0.047  0.00  0.00    +0.144 HD
ATOM     16  H   UNL     1       4.067  -3.472   1.067  0.00  0.00    +0.144 HD
BRANCH  13  17
ATOM     17  O   UNL     1       4.280  -1.754   2.672  0.00  0.00    -0.408 OA
ATOM     18  H   UNL     1       4.571  -1.162   3.380  0.00  0.00    +0.328 HD
ENDBRANCH  13  17
ENDBRANCH   7  12
BRANCH   8  19
ATOM     19  C   UNL     1      -0.082  -4.351   2.188  0.00  0.00    +0.072 C 
ATOM     20  C   UNL     1       1.155  -4.983   2.830  0.00  0.00    +0.028 C 
BRANCH  19  21
ATOM     21  C   UNL     1      -1.337  -4.818   2.929  0.00  0.00    +0.025 C 
BRANCH  21  22
ATOM     22  C   UNL     1      -2.580  -4.287   2.212  0.00  0.00    -0.015 C 
ATOM     23  C   UNL     1      -2.674  -4.916   0.821  0.00  0.00    +0.007 C 
ATOM     24  C   UNL     1      -3.828  -4.648   3.021  0.00  0.00    +0.007 C 
ENDBRANCH  21  22
ENDBRANCH  19  21
ENDBRANCH   8  19
TORSDOF 5
