REMARK  Name = ZINC09045424
REMARK  9 active torsions:
REMARK  status: ('A' for Active; 'I' for Inactive)
REMARK    1  A    between atoms: C_1  and  C_2
REMARK    2  A    between atoms: C_2  and  O_3
REMARK    3  A    between atoms: O_3  and  C_4
REMARK    4  A    between atoms: C_7  and  N_10
REMARK    5  A    between atoms: C_14  and  N_68
REMARK    6  A    between atoms: C_20  and  C_23
REMARK    7  A    between atoms: C_23  and  C_24
REMARK    8  A    between atoms: C_23  and  C_30
REMARK    9  A    between atoms: C_23  and  O_36
REMARK                            x       y       z     vdW  Elec       q    Type
REMARK                         _______ _______ _______ _____ _____    ______ ____
ROOT
ATOM      1  C   UNL     1      -2.478   7.838  -1.469  0.00  0.00    -0.077 C 
ATOM      2  C   UNL     1      -1.224   7.326  -0.757  0.00  0.00    -0.012 C 
ATOM      3  C   UNL     1      -1.225   5.795  -0.770  0.00  0.00    +0.026 C 
ATOM      4  C   UNL     1      -1.291   5.304  -2.219  0.00  0.00    -0.012 C 
ATOM      5  C   UNL     1      -2.542   5.875  -2.890  0.00  0.00    -0.077 C 
ATOM      6  N   UNL     1      -2.469   7.352  -2.865  0.00  0.00    +0.388 N 
ATOM      7  H   UNL     1      -1.595   7.649  -3.316  0.00  0.00    -0.081 HD
ENDROOT
BRANCH   6  12
ATOM      8  N   UNL     1      -3.333   9.710  -5.076  0.00  0.00    -0.212 N 
ATOM      9  C   UNL     1      -3.432   8.650  -5.888  0.00  0.00    +0.225 C 
ATOM     10  O   UNL     1      -3.379   8.687  -7.099  0.00  0.00    -0.275 OA
ATOM     11  C   UNL     1      -3.619   7.400  -5.057  0.00  0.00    +0.090 C 
ATOM     12  C   UNL     1      -3.611   7.926  -3.607  0.00  0.00    +0.029 C 
ATOM     13  C   UNL     1      -3.420   9.418  -3.772  0.00  0.00    +0.213 C 
ATOM     14  O   UNL     1      -3.357  10.222  -2.867  0.00  0.00    -0.277 OA
BRANCH   8  18
ATOM     15  C   UNL     1      -2.799  13.599  -6.488  0.00  0.00    +0.121 A 
ATOM     16  C   UNL     1      -3.985  13.246  -5.860  0.00  0.00    +0.047 A 
ATOM     17  C   UNL     1      -4.162  11.959  -5.392  0.00  0.00    +0.027 A 
ATOM     18  C   UNL     1      -3.154  11.018  -5.551  0.00  0.00    +0.044 A 
ATOM     19  C   UNL     1      -1.966  11.373  -6.175  0.00  0.00    +0.027 A 
ATOM     20  C   UNL     1      -1.791  12.659  -6.646  0.00  0.00    +0.047 A 
BRANCH  15  21
ATOM     21  O   UNL     1      -2.625  14.866  -6.948  0.00  0.00    -0.492 OA
BRANCH  21  23
ATOM     22  C   UNL     1      -1.369  16.623  -8.032  0.00  0.00    +0.048 C 
ATOM     23  C   UNL     1      -1.380  15.160  -7.585  0.00  0.00    +0.225 C 
ENDBRANCH  21  23
ENDBRANCH  15  21
ENDBRANCH   8  18
ENDBRANCH   6  12
BRANCH   3  24
ATOM     24  C   UNL     1       0.056   5.277  -0.113  0.00  0.00    +0.119 C 
BRANCH  24  25
ATOM     25  C   UNL     1       0.056   3.770  -0.130  0.00  0.00    -0.011 A 
ATOM     26  C   UNL     1       1.252   3.079  -0.193  0.00  0.00    +0.007 A 
ATOM     27  C   UNL     1       1.252   1.697  -0.207  0.00  0.00    +0.000 A 
ATOM     28  C   UNL     1       0.056   1.006  -0.159  0.00  0.00    +0.000 A 
ATOM     29  C   UNL     1      -1.141   1.696  -0.102  0.00  0.00    +0.000 A 
ATOM     30  C   UNL     1      -1.140   3.079  -0.082  0.00  0.00    +0.007 A 
ENDBRANCH  24  25
BRANCH  24  31
ATOM     31  C   UNL     1       0.122   5.763   1.312  0.00  0.00    -0.011 A 
ATOM     32  C   UNL     1      -1.044   5.992   2.018  0.00  0.00    +0.007 A 
ATOM     33  C   UNL     1      -0.984   6.434   3.327  0.00  0.00    +0.000 A 
ATOM     34  C   UNL     1       0.242   6.656   3.925  0.00  0.00    +0.000 A 
ATOM     35  C   UNL     1       1.408   6.433   3.217  0.00  0.00    +0.000 A 
ATOM     36  C   UNL     1       1.348   5.987   1.910  0.00  0.00    +0.007 A 
ENDBRANCH  24  31
BRANCH  24  37
ATOM     37  O   UNL     1       1.191   5.761  -0.835  0.00  0.00    -0.379 OA
ATOM     38  H   UNL     1       1.255   6.726  -0.865  0.00  0.00    +0.211 HD
ENDBRANCH  24  37
ENDBRANCH   3  24
TORSDOF 8
