REMARK  Name = ZINC35779144
REMARK  15 active torsions:
REMARK  status: ('A' for Active; 'I' for Inactive)
REMARK    1  A    between atoms: C_1  and  C_2
REMARK    2  A    between atoms: C_2  and  C_3
REMARK    3  A    between atoms: C_3  and  C_4
REMARK    4  A    between atoms: C_4  and  C_6
REMARK    5  A    between atoms: C_4  and  O_34
REMARK    6  A    between atoms: C_6  and  N_7
REMARK    7  A    between atoms: N_7  and  C_8
REMARK    8  A    between atoms: N_7  and  C_11
REMARK    9  A    between atoms: C_8  and  C_9
REMARK   10  A    between atoms: C_11  and  C_12
REMARK   11  A    between atoms: C_22  and  C_24
REMARK   12  A    between atoms: C_24  and  O_25
REMARK   13  A    between atoms: O_25  and  C_26
REMARK   14  A    between atoms: C_29  and  O_32
REMARK   15  A    between atoms: O_32  and  C_33
REMARK                            x       y       z     vdW  Elec       q    Type
REMARK                         _______ _______ _______ _____ _____    ______ ____
ROOT
ATOM      1  C   UNL     1       2.538  -6.077  -3.262  0.00  0.00    +0.200 C 
ATOM      2  O   UNL     1       1.939  -6.669  -2.389  0.00  0.00    -0.278 OA
ATOM      3  N   UNL     1       3.312  -6.759  -4.129  0.00  0.00    -0.292 N 
ATOM      4  C   UNL     1       4.048  -6.052  -5.188  0.00  0.00    +0.113 C 
ATOM      5  C   UNL     1       5.552  -6.221  -4.926  0.00  0.00    +0.061 C 
ATOM      6  C   UNL     1       5.815  -7.640  -4.539  0.00  0.00    -0.004 A 
ATOM      7  C   UNL     1       4.915  -8.574  -4.127  0.00  0.00    -0.014 A 
ATOM      8  C   UNL     1       5.422  -9.835  -3.814  0.00  0.00    +0.013 A 
ATOM      9  C   UNL     1       6.747 -10.080  -3.932  0.00  0.00    +0.046 A 
ATOM     10  S   UNL     1       7.363  -8.504  -4.506  0.00  0.00    -0.101 S 
ATOM     11  C   UNL     1       3.437  -8.220  -4.026  0.00  0.00    +0.144 C 
ENDROOT
BRANCH   1  12
ATOM     12  C   UNL     1       2.417  -4.580  -3.377  0.00  0.00    +0.019 C 
BRANCH  12  13
ATOM     13  N   UNL     1       1.524  -4.078  -2.325  0.00  0.00    +0.389 N 
ATOM     14  H   UNL     1       0.641  -4.565  -2.372  0.00  0.00    -0.081 HD
BRANCH  13  15
ATOM     15  C   UNL     1       1.300  -2.639  -2.517  0.00  0.00    -0.046 C 
BRANCH  15  16
ATOM     16  C   UNL     1       0.485  -2.415  -3.792  0.00  0.00    +0.098 C 
BRANCH  16  17
ATOM     17  O   UNL     1       1.279  -2.756  -4.931  0.00  0.00    -0.394 OA
ATOM     18  H   UNL     1       2.089  -2.235  -5.015  0.00  0.00    +0.210 HD
ENDBRANCH  16  17
BRANCH  16  19
ATOM     19  C   UNL     1       0.070  -0.945  -3.881  0.00  0.00    +0.029 C 
BRANCH  19  21
ATOM     20  C   UNL     1      -1.263   0.724  -5.178  0.00  0.00    +0.004 C 
ATOM     21  C   UNL     1      -0.848  -0.746  -5.089  0.00  0.00    -0.001 C 
ENDBRANCH  19  21
ENDBRANCH  16  19
ENDBRANCH  15  16
ENDBRANCH  13  15
BRANCH  13  22
ATOM     22  C   UNL     1       2.139  -4.307  -1.010  0.00  0.00    -0.051 C 
BRANCH  22  23
ATOM     23  C   UNL     1       1.165  -3.921   0.074  0.00  0.00    -0.053 C 
ATOM     24  C   UNL     1       0.852  -4.783   1.009  0.00  0.00    +0.002 C 
ENDBRANCH  22  23
ENDBRANCH  13  22
ENDBRANCH  12  13
ENDBRANCH   1  12
BRANCH  11  25
ATOM     25  C   UNL     1       2.670  -8.887  -5.170  0.00  0.00    +0.256 C 
BRANCH  25  26
ATOM     26  O   UNL     1       3.280  -8.546  -6.416  0.00  0.00    -0.490 OA
BRANCH  26  27
ATOM     27  C   UNL     1       2.717  -9.062  -7.541  0.00  0.00    +0.121 A 
ATOM     28  C   UNL     1       1.597  -9.874  -7.445  0.00  0.00    +0.049 A 
ATOM     29  C   UNL     1       1.024 -10.398  -8.588  0.00  0.00    +0.049 A 
ATOM     30  C   UNL     1       1.569 -10.111  -9.831  0.00  0.00    +0.120 A 
ATOM     31  C   UNL     1       2.688  -9.298  -9.926  0.00  0.00    +0.049 A 
ATOM     32  C   UNL     1       3.259  -8.771  -8.784  0.00  0.00    +0.049 A 
BRANCH  30  33
ATOM     33  O   UNL     1       1.006 -10.628 -10.956  0.00  0.00    -0.495 OA
ATOM     34  C   UNL     1       1.619 -10.291 -12.202  0.00  0.00    +0.277 C 
ENDBRANCH  30  33
ENDBRANCH  26  27
ENDBRANCH  25  26
ENDBRANCH  11  25
TORSDOF 13
