REMARK  Name = ZINC04988192
REMARK  12 active torsions:
REMARK  status: ('A' for Active; 'I' for Inactive)
REMARK    1  A    between atoms: C_1  and  C_2
REMARK    2  A    between atoms: C_2  and  C_3
REMARK    3  A    between atoms: C_5  and  S_12
REMARK    4  A    between atoms: C_8  and  O_9
REMARK    5  A    between atoms: O_9  and  C_10
REMARK    6  A    between atoms: C_10  and  C_11
REMARK    7  A    between atoms: S_12  and  N_15
REMARK    8  A    between atoms: N_15  and  C_16
REMARK    9  A    between atoms: C_18  and  C_23
REMARK   10  A    between atoms: C_18  and  C_24
REMARK   11  A    between atoms: C_19  and  C_21
REMARK   12  A    between atoms: C_19  and  C_22
REMARK                            x       y       z     vdW  Elec       q    Type
REMARK                         _______ _______ _______ _____ _____    ______ ____
ROOT
ATOM      1  S   UNL     1      -2.776   3.991   0.048  0.00  0.00    +0.059 S 
ATOM      2  O   UNL     1      -3.732   3.099   0.604  0.00  0.00    -0.153 OA
ATOM      3  O   UNL     1      -2.519   5.274   0.603  0.00  0.00    -0.153 OA
ENDROOT
BRANCH   1   6
ATOM      4  C   UNL     1       1.157   3.173   0.008  0.00  0.00    -0.004 A 
ATOM      5  C   UNL     1      -0.051   3.844   0.022  0.00  0.00    +0.035 A 
ATOM      6  C   UNL     1      -1.237   3.133   0.030  0.00  0.00    +0.106 A 
ATOM      7  C   UNL     1      -1.218   1.751   0.017  0.00  0.00    +0.032 A 
ATOM      8  C   UNL     1      -0.013   1.076   0.008  0.00  0.00    +0.048 A 
ATOM      9  C   UNL     1       1.179   1.786   0.000  0.00  0.00    +0.124 A 
BRANCH   4  11
ATOM     10  C   UNL     1       2.938   4.110  -1.442  0.00  0.00    +0.009 C 
ATOM     11  C   UNL     1       2.449   3.948  -0.001  0.00  0.00    +0.035 C 
ENDBRANCH   4  11
BRANCH   9  12
ATOM     12  O   UNL     1       2.366   1.125  -0.015  0.00  0.00    -0.492 OA
BRANCH  12  13
ATOM     13  C   UNL     1       2.313  -0.303  -0.022  0.00  0.00    +0.225 C 
ATOM     14  C   UNL     1       3.735  -0.867  -0.038  0.00  0.00    +0.048 C 
ENDBRANCH  12  13
ENDBRANCH   9  12
ENDBRANCH   1   6
BRANCH   1  15
ATOM     15  N   UNL     1      -3.218   4.238  -1.528  0.00  0.00    -0.187 NA
ATOM     16  H   UNL     1      -3.272   5.139  -1.882  0.00  0.00    +0.148 HD
BRANCH  15  17
ATOM     17  C   UNL     1      -3.529   3.091  -2.391  0.00  0.00    +0.074 C 
ATOM     18  C   UNL     1      -2.289   2.725  -3.208  0.00  0.00    +0.007 C 
ATOM     19  C   UNL     1      -2.590   1.547  -4.131  0.00  0.00    -0.072 C 
ATOM     20  C   UNL     1      -4.978   2.309  -4.283  0.00  0.00    -0.072 C 
ATOM     21  C   UNL     1      -4.650   3.476  -3.356  0.00  0.00    +0.007 C 
ATOM     22  C   UNL     1      -5.779   1.252  -3.513  0.00  0.00    -0.010 C 
ATOM     23  C   UNL     1      -5.894   2.849  -5.404  0.00  0.00    -0.010 C 
ATOM     24  C   UNL     1      -2.641   0.253  -3.311  0.00  0.00    -0.010 C 
ATOM     25  C   UNL     1      -1.409   1.417  -5.118  0.00  0.00    -0.010 C 
ATOM     26  N   UNL     1      -3.806   1.706  -4.973  0.00  0.00    +0.386 N 
ATOM     27  H   UNL     1      -4.080   0.777  -5.314  0.00  0.00    -0.084 HD
ATOM     28  H   UNL     1      -3.564   2.306  -5.771  0.00  0.00    -0.084 HD
ENDBRANCH  15  17
ENDBRANCH   1  15
TORSDOF 6
