REMARK  Name = ZINC24986194
REMARK  4 active torsions:
REMARK  status: ('A' for Active; 'I' for Inactive)
REMARK    1  A    between atoms: C_1  and  C_2
REMARK    2  A    between atoms: C_2  and  C_4
REMARK    3  A    between atoms: C_2  and  N_21
REMARK    4  A    between atoms: C_22  and  C_24
REMARK                            x       y       z     vdW  Elec       q    Type
REMARK                         _______ _______ _______ _____ _____    ______ ____
ROOT
ATOM      1  C   UNL     1       0.598  -0.531  -1.278  0.00  0.00    +0.236 C 
ATOM      2  O   UNL     1      -0.090  -1.163  -2.051  0.00  0.00    -0.274 OA
ATOM      3  N   UNL     1       1.893  -0.294  -1.567  0.00  0.00    -0.300 N 
ATOM      4  C   UNL     1       2.766   0.377  -0.594  0.00  0.00    +0.110 C 
ATOM      5  C   UNL     1       3.424   1.583  -1.271  0.00  0.00    +0.047 C 
ATOM      6  C   UNL     1       4.135   1.123  -2.544  0.00  0.00    +0.064 C 
ATOM      7  C   UNL     1       3.120   0.517  -3.514  0.00  0.00    +0.047 C 
ATOM      8  C   UNL     1       2.459  -0.706  -2.858  0.00  0.00    +0.110 C 
ATOM      9  C   UNL     1       4.824   2.294  -3.193  0.00  0.00    +0.057 A 
ATOM     10  C   UNL     1       6.157   2.511  -3.125  0.00  0.00    +0.039 A 
ATOM     11  N   UNL     1       6.429   3.625  -3.804  0.00  0.00    -0.349 N 
ATOM     12  C   UNL     1       5.317   4.111  -4.292  0.00  0.00    +0.171 A 
ATOM     13  N   UNL     1       4.292   3.304  -3.929  0.00  0.00    -0.348 N 
ATOM     14  H   UNL     1       3.356   3.425  -4.153  0.00  0.00    +0.166 HD
ATOM     15  C   UNL     1       7.102   1.599  -2.381  0.00  0.00    +0.070 C 
ATOM     16  C   UNL     1       6.266   0.710  -1.451  0.00  0.00    +0.088 C 
ATOM     17  N   UNL     1       5.152   0.115  -2.203  0.00  0.00    -0.305 NA
ATOM     18  H   UNL     1       4.742  -0.654  -1.694  0.00  0.00    +0.123 HD
ATOM     19  H   UNL     1       7.310   4.014  -3.918  0.00  0.00    +0.166 HD
ENDROOT
BRANCH   1  21
ATOM     20  C   UNL     1      -0.447   1.438  -0.191  0.00  0.00    +0.038 C 
ATOM     21  C   UNL     1       0.004  -0.011   0.006  0.00  0.00    +0.156 C 
BRANCH  21  22
ATOM     22  N   UNL     1      -1.148  -0.835   0.380  0.00  0.00    -0.300 N 
ATOM     23  C   UNL     1      -1.529  -0.914   1.671  0.00  0.00    +0.245 C 
ATOM     24  O   UNL     1      -0.916  -0.302   2.524  0.00  0.00    -0.270 OA
ATOM     25  H   UNL     1      -1.637  -1.323  -0.301  0.00  0.00    +0.150 HD
BRANCH  23  26
ATOM     26  C   UNL     1      -2.692  -1.746   2.049  0.00  0.00    +0.039 A 
ATOM     27  C   UNL     1      -3.393  -2.454   1.072  0.00  0.00    +0.013 A 
ATOM     28  C   UNL     1      -4.477  -3.229   1.429  0.00  0.00    +0.004 A 
ATOM     29  C   UNL     1      -4.870  -3.305   2.754  0.00  0.00    +0.038 A 
ATOM     30  C   UNL     1      -4.179  -2.605   3.729  0.00  0.00    +0.124 A 
ATOM     31  C   UNL     1      -3.088  -1.830   3.384  0.00  0.00    +0.051 A 
ATOM     32  F   UNL     1      -4.569  -2.683   5.020  0.00  0.00    -0.205 F 
ENDBRANCH  23  26
ENDBRANCH  21  22
ENDBRANCH   1  21
TORSDOF 3
