REMARK  Name = ZINC10000897
REMARK  12 active torsions:
REMARK  status: ('A' for Active; 'I' for Inactive)
REMARK    1  A    between atoms: C_1  and  C_2
REMARK    2  A    between atoms: C_2  and  C_3
REMARK    3  A    between atoms: C_2  and  C_4
REMARK    4  A    between atoms: C_4  and  C_6
REMARK    5  A    between atoms: C_4  and  N_22
REMARK    6  A    between atoms: N_8  and  N_9
REMARK    7  A    between atoms: C_10  and  C_11
REMARK    8  A    between atoms: C_14  and  O_19
REMARK    9  A    between atoms: C_16  and  O_17
REMARK   10  A    between atoms: O_17  and  C_18
REMARK   11  A    between atoms: O_19  and  C_20
REMARK   12  A    between atoms: C_23  and  C_25
REMARK                            x       y       z     vdW  Elec       q    Type
REMARK                         _______ _______ _______ _____ _____    ______ ____
ROOT
ATOM      1  C   UNL     1      -9.909  -2.460   0.473  0.00  0.00    +0.163 C 
ENDROOT
BRANCH   1   2
ATOM      2  C   UNL     1      -8.536  -1.943   0.132  0.00  0.00    +0.253 C 
ATOM      3  O   UNL     1      -8.152  -1.953  -1.019  0.00  0.00    -0.272 OA
ATOM      4  N   UNL     1      -7.732  -1.470   1.106  0.00  0.00    -0.205 N 
ATOM      5  H   UNL     1      -8.064  -1.394   2.014  0.00  0.00    +0.177 HD
BRANCH   4   6
ATOM      6  N   UNL     1      -6.418  -1.087   0.806  0.00  0.00    -0.188 NA
ATOM      7  C   UNL     1      -5.645  -0.632   1.744  0.00  0.00    +0.142 C 
BRANCH   7   8
ATOM      8  C   UNL     1      -4.263  -0.230   1.429  0.00  0.00    +0.037 A 
ATOM      9  C   UNL     1      -3.429   0.261   2.436  0.00  0.00    +0.032 A 
ATOM     10  C   UNL     1      -2.137   0.637   2.136  0.00  0.00    +0.060 A 
ATOM     11  C   UNL     1      -1.661   0.529   0.834  0.00  0.00    +0.137 A 
ATOM     12  C   UNL     1      -2.484   0.048  -0.173  0.00  0.00    +0.093 A 
ATOM     13  C   UNL     1      -3.781  -0.337   0.116  0.00  0.00    +0.132 A 
ATOM     14 BR   UNL     1      -1.008   1.302   3.500  0.00  0.00    -0.046 Br
BRANCH  13  15
ATOM     15  O   UNL     1      -4.586  -0.813  -0.868  0.00  0.00    -0.494 OA
ATOM     16  C   UNL     1      -4.027  -0.895  -2.181  0.00  0.00    +0.277 C 
ENDBRANCH  13  15
BRANCH  11  17
ATOM     17  O   UNL     1      -0.386   0.901   0.547  0.00  0.00    -0.494 OA
ATOM     18  C   UNL     1       0.039   0.765  -0.811  0.00  0.00    +0.277 C 
ENDBRANCH  11  17
ENDBRANCH   7   8
ENDBRANCH   4   6
ENDBRANCH   1   2
BRANCH   1  19
ATOM     19  N   UNL     1     -10.332  -3.429  -0.541  0.00  0.00    -0.300 N 
ATOM     20  C   UNL     1     -11.239  -4.376  -0.231  0.00  0.00    +0.245 C 
ATOM     21  O   UNL     1     -11.707  -4.427   0.891  0.00  0.00    -0.270 OA
ATOM     22  H   UNL     1      -9.960  -3.389  -1.435  0.00  0.00    +0.150 HD
BRANCH  20  23
ATOM     23  C   UNL     1     -11.666  -5.353  -1.252  0.00  0.00    +0.040 A 
ATOM     24  C   UNL     1     -11.134  -5.293  -2.543  0.00  0.00    +0.017 A 
ATOM     25  C   UNL     1     -11.529  -6.208  -3.494  0.00  0.00    +0.050 A 
ATOM     26  C   UNL     1     -12.464  -7.185  -3.178  0.00  0.00    +0.166 A 
ATOM     27  C   UNL     1     -13.002  -7.247  -1.892  0.00  0.00    +0.167 A 
ATOM     28  C   UNL     1     -12.606  -6.335  -0.933  0.00  0.00    +0.062 A 
ATOM     29  O   UNL     1     -13.888  -8.285  -1.840  0.00  0.00    -0.453 OA
ATOM     30  C   UNL     1     -14.190  -8.600  -3.212  0.00  0.00    +0.466 C 
ATOM     31  O   UNL     1     -13.012  -8.184  -3.927  0.00  0.00    -0.453 OA
ENDBRANCH  20  23
ENDBRANCH   1  19
BRANCH   1  33
ATOM     32  C   UNL     1     -11.039  -0.701  -0.895  0.00  0.00    +0.009 C 
ATOM     33  C   UNL     1     -10.899  -1.293   0.508  0.00  0.00    +0.012 C 
ATOM     34  C   UNL     1     -12.262  -1.795   0.989  0.00  0.00    +0.009 C 
ENDBRANCH   1  33
TORSDOF 8
