REMARK  Name = ZINC60362712
REMARK  6 active torsions:
REMARK  status: ('A' for Active; 'I' for Inactive)
REMARK    1  A    between atoms: N_4  and  C_7
REMARK    2  A    between atoms: C_14  and  N_16
REMARK    3  A    between atoms: C_17  and  C_19
REMARK    4  A    between atoms: C_19  and  S_20
REMARK    5  A    between atoms: S_20  and  C_21
REMARK    6  A    between atoms: N_25  and  C_26
REMARK                            x       y       z     vdW  Elec       q    Type
REMARK                         _______ _______ _______ _____ _____    ______ ____
ROOT
ATOM      1  C   UNL     1       2.930  -0.516  -2.289  0.00  0.00    -0.025 C 
ATOM      2  C   UNL     1       4.390   0.010  -2.212  0.00  0.00    +0.152 C 
ATOM      3  S   UNL     1       5.227  -1.247  -3.275  0.00  0.00    -0.031 S 
ATOM      4  O   UNL     1       5.036  -0.906  -4.641  0.00  0.00    -0.174 OA
ATOM      5  O   UNL     1       6.541  -1.474  -2.785  0.00  0.00    -0.174 OA
ATOM      6  C   UNL     1       4.165  -2.692  -2.858  0.00  0.00    +0.186 C 
ATOM      7  C   UNL     1       2.915  -2.043  -2.236  0.00  0.00    +0.082 C 
ENDROOT
BRANCH   1  11
ATOM      8  C   UNL     1      -0.019   1.527   0.010  0.00  0.00    -0.004 C 
ATOM      9  C   UNL     1       1.422   2.047  -0.001  0.00  0.00    -0.019 C 
ATOM     10  C   UNL     1       2.152   1.484  -1.221  0.00  0.00    -0.078 C 
ATOM     11  N   UNL     1       2.161   0.018  -1.157  0.00  0.00    +0.384 N 
ATOM     12  C   UNL     1       0.785  -0.491  -1.219  0.00  0.00    -0.078 C 
ATOM     13  C   UNL     1       0.002  -0.004   0.002  0.00  0.00    -0.019 C 
ATOM     14  H   UNL     1       2.589  -0.278  -0.293  0.00  0.00    -0.081 HD
ENDBRANCH   1  11
BRANCH   7  15
ATOM     15  N   UNL     1       2.814  -2.462  -0.836  0.00  0.00    -0.312 N 
ATOM     16  C   UNL     1       2.290  -3.665  -0.529  0.00  0.00    +0.224 C 
ATOM     17  O   UNL     1       1.901  -4.400  -1.412  0.00  0.00    -0.275 OA
ATOM     18  H   UNL     1       3.126  -1.875  -0.130  0.00  0.00    +0.149 HD
BRANCH  16  19
ATOM     19  C   UNL     1       2.186  -4.097   0.911  0.00  0.00    +0.173 C 
BRANCH  19  20
ATOM     20  S   UNL     1       1.444  -5.750   0.995  0.00  0.00    -0.075 S 
BRANCH  20  21
ATOM     21  C   UNL     1       1.392  -6.107   2.720  0.00  0.00    +0.210 A 
ATOM     22  N   UNL     1       1.803  -5.323   3.693  0.00  0.00    -0.101 NA
ATOM     23  N   UNL     1       1.622  -5.888   4.832  0.00  0.00    -0.022 NA
ATOM     24  N   UNL     1       1.093  -7.053   4.676  0.00  0.00    -0.043 NA
ATOM     25  N   UNL     1       0.917  -7.238   3.293  0.00  0.00    -0.217 N 
BRANCH  25  26
ATOM     26  C   UNL     1       0.345  -8.405   2.618  0.00  0.00    +0.112 C 
ATOM     27  C   UNL     1      -0.308  -9.478   3.492  0.00  0.00    +0.029 C 
ATOM     28  C   UNL     1       1.041  -9.752   2.825  0.00  0.00    +0.029 C 
ENDBRANCH  25  26
ENDBRANCH  20  21
ENDBRANCH  19  20
ENDBRANCH  16  19
ENDBRANCH   7  15
TORSDOF 6
