REMARK  Name = ZINC21152929
REMARK  13 active torsions:
REMARK  status: ('A' for Active; 'I' for Inactive)
REMARK    1  A    between atoms: C_1  and  C_2
REMARK    2  A    between atoms: C_3  and  C_30
REMARK    3  A    between atoms: C_4  and  C_29
REMARK    4  A    between atoms: C_7  and  C_8
REMARK    5  A    between atoms: C_14  and  C_17
REMARK    6  A    between atoms: N_19  and  C_20
REMARK    7  A    between atoms: C_20  and  C_22
REMARK    8  A    between atoms: C_20  and  C_23
REMARK    9  A    between atoms: C_23  and  C_24
REMARK   10  A    between atoms: C_30  and  O_32
REMARK   11  A    between atoms: O_32  and  C_33
REMARK   12  A    between atoms: C_33  and  C_34
REMARK   13  A    between atoms: C_33  and  C_35
REMARK                            x       y       z     vdW  Elec       q    Type
REMARK                         _______ _______ _______ _____ _____    ______ ____
ROOT
ATOM      1  C   UNL     1      -0.018   1.464   0.010  0.00  0.00    +0.263 C 
ATOM      2  O   UNL     1      -1.129   1.955   0.084  0.00  0.00    -0.268 OA
ATOM      3  N   UNL     1       1.067   2.260  -0.062  0.00  0.00    -0.296 N 
ATOM      4  C   UNL     1       2.405   1.687  -0.264  0.00  0.00    +0.108 C 
ATOM      5  C   UNL     1       3.334   2.200   0.840  0.00  0.00    +0.020 C 
ATOM      6  C   UNL     1       3.302   3.729   0.859  0.00  0.00    +0.016 C 
ATOM      7  C   UNL     1       1.881   4.208   1.162  0.00  0.00    +0.092 C 
ATOM      8  C   UNL     1       0.934   3.719   0.055  0.00  0.00    +0.120 C 
ENDROOT
BRANCH   1  15
ATOM      9  C   UNL     1       0.596  -0.261  -2.515  0.00  0.00    +0.047 C 
ATOM     10  C   UNL     1       0.409  -0.757  -1.105  0.00  0.00    -0.006 A 
ATOM     11  C   UNL     1       0.480  -2.100  -0.670  0.00  0.00    +0.083 A 
ATOM     12  C   UNL     1       0.240  -2.098   0.692  0.00  0.00    +0.028 A 
ATOM     13  N   UNL     1       0.037  -0.831   1.085  0.00  0.00    -0.354 N 
ATOM     14  H   UNL     1      -0.172  -0.609   2.142  0.00  0.00    +0.166 HD
ATOM     15  C   UNL     1       0.140   0.004  -0.006  0.00  0.00    +0.106 A 
ATOM     16  C   UNL     1       0.213  -3.312   1.584  0.00  0.00    +0.064 C 
BRANCH  11  17
ATOM     17  C   UNL     1       0.753  -3.279  -1.509  0.00  0.00    +0.341 C 
ATOM     18  O   UNL     1      -0.165  -3.875  -2.036  0.00  0.00    -0.245 OA
BRANCH  17  19
ATOM     19  O   UNL     1       2.021  -3.697  -1.692  0.00  0.00    -0.458 OA
BRANCH  19  20
ATOM     20  C   UNL     1       2.215  -4.865  -2.531  0.00  0.00    +0.171 C 
ATOM     21  C   UNL     1       3.574  -4.773  -3.229  0.00  0.00    +0.052 C 
ATOM     22  C   UNL     1       2.171  -6.127  -1.667  0.00  0.00    +0.052 C 
ENDBRANCH  19  20
ENDBRANCH  17  19
ENDBRANCH  11  17
ENDBRANCH   1  15
BRANCH   7  23
ATOM     23  C   UNL     1       1.857   5.715   1.212  0.00  0.00    +0.218 C 
ATOM     24  O   UNL     1       2.877   6.343   1.024  0.00  0.00    -0.275 OA
ATOM     25  N   UNL     1       0.703   6.362   1.466  0.00  0.00    -0.312 N 
ATOM     26  H   UNL     1      -0.222   5.792   1.637  0.00  0.00    +0.149 HD
BRANCH  25  27
ATOM     27  C   UNL     1       0.680   7.827   1.515  0.00  0.00    +0.077 C 
ATOM     28  C   UNL     1       0.510   8.382   0.100  0.00  0.00    +0.028 C 
BRANCH  27  29
ATOM     29  C   UNL     1      -0.487   8.290   2.389  0.00  0.00    +0.096 C 
BRANCH  29  30
ATOM     30  C   UNL     1      -0.257   7.846   3.811  0.00  0.00    +0.107 A 
ATOM     31  C   UNL     1       0.392   8.547   4.758  0.00  0.00    +0.045 A 
ATOM     32  C   UNL     1       0.371   7.763   5.934  0.00  0.00    +0.041 A 
ATOM     33  C   UNL     1      -0.283   6.627   5.633  0.00  0.00    +0.195 A 
ATOM     34  O   UNL     1      -0.661   6.683   4.346  0.00  0.00    -0.468 OA
ENDBRANCH  29  30
ENDBRANCH  27  29
ENDBRANCH  25  27
ENDBRANCH   7  23
TORSDOF 8
