REMARK  Name = ZINC44680720
REMARK  4 active torsions:
REMARK  status: ('A' for Active; 'I' for Inactive)
REMARK    1  A    between atoms: C_3  and  S_8
REMARK    2  A    between atoms: S_8  and  N_11
REMARK    3  A    between atoms: N_11  and  C_12
REMARK    4  A    between atoms: N_16  and  C_18
REMARK                            x       y       z     vdW  Elec       q    Type
REMARK                         _______ _______ _______ _____ _____    ______ ____
ROOT
ATOM      1  S   UNL     1       4.057   2.032   1.092  0.00  0.00    +0.031 S 
ATOM      2  O   UNL     1       4.040   3.364   1.586  0.00  0.00    -0.158 OA
ATOM      3  O   UNL     1       2.860   1.410   0.644  0.00  0.00    -0.158 OA
ENDROOT
BRANCH   1   6
ATOM      4  C   UNL     1       6.169   2.593  -2.393  0.00  0.00    -0.017 C 
ATOM      5  C   UNL     1       5.025   2.697  -1.380  0.00  0.00    +0.024 C 
ATOM      6  C   UNL     1       5.362   1.844  -0.154  0.00  0.00    +0.131 C 
ATOM      7  C   UNL     1       6.698   2.307   0.431  0.00  0.00    -0.055 C 
ATOM      8  N   UNL     1       7.755   2.158  -0.577  0.00  0.00    +0.380 N 
ATOM      9  C   UNL     1       7.475   3.028  -1.725  0.00  0.00    -0.082 C 
ATOM     10  H   UNL     1       8.643   2.413  -0.172  0.00  0.00    -0.086 HD
ATOM     11  H   UNL     1       7.792   1.197  -0.885  0.00  0.00    -0.086 HD
ENDBRANCH   1   6
BRANCH   1  12
ATOM     12  N   UNL     1       4.557   1.111   2.374  0.00  0.00    -0.193 NA
ATOM     13  H   UNL     1       4.778   1.535   3.219  0.00  0.00    +0.148 HD
BRANCH  12  14
ATOM     14  C   UNL     1       4.667  -0.343   2.233  0.00  0.00    +0.058 C 
ATOM     15  C   UNL     1       3.422  -1.035   2.833  0.00  0.00    -0.000 C 
ATOM     16  C   UNL     1       4.021  -2.285   3.526  0.00  0.00    -0.077 C 
ATOM     17  N   UNL     1       5.305  -1.784   4.080  0.00  0.00    +0.383 N 
ATOM     18  C   UNL     1       5.859  -0.870   3.054  0.00  0.00    -0.058 C 
ATOM     19  H   UNL     1       5.141  -1.284   4.941  0.00  0.00    -0.081 HD
BRANCH  17  20
ATOM     20  C   UNL     1       6.228  -2.903   4.311  0.00  0.00    -0.069 C 
ATOM     21  C   UNL     1       6.585  -3.237   5.761  0.00  0.00    -0.017 C 
ATOM     22  C   UNL     1       7.620  -2.571   4.852  0.00  0.00    -0.017 C 
ENDBRANCH  17  20
ENDBRANCH  12  14
ENDBRANCH   1  12
TORSDOF 4
