REMARK  Name = ZINC17194532
REMARK  3 active torsions:
REMARK  status: ('A' for Active; 'I' for Inactive)
REMARK    1  A    between atoms: C_1  and  C_2
REMARK    2  A    between atoms: C_6  and  N_8
REMARK    3  A    between atoms: C_10  and  C_17
REMARK                            x       y       z     vdW  Elec       q    Type
REMARK                         _______ _______ _______ _____ _____    ______ ____
ROOT
ATOM      1  N   UNL     1       0.050  -2.798   2.394  0.00  0.00    -0.229 N 
ATOM      2  C   UNL     1      -0.036  -4.169   2.382  0.00  0.00    +0.267 A 
ATOM      3  C   UNL     1      -0.020  -4.852   3.562  0.00  0.00    +0.073 A 
ATOM      4  C   UNL     1       0.084  -4.134   4.766  0.00  0.00    +0.260 A 
ATOM      5  O   UNL     1       0.100  -4.724   5.833  0.00  0.00    -0.267 OA
ATOM      6  N   UNL     1       0.167  -2.789   4.734  0.00  0.00    -0.274 N 
ATOM      7  H   UNL     1       0.239  -2.291   5.563  0.00  0.00    +0.173 HD
ATOM      8  C   UNL     1       0.155  -2.132   3.559  0.00  0.00    +0.337 A 
ATOM      9  O   UNL     1       0.235  -0.919   3.551  0.00  0.00    -0.246 OA
ATOM     10  O   UNL     1      -0.136  -4.834   1.212  0.00  0.00    -0.267 OA
ENDROOT
BRANCH   3  11
ATOM     11  C   UNL     1      -0.114  -6.356   3.575  0.00  0.00    +0.018 C 
ATOM     12  C   UNL     1      -1.397  -6.778   4.250  0.00  0.00    +0.011 A 
ATOM     13  C   UNL     1      -1.460  -7.803   5.131  0.00  0.00    -0.022 A 
ATOM     14  C   UNL     1      -2.834  -7.908   5.567  0.00  0.00    +0.003 A 
ATOM     15  C   UNL     1      -3.488  -8.765   6.458  0.00  0.00    +0.010 A 
ATOM     16  C   UNL     1      -4.835  -8.569   6.634  0.00  0.00    +0.001 A 
ATOM     17  C   UNL     1      -5.528  -7.572   5.967  0.00  0.00    +0.002 A 
ATOM     18  C   UNL     1      -4.907  -6.710   5.080  0.00  0.00    +0.026 A 
ATOM     19  C   UNL     1      -3.539  -6.885   4.881  0.00  0.00    +0.047 A 
ATOM     20  N   UNL     1      -2.638  -6.225   4.095  0.00  0.00    -0.359 N 
ATOM     21  H   UNL     1      -2.847  -5.477   3.514  0.00  0.00    +0.166 HD
ATOM     22  C   UNL     1      -0.263  -8.632   5.522  0.00  0.00    +0.018 C 
ATOM     23  C   UNL     1       0.849  -8.364   4.498  0.00  0.00    -0.076 C 
ATOM     24  N   UNL     1       1.022  -6.915   4.324  0.00  0.00    +0.388 N 
ATOM     25  H   UNL     1       1.877  -6.737   3.818  0.00  0.00    -0.084 HD
ATOM     26  H   UNL     1       1.074  -6.475   5.230  0.00  0.00    -0.084 HD
ENDBRANCH   3  11
BRANCH   1  32
ATOM     27  C   UNL     1       2.500  -0.810  -1.378  0.00  0.00    +0.044 C 
ATOM     28  C   UNL     1       1.208  -1.112  -0.663  0.00  0.00    -0.048 A 
ATOM     29  C   UNL     1       0.006  -0.688  -1.200  0.00  0.00    +0.003 A 
ATOM     30  C   UNL     1      -1.181  -0.963  -0.546  0.00  0.00    +0.002 A 
ATOM     31  C   UNL     1      -1.169  -1.662   0.645  0.00  0.00    +0.026 A 
ATOM     32  C   UNL     1       0.035  -2.089   1.186  0.00  0.00    +0.055 A 
ATOM     33  C   UNL     1       1.226  -1.816   0.524  0.00  0.00    +0.029 A 
ENDBRANCH   1  32
TORSDOF 2
