REMARK  Name = ZINC15943830
REMARK  11 active torsions:
REMARK  status: ('A' for Active; 'I' for Inactive)
REMARK    1  A    between atoms: C_1  and  C_2
REMARK    2  A    between atoms: C_2  and  C_3
REMARK    3  A    between atoms: C_3  and  C_4
REMARK    4  A    between atoms: C_3  and  C_5
REMARK    5  A    between atoms: C_3  and  N_6
REMARK    6  A    between atoms: C_7  and  C_9
REMARK    7  A    between atoms: C_9  and  N_10
REMARK    8  A    between atoms: C_14  and  S_20
REMARK    9  A    between atoms: S_20  and  N_23
REMARK   10  A    between atoms: C_25  and  C_32
REMARK   11  A    between atoms: C_28  and  C_31
REMARK                            x       y       z     vdW  Elec       q    Type
REMARK                         _______ _______ _______ _____ _____    ______ ____
ROOT
ATOM      1  N   UNL     1       2.027  -4.602  -3.498  0.00  0.00    -0.265 N 
ATOM      2  C   UNL     1       1.435  -4.873  -4.732  0.00  0.00    +0.091 A 
ATOM      3  C   UNL     1       0.132  -4.799  -5.198  0.00  0.00    +0.031 A 
ATOM      4  C   UNL     1      -0.150  -5.143  -6.506  0.00  0.00    +0.031 A 
ATOM      5  C   UNL     1       0.864  -5.562  -7.349  0.00  0.00    +0.109 A 
ATOM      6  C   UNL     1       2.165  -5.639  -6.891  0.00  0.00    +0.077 A 
ATOM      7  C   UNL     1       2.458  -5.295  -5.581  0.00  0.00    +0.159 A 
ATOM      8  O   UNL     1       3.610  -5.270  -4.867  0.00  0.00    -0.407 OA
ATOM      9  C   UNL     1       3.347  -4.849  -3.620  0.00  0.00    +0.422 A 
ATOM     10  O   UNL     1       4.171  -4.713  -2.736  0.00  0.00    -0.223 OA
ENDROOT
BRANCH   5  11
ATOM     11  S   UNL     1       0.494  -6.000  -9.015  0.00  0.00    +0.061 S 
ATOM     12  O   UNL     1       1.525  -6.880  -9.443  0.00  0.00    -0.153 OA
ATOM     13  O   UNL     1      -0.879  -6.366  -9.044  0.00  0.00    -0.153 OA
BRANCH  11  14
ATOM     14  N   UNL     1       0.636  -4.625  -9.927  0.00  0.00    -0.176 NA
ATOM     15  C   UNL     1      -0.518  -3.740 -10.131  0.00  0.00    +0.112 C 
ATOM     16  C   UNL     1      -0.712  -3.522 -11.635  0.00  0.00    +0.002 C 
ATOM     17  C   UNL     1       0.593  -3.004 -12.244  0.00  0.00    +0.009 C 
ATOM     18  C   UNL     1       1.698  -4.043 -12.045  0.00  0.00    +0.002 C 
ATOM     19  C   UNL     1       1.921  -4.264 -10.541  0.00  0.00    +0.112 C 
ATOM     20  C   UNL     1       2.994  -3.539 -12.684  0.00  0.00    +0.009 C 
ATOM     21  C   UNL     1      -1.825  -2.497 -11.863  0.00  0.00    +0.009 C 
ENDBRANCH  11  14
ENDBRANCH   5  11
BRANCH   1  22
ATOM     22  C   UNL     1       1.341  -4.130  -2.293  0.00  0.00    +0.224 C 
BRANCH  22  24
ATOM     23  N   UNL     1       0.738  -1.962  -1.265  0.00  0.00    -0.309 N 
ATOM     24  C   UNL     1       1.321  -2.623  -2.285  0.00  0.00    +0.233 C 
ATOM     25  O   UNL     1       1.829  -2.004  -3.196  0.00  0.00    -0.274 OA
ATOM     26  H   UNL     1       0.332  -2.457  -0.536  0.00  0.00    +0.149 HD
BRANCH  23  27
ATOM     27  C   UNL     1       0.718  -0.497  -1.257  0.00  0.00    +0.029 C 
ATOM     28  C   UNL     1      -0.022   0.009  -2.496  0.00  0.00    +0.031 C 
ATOM     29  C   UNL     1       2.154   0.032  -1.268  0.00  0.00    +0.031 C 
BRANCH  27  31
ATOM     30  C   UNL     1      -0.019   1.526   0.010  0.00  0.00    +0.006 C 
ATOM     31  C   UNL     1       0.002  -0.004   0.002  0.00  0.00    +0.022 C 
ENDBRANCH  27  31
ENDBRANCH  23  27
ENDBRANCH  22  24
ENDBRANCH   1  22
TORSDOF 6
