REMARK  Name = ZINC16753279
REMARK  5 active torsions:
REMARK  status: ('A' for Active; 'I' for Inactive)
REMARK    1  A    between atoms: C_4  and  O_33
REMARK    2  A    between atoms: C_5  and  C_7
REMARK    3  A    between atoms: N_15  and  C_26
REMARK    4  A    between atoms: C_16  and  C_18
REMARK    5  A    between atoms: C_26  and  C_27
REMARK                            x       y       z     vdW  Elec       q    Type
REMARK                         _______ _______ _______ _____ _____    ______ ____
ROOT
ATOM      1  C   UNL     1       5.967  -3.442   2.360  0.00  0.00    +0.102 A 
ATOM      2  C   UNL     1       5.324  -2.386   1.704  0.00  0.00    +0.035 A 
ATOM      3  C   UNL     1       4.878  -2.905   0.504  0.00  0.00    +0.126 A 
ATOM      4  N   UNL     1       5.261  -4.216   0.491  0.00  0.00    -0.272 N 
ATOM      5  H   UNL     1       5.081  -4.860  -0.253  0.00  0.00    +0.189 HD
ATOM      6  N   UNL     1       5.889  -4.499   1.576  0.00  0.00    -0.173 NA
ATOM      7  C   UNL     1       4.190  -1.842  -0.237  0.00  0.00    +0.266 C 
ATOM      8  O   UNL     1       3.681  -1.977  -1.334  0.00  0.00    -0.268 OA
ATOM      9  N   UNL     1       4.202  -0.696   0.468  0.00  0.00    -0.283 N 
ATOM     10  C   UNL     1       4.914  -0.940   1.730  0.00  0.00    +0.141 C 
ENDROOT
BRANCH  10  11
ATOM     11  C   UNL     1       3.999  -0.684   2.899  0.00  0.00    -0.021 A 
ATOM     12  C   UNL     1       2.675  -1.079   2.840  0.00  0.00    +0.007 A 
ATOM     13  C   UNL     1       1.836  -0.850   3.913  0.00  0.00    +0.022 A 
ATOM     14  C   UNL     1       2.317  -0.215   5.045  0.00  0.00    +0.059 A 
ATOM     15  C   UNL     1       3.641   0.185   5.102  0.00  0.00    +0.060 A 
ATOM     16  C   UNL     1       4.481  -0.050   4.028  0.00  0.00    +0.027 A 
ATOM     17 CL   UNL     1       4.247   0.982   6.521  0.00  0.00    -0.082 Cl
ATOM     18 CL   UNL     1       1.262   0.079   6.391  0.00  0.00    -0.082 Cl
ENDBRANCH  10  11
BRANCH   1  23
ATOM     19  C   UNL     1       7.229  -2.141   5.654  0.00  0.00    +0.001 A 
ATOM     20  C   UNL     1       7.829  -3.270   6.183  0.00  0.00    +0.004 A 
ATOM     21  C   UNL     1       7.827  -4.457   5.475  0.00  0.00    +0.046 A 
ATOM     22  C   UNL     1       7.219  -4.522   4.232  0.00  0.00    +0.126 A 
ATOM     23  C   UNL     1       6.617  -3.382   3.693  0.00  0.00    +0.044 A 
ATOM     24  C   UNL     1       6.624  -2.191   4.415  0.00  0.00    +0.014 A 
BRANCH  22  25
ATOM     25  O   UNL     1       7.212  -5.690   3.537  0.00  0.00    -0.506 OA
ATOM     26  H   UNL     1       7.974  -5.805   2.953  0.00  0.00    +0.292 HD
ENDBRANCH  22  25
ENDBRANCH   1  23
BRANCH   9  27
ATOM     27  C   UNL     1       3.613   0.577   0.047  0.00  0.00    +0.140 C 
BRANCH  27  28
ATOM     28  C   UNL     1       2.161   0.650   0.525  0.00  0.00    +0.136 C 
ATOM     29  C   UNL     1       1.477   1.937  -0.002  0.00  0.00    +0.035 C 
ATOM     30  C   UNL     1      -0.019   1.537   0.011  0.00  0.00    +0.031 C 
ATOM     31  C   UNL     1       0.002  -0.004   0.002  0.00  0.00    +0.160 C 
ATOM     32  O   UNL     1       1.379  -0.412  -0.062  0.00  0.00    -0.375 OA
ENDBRANCH  27  28
ENDBRANCH   9  27
TORSDOF 5
