REMARK  Name = ZINC45961973
REMARK  8 active torsions:
REMARK  status: ('A' for Active; 'I' for Inactive)
REMARK    1  A    between atoms: C_1  and  C_2
REMARK    2  A    between atoms: C_2  and  N_3
REMARK    3  A    between atoms: N_3  and  C_4
REMARK    4  A    between atoms: C_14  and  N_15
REMARK    5  A    between atoms: N_15  and  S_16
REMARK    6  A    between atoms: S_16  and  C_19
REMARK    7  A    between atoms: C_22  and  C_25
REMARK    8  A    between atoms: C_25  and  C_27
REMARK                            x       y       z     vdW  Elec       q    Type
REMARK                         _______ _______ _______ _____ _____    ______ ____
ROOT
ATOM      1  C   UNL     1      -0.419  -0.397   0.521  0.00  0.00    +0.068 A 
ATOM      2  C   UNL     1      -0.183  -0.248   1.966  0.00  0.00    +0.040 A 
ATOM      3  C   UNL     1      -0.149   1.014   2.563  0.00  0.00    +0.013 A 
ATOM      4  C   UNL     1       0.073   1.121   3.918  0.00  0.00    +0.001 A 
ATOM      5  C   UNL     1       0.264  -0.017   4.687  0.00  0.00    +0.004 A 
ATOM      6  C   UNL     1       0.234  -1.270   4.110  0.00  0.00    +0.047 A 
ATOM      7  C   UNL     1       0.011  -1.399   2.745  0.00  0.00    +0.141 A 
ATOM      8  O   UNL     1      -0.022  -2.620   2.167  0.00  0.00    -0.421 OA
ATOM      9  C   UNL     1      -0.235  -2.776   0.851  0.00  0.00    +0.362 A 
ATOM     10  O   UNL     1      -0.254  -3.902   0.383  0.00  0.00    -0.243 OA
ATOM     11  C   UNL     1      -0.444  -1.677  -0.001  0.00  0.00    +0.154 A 
ENDROOT
BRANCH   1  12
ATOM     12  N   UNL     1      -0.615   0.709  -0.288  0.00  0.00    -0.342 N 
ATOM     13  H   UNL     1      -0.702   1.590   0.108  0.00  0.00    +0.146 HD
BRANCH  12  15
ATOM     14  C   UNL     1      -0.602   1.921  -2.412  0.00  0.00    +0.024 C 
ATOM     15  C   UNL     1      -0.691   0.548  -1.742  0.00  0.00    +0.098 C 
ENDBRANCH  12  15
ENDBRANCH   1  12
BRANCH  11  16
ATOM     16  N   UNL     1      -0.671  -1.878  -1.375  0.00  0.00    -0.208 N 
ATOM     17  H   UNL     1      -0.973  -1.141  -1.929  0.00  0.00    +0.174 HD
BRANCH  16  18
ATOM     18  S   UNL     1      -0.424  -3.372  -2.045  0.00  0.00    +0.073 S 
ATOM     19  O   UNL     1      -0.670  -3.238  -3.438  0.00  0.00    -0.150 OA
ATOM     20  O   UNL     1       0.812  -3.848  -1.532  0.00  0.00    -0.150 OA
BRANCH  18  21
ATOM     21  C   UNL     1      -1.676  -4.439  -1.413  0.00  0.00    +0.109 A 
ATOM     22  C   UNL     1      -1.321  -5.553  -0.672  0.00  0.00    +0.029 A 
ATOM     23  C   UNL     1      -2.294  -6.393  -0.174  0.00  0.00    +0.013 A 
ATOM     24  C   UNL     1      -3.643  -6.118  -0.420  0.00  0.00    +0.017 A 
ATOM     25  C   UNL     1      -3.994  -4.991  -1.170  0.00  0.00    +0.013 A 
ATOM     26  C   UNL     1      -3.009  -4.157  -1.657  0.00  0.00    +0.029 A 
BRANCH  24  27
ATOM     27  C   UNL     1      -4.688  -7.010   0.106  0.00  0.00    +0.160 C 
ATOM     28  O   UNL     1      -4.380  -7.987   0.756  0.00  0.00    -0.292 OA
ATOM     29  C   UNL     1      -6.140  -6.710  -0.161  0.00  0.00    +0.091 C 
ENDBRANCH  24  27
ENDBRANCH  18  21
ENDBRANCH  16  18
ENDBRANCH  11  16
TORSDOF 6
