REMARK  Name = ZINC04044005
REMARK  8 active torsions:
REMARK  status: ('A' for Active; 'I' for Inactive)
REMARK    1  A    between atoms: C_1  and  C_2
REMARK    2  A    between atoms: N_4  and  C_5
REMARK    3  A    between atoms: C_7  and  O_28
REMARK    4  A    between atoms: C_9  and  O_27
REMARK    5  A    between atoms: C_11  and  C_25
REMARK    6  A    between atoms: C_14  and  O_16
REMARK    7  A    between atoms: O_16  and  C_17
REMARK    8  A    between atoms: C_25  and  O_26
REMARK                            x       y       z     vdW  Elec       q    Type
REMARK                         _______ _______ _______ _____ _____    ______ ____
ROOT
ATOM      1  C   UNL     1      -1.290   1.681   0.017  0.00  0.00    +0.173 C 
ATOM      2  C   UNL     1      -2.374   0.783   0.621  0.00  0.00    +0.172 C 
ATOM      3  C   UNL     1      -3.720   1.511   0.554  0.00  0.00    +0.176 C 
ATOM      4  C   UNL     1      -4.018   1.885  -0.900  0.00  0.00    +0.179 C 
ATOM      5  O   UNL     1      -2.956   2.694  -1.410  0.00  0.00    -0.332 OA
ATOM      6  C   UNL     1      -1.681   2.048  -1.416  0.00  0.00    +0.331 C 
ENDROOT
BRANCH   1  10
ATOM      7  C   UNL     1       2.462   0.920  -0.017  0.00  0.00    +0.109 C 
ATOM      8  C   UNL     1       1.147   1.655   0.000  0.00  0.00    +0.210 C 
ATOM      9  O   UNL     1       1.130   2.868   0.007  0.00  0.00    -0.276 OA
ATOM     10  N   UNL     1      -0.011   0.966   0.007  0.00  0.00    -0.304 N 
ATOM     11  H   UNL     1       0.002  -0.004   0.002  0.00  0.00    +0.149 HD
ENDBRANCH   1  10
BRANCH   3  12
ATOM     12  O   UNL     1      -4.752   0.655   1.048  0.00  0.00    -0.387 OA
ATOM     13  H   UNL     1      -5.634   1.052   1.031  0.00  0.00    +0.210 HD
ENDBRANCH   3  12
BRANCH   2  14
ATOM     14  O   UNL     1      -2.053   0.495   1.983  0.00  0.00    -0.387 OA
ATOM     15  H   UNL     1      -2.698  -0.071   2.428  0.00  0.00    +0.210 HD
ENDBRANCH   2  14
BRANCH   6  16
ATOM     16  O   UNL     1      -0.702   2.932  -1.966  0.00  0.00    -0.460 OA
BRANCH  16  17
ATOM     17  C   UNL     1      -0.845   3.274  -3.275  0.00  0.00    +0.142 A 
ATOM     18  C   UNL     1      -1.902   2.765  -4.014  0.00  0.00    +0.049 A 
ATOM     19  C   UNL     1      -2.049   3.118  -5.341  0.00  0.00    +0.023 A 
ATOM     20  C   UNL     1      -1.136   3.969  -5.938  0.00  0.00    +0.043 A 
ATOM     21  C   UNL     1      -0.077   4.474  -5.204  0.00  0.00    +0.043 A 
ATOM     22  C   UNL     1       0.070   4.128  -3.873  0.00  0.00    +0.084 A 
ATOM     23 CL   UNL     1       1.399   4.761  -2.953  0.00  0.00    -0.080 Cl
ATOM     24 CL   UNL     1      -1.319   4.405  -7.608  0.00  0.00    -0.083 Cl
ENDBRANCH  16  17
ENDBRANCH   6  16
BRANCH   4  25
ATOM     25  C   UNL     1      -5.332   2.666  -0.967  0.00  0.00    +0.190 C 
BRANCH  25  26
ATOM     26  O   UNL     1      -5.669   2.915  -2.333  0.00  0.00    -0.392 OA
ATOM     27  H   UNL     1      -6.493   3.407  -2.452  0.00  0.00    +0.210 HD
ENDBRANCH  25  26
ENDBRANCH   4  25
TORSDOF 7
