REMARK  Name = ZINC11866243
REMARK  12 active torsions:
REMARK  status: ('A' for Active; 'I' for Inactive)
REMARK    1  A    between atoms: C_1  and  C_2
REMARK    2  A    between atoms: C_5  and  C_34
REMARK    3  A    between atoms: C_9  and  C_10
REMARK    4  A    between atoms: C_9  and  N_64
REMARK    5  A    between atoms: C_11  and  O_33
REMARK    6  A    between atoms: C_18  and  C_19
REMARK    7  A    between atoms: C_22  and  O_29
REMARK    8  A    between atoms: C_23  and  O_27
REMARK    9  A    between atoms: C_24  and  O_25
REMARK   10  A    between atoms: O_25  and  C_26
REMARK   11  A    between atoms: O_27  and  C_28
REMARK   12  A    between atoms: O_29  and  C_30
REMARK                            x       y       z     vdW  Elec       q    Type
REMARK                         _______ _______ _______ _____ _____    ______ ____
ROOT
ATOM      1  C   UNL     1      -0.765  -3.473   1.137  0.00  0.00    +0.020 A 
ATOM      2  C   UNL     1      -1.334  -4.729   1.270  0.00  0.00    +0.122 A 
ATOM      3  C   UNL     1      -2.704  -4.908   1.099  0.00  0.00    +0.046 A 
ATOM      4  C   UNL     1      -3.503  -3.842   0.796  0.00  0.00    +0.019 A 
ATOM      5  C   UNL     1      -2.944  -2.571   0.659  0.00  0.00    +0.068 A 
ATOM      6  C   UNL     1      -1.564  -2.378   0.830  0.00  0.00    +0.144 A 
ATOM      7  O   UNL     1      -1.261  -1.074   0.649  0.00  0.00    -0.451 OA
ATOM      8  C   UNL     1      -2.360  -0.338   0.359  0.00  0.00    +0.176 C 
ATOM      9  C   UNL     1      -2.391   1.000   0.123  0.00  0.00    +0.062 C 
ATOM     10  C   UNL     1      -3.513  -1.246   0.351  0.00  0.00    +0.231 C 
ATOM     11  O   UNL     1      -4.681  -0.968   0.137  0.00  0.00    -0.283 OA
ENDROOT
BRANCH   9  12
ATOM     12  C   UNL     1      -1.139   1.757   0.031  0.00  0.00    +0.024 A 
ATOM     13  C   UNL     1       0.077   1.086  -0.164  0.00  0.00    +0.015 A 
ATOM     14  C   UNL     1       1.249   1.799  -0.256  0.00  0.00    +0.050 A 
ATOM     15  C   UNL     1       1.236   3.187  -0.152  0.00  0.00    +0.165 A 
ATOM     16  C   UNL     1       0.038   3.865   0.047  0.00  0.00    +0.204 A 
ATOM     17  C   UNL     1      -1.151   3.158   0.142  0.00  0.00    +0.172 A 
BRANCH  17  18
ATOM     18  O   UNL     1      -2.322   3.817   0.337  0.00  0.00    -0.491 OA
ATOM     19  C   UNL     1      -3.020   4.257  -0.830  0.00  0.00    +0.277 C 
ENDBRANCH  17  18
BRANCH  16  20
ATOM     20  O   UNL     1       0.033   5.222   0.148  0.00  0.00    -0.488 OA
ATOM     21  C   UNL     1       0.184   5.776   1.456  0.00  0.00    +0.277 C 
ENDBRANCH  16  20
BRANCH  15  22
ATOM     22  O   UNL     1       2.400   3.882  -0.245  0.00  0.00    -0.491 OA
ATOM     23  C   UNL     1       3.594   3.124  -0.449  0.00  0.00    +0.277 C 
ENDBRANCH  15  22
ENDBRANCH   9  12
BRANCH   2  24
ATOM     24  O   UNL     1      -0.549  -5.795   1.570  0.00  0.00    -0.506 OA
ATOM     25  H   UNL     1      -0.449  -5.955   2.519  0.00  0.00    +0.292 HD
ENDBRANCH   2  24
BRANCH   1  26
ATOM     26  C   UNL     1       0.719  -3.294   1.325  0.00  0.00    -0.036 C 
BRANCH  26  34
ATOM     27  C   UNL     1       0.052  -0.141   5.041  0.00  0.00    +0.005 C 
ATOM     28  C   UNL     1       0.622  -1.502   4.635  0.00  0.00    -0.031 C 
ATOM     29  C   UNL     1       2.115  -1.551   4.971  0.00  0.00    +0.003 C 
ATOM     30  C   UNL     1       2.691  -2.892   4.508  0.00  0.00    -0.031 C 
ATOM     31  C   UNL     1       2.445  -3.056   3.006  0.00  0.00    -0.075 C 
ATOM     32  C   UNL     1       0.436  -1.706   3.130  0.00  0.00    -0.075 C 
ATOM     33  C   UNL     1       4.195  -2.925   4.786  0.00  0.00    +0.005 C 
ATOM     34  N   UNL     1       0.988  -3.024   2.753  0.00  0.00    +0.383 N 
ATOM     35  H   UNL     1       0.535  -3.750   3.321  0.00  0.00    -0.081 HD
ENDBRANCH  26  34
ENDBRANCH   1  26
TORSDOF 7
