REMARK  Name = ZINC13752132
REMARK  14 active torsions:
REMARK  status: ('A' for Active; 'I' for Inactive)
REMARK    1  A    between atoms: C_1  and  C_2
REMARK    2  A    between atoms: C_3  and  C_13
REMARK    3  A    between atoms: C_4  and  C_12
REMARK    4  A    between atoms: C_7  and  C_8
REMARK    5  A    between atoms: C_8  and  O_10
REMARK    6  A    between atoms: O_10  and  C_11
REMARK    7  A    between atoms: C_13  and  C_15
REMARK    8  A    between atoms: N_19  and  C_30
REMARK    9  A    between atoms: C_20  and  C_22
REMARK   10  A    between atoms: C_30  and  C_31
REMARK   11  A    between atoms: C_31  and  C_32
REMARK   12  A    between atoms: C_32  and  N_33
REMARK   13  A    between atoms: N_33  and  C_34
REMARK   14  A    between atoms: N_33  and  C_35
REMARK                            x       y       z     vdW  Elec       q    Type
REMARK                         _______ _______ _______ _____ _____    ______ ____
ROOT
ATOM      1  C   UNL     1       0.283  -2.352  -3.472  0.00  0.00    +0.076 C 
ATOM      2  C   UNL     1       0.391  -2.374  -4.820  0.00  0.00    +0.249 C 
ATOM      3  C   UNL     1      -0.104  -3.672  -5.326  0.00  0.00    +0.288 C 
ATOM      4  O   UNL     1      -0.137  -3.997  -6.496  0.00  0.00    -0.266 OA
ATOM      5  N   UNL     1      -0.512  -4.439  -4.300  0.00  0.00    -0.284 N 
ATOM      6  C   UNL     1      -0.300  -3.684  -3.059  0.00  0.00    +0.145 C 
ATOM      7  O   UNL     1       0.875  -1.368  -5.584  0.00  0.00    -0.282 OA
ENDROOT
BRANCH   6   8
ATOM      8  C   UNL     1       0.665  -4.416  -2.162  0.00  0.00    -0.021 A 
ATOM      9  C   UNL     1       1.831  -4.943  -2.685  0.00  0.00    +0.007 A 
ATOM     10  C   UNL     1       2.716  -5.615  -1.863  0.00  0.00    +0.022 A 
ATOM     11  C   UNL     1       2.435  -5.760  -0.516  0.00  0.00    +0.059 A 
ATOM     12  C   UNL     1       1.268  -5.232   0.008  0.00  0.00    +0.060 A 
ATOM     13  C   UNL     1       0.385  -4.555  -0.816  0.00  0.00    +0.027 A 
ATOM     14 CL   UNL     1       0.913  -5.414   1.697  0.00  0.00    -0.082 Cl
ATOM     15 CL   UNL     1       3.546  -6.604   0.516  0.00  0.00    -0.082 Cl
ENDBRANCH   6   8
BRANCH   1  16
ATOM     16  C   UNL     1       0.664  -1.251  -2.581  0.00  0.00    +0.197 C 
ATOM     17  O   UNL     1       1.807  -1.167  -2.170  0.00  0.00    -0.287 OA
BRANCH  16  20
ATOM     18  C   UNL     1       1.215   1.342  -0.815  0.00  0.00    +0.047 C 
ATOM     19  C   UNL     1      -0.104   0.909  -1.401  0.00  0.00    -0.008 A 
ATOM     20  C   UNL     1      -0.337  -0.244  -2.184  0.00  0.00    +0.046 A 
ATOM     21  C   UNL     1      -1.683  -0.250  -2.508  0.00  0.00    +0.025 A 
ATOM     22  N   UNL     1      -2.255   0.834  -1.960  0.00  0.00    -0.352 N 
ATOM     23  H   UNL     1      -3.192   1.072  -2.033  0.00  0.00    +0.166 HD
ATOM     24  C   UNL     1      -1.300   1.553  -1.273  0.00  0.00    +0.128 A 
ATOM     25  C   UNL     1      -2.386  -1.295  -3.335  0.00  0.00    +0.064 C 
BRANCH  24  26
ATOM     26  C   UNL     1      -1.529   2.798  -0.533  0.00  0.00    +0.356 C 
ATOM     27  O   UNL     1      -0.605   3.348   0.034  0.00  0.00    -0.243 OA
BRANCH  26  28
ATOM     28  O   UNL     1      -2.766   3.334  -0.483  0.00  0.00    -0.463 OA
ATOM     29  C   UNL     1      -2.917   4.549   0.255  0.00  0.00    +0.280 C 
ENDBRANCH  26  28
ENDBRANCH  24  26
ENDBRANCH  16  20
ENDBRANCH   1  16
BRANCH   5  30
ATOM     30  C   UNL     1      -1.065  -5.792  -4.401  0.00  0.00    +0.107 C 
BRANCH  30  31
ATOM     31  C   UNL     1       0.070  -6.815  -4.321  0.00  0.00    +0.000 C 
BRANCH  31  32
ATOM     32  C   UNL     1      -0.508  -8.227  -4.427  0.00  0.00    -0.078 C 
BRANCH  32  33
ATOM     33  N   UNL     1       0.581  -9.210  -4.350  0.00  0.00    +0.376 N 
ATOM     34  C   UNL     1       1.206  -9.144  -3.022  0.00  0.00    -0.097 C 
ATOM     35  C   UNL     1       0.042 -10.558  -4.572  0.00  0.00    -0.097 C 
ATOM     36  H   UNL     1       1.271  -9.003  -5.057  0.00  0.00    -0.083 HD
ENDBRANCH  32  33
ENDBRANCH  31  32
ENDBRANCH  30  31
ENDBRANCH   5  30
TORSDOF 9
