REMARK  Name = ZINC25783100
REMARK  8 active torsions:
REMARK  status: ('A' for Active; 'I' for Inactive)
REMARK    1  A    between atoms: C_1  and  C_2
REMARK    2  A    between atoms: C_3  and  C_13
REMARK    3  A    between atoms: N_15  and  N_16
REMARK    4  A    between atoms: C_17  and  C_18
REMARK    5  A    between atoms: C_17  and  C_19
REMARK    6  A    between atoms: C_22  and  O_25
REMARK    7  A    between atoms: O_25  and  C_26
REMARK    8  A    between atoms: C_26  and  C_27
REMARK                            x       y       z     vdW  Elec       q    Type
REMARK                         _______ _______ _______ _____ _____    ______ ____
ROOT
ATOM      1  C   UNL     1      -1.659   6.359   0.128  0.00  0.00    +0.284 C 
ATOM      2  O   UNL     1      -1.543   7.561  -0.024  0.00  0.00    -0.267 OA
ATOM      3  N   UNL     1      -2.885   5.808   0.235  0.00  0.00    -0.201 N 
ATOM      4  H   UNL     1      -2.988   4.736   0.455  0.00  0.00    +0.178 HD
ENDROOT
BRANCH   1   7
ATOM      5  C   UNL     1      -0.016   5.613   2.727  0.00  0.00    +0.070 C 
ATOM      6  C   UNL     1       0.260   5.176   1.311  0.00  0.00    +0.093 A 
ATOM      7  C   UNL     1      -0.462   5.507   0.194  0.00  0.00    +0.155 A 
ATOM      8  N   UNL     1       0.167   4.875  -0.852  0.00  0.00    -0.183 N 
ATOM      9  N   UNL     1       1.177   4.235  -0.376  0.00  0.00    -0.058 NA
ATOM     10  N   UNL     1       1.257   4.393   0.896  0.00  0.00    -0.134 NA
ATOM     11  C   UNL     1      -0.219   4.924  -2.195  0.00  0.00    +0.241 A 
ATOM     12  C   UNL     1       0.517   4.342  -3.321  0.00  0.00    +0.206 A 
ATOM     13  N   UNL     1      -0.151   4.582  -4.415  0.00  0.00    -0.032 NA
ATOM     14  O   UNL     1      -1.312   5.314  -4.064  0.00  0.00    -0.239 OA
ATOM     15  N   UNL     1      -1.293   5.498  -2.659  0.00  0.00    -0.027 NA
ATOM     16  N   UNL     1       1.718   3.647  -3.235  0.00  0.00    -0.337 N 
ATOM     17  H   UNL     1       2.189   3.249  -4.146  0.00  0.00    +0.144 HD
ATOM     18  H   UNL     1       2.197   3.495  -2.257  0.00  0.00    +0.144 HD
ENDBRANCH   1   7
BRANCH   3  19
ATOM     19  N   UNL     1      -4.027   6.602   0.067  0.00  0.00    -0.184 NA
ATOM     20  C   UNL     1      -5.203   6.053   0.059  0.00  0.00    +0.063 C 
ATOM     21  C   UNL     1      -5.347   4.575   0.314  0.00  0.00    +0.068 C 
BRANCH  20  22
ATOM     22  C   UNL     1      -6.398   6.876  -0.201  0.00  0.00    -0.002 A 
ATOM     23  C   UNL     1      -7.665   6.287  -0.216  0.00  0.00    +0.013 A 
ATOM     24  C   UNL     1      -8.780   7.061  -0.455  0.00  0.00    +0.046 A 
ATOM     25  C   UNL     1      -8.645   8.423  -0.690  0.00  0.00    +0.121 A 
ATOM     26  C   UNL     1      -7.387   9.012  -0.681  0.00  0.00    +0.046 A 
ATOM     27  C   UNL     1      -6.267   8.247  -0.439  0.00  0.00    +0.013 A 
BRANCH  25  28
ATOM     28  O   UNL     1      -9.746   9.181  -0.930  0.00  0.00    -0.487 OA
BRANCH  28  29
ATOM     29  C   UNL     1     -11.009   8.511  -0.924  0.00  0.00    +0.264 C 
BRANCH  29  30
ATOM     30  C   UNL     1     -12.106   9.505  -1.206  0.00  0.00    -0.010 A 
ATOM     31  C   UNL     1     -12.721  10.170  -0.162  0.00  0.00    +0.010 A 
ATOM     32  C   UNL     1     -13.724  11.085  -0.419  0.00  0.00    +0.039 A 
ATOM     33  C   UNL     1     -14.120  11.329  -1.723  0.00  0.00    +0.123 A 
ATOM     34  C   UNL     1     -13.507  10.659  -2.768  0.00  0.00    +0.039 A 
ATOM     35  C   UNL     1     -12.501   9.748  -2.509  0.00  0.00    +0.010 A 
ATOM     36  F   UNL     1     -15.104  12.220  -1.976  0.00  0.00    -0.205 F 
ENDBRANCH  29  30
ENDBRANCH  28  29
ENDBRANCH  25  28
ENDBRANCH  20  22
ENDBRANCH   3  19
TORSDOF 6
