REMARK  Name = ZINC20910045
REMARK  12 active torsions:
REMARK  status: ('A' for Active; 'I' for Inactive)
REMARK    1  A    between atoms: C_1  and  C_2
REMARK    2  A    between atoms: C_4  and  C_30
REMARK    3  A    between atoms: C_5  and  C_9
REMARK    4  A    between atoms: C_7  and  C_8
REMARK    5  A    between atoms: C_9  and  N_10
REMARK    6  A    between atoms: C_16  and  C_20
REMARK    7  A    between atoms: C_20  and  C_22
REMARK    8  A    between atoms: C_20  and  N_25
REMARK    9  A    between atoms: C_22  and  C_23
REMARK   10  A    between atoms: C_22  and  C_24
REMARK   11  A    between atoms: N_25  and  S_26
REMARK   12  A    between atoms: S_26  and  C_29
REMARK                            x       y       z     vdW  Elec       q    Type
REMARK                         _______ _______ _______ _____ _____    ______ ____
ROOT
ATOM      1  N   UNL     1      -0.987   1.748  -1.346  0.00  0.00    -0.296 NA
ATOM      2  C   UNL     1      -0.915   3.199  -1.523  0.00  0.00    +0.092 C 
ATOM      3  C   UNL     1      -1.106   3.549  -3.002  0.00  0.00    +0.091 C 
ATOM      4  C   UNL     1       0.236   3.521  -3.686  0.00  0.00    +0.135 A 
ATOM      5  N   UNL     1       0.730   4.401  -4.506  0.00  0.00    -0.134 NA
ATOM      6  N   UNL     1       1.894   4.015  -4.902  0.00  0.00    -0.133 NA
ATOM      7  C   UNL     1       2.193   2.872  -4.342  0.00  0.00    +0.152 A 
ATOM      8  N   UNL     1       1.157   2.535  -3.546  0.00  0.00    -0.312 N 
ATOM      9  C   UNL     1       1.037   1.363  -2.679  0.00  0.00    +0.140 C 
ATOM     10  C   UNL     1      -0.445   1.020  -2.498  0.00  0.00    +0.106 C 
ENDROOT
BRANCH   1  11
ATOM     11  C   UNL     1      -0.323   1.335  -0.102  0.00  0.00    +0.120 C 
BRANCH  11  16
ATOM     12  C   UNL     1      -3.246   3.420   4.426  0.00  0.00    +0.044 C 
ATOM     13  C   UNL     1      -2.483   2.876   3.245  0.00  0.00    -0.047 A 
ATOM     14  C   UNL     1      -2.928   1.736   2.601  0.00  0.00    +0.007 A 
ATOM     15  C   UNL     1      -2.232   1.241   1.514  0.00  0.00    -0.046 A 
ATOM     16  C   UNL     1      -1.085   1.879   1.079  0.00  0.00    -0.030 A 
ATOM     17  C   UNL     1      -0.640   3.018   1.723  0.00  0.00    +0.008 A 
ATOM     18  C   UNL     1      -1.340   3.517   2.806  0.00  0.00    -0.047 A 
ATOM     19  C   UNL     1      -0.856   4.759   3.508  0.00  0.00    +0.044 C 
ATOM     20  C   UNL     1      -2.720   0.002   0.808  0.00  0.00    +0.044 C 
ENDBRANCH  11  16
ENDBRANCH   1  11
BRANCH   7  21
ATOM     21  C   UNL     1       3.458   2.078  -4.549  0.00  0.00    +0.146 C 
BRANCH  21  22
ATOM     22  C   UNL     1       4.608   2.746  -3.793  0.00  0.00    +0.009 C 
ATOM     23  C   UNL     1       4.309   2.730  -2.292  0.00  0.00    +0.009 C 
ATOM     24  C   UNL     1       5.907   1.983  -4.063  0.00  0.00    +0.009 C 
ENDBRANCH  21  22
BRANCH  21  25
ATOM     25  N   UNL     1       3.776   2.029  -5.978  0.00  0.00    -0.184 NA
ATOM     26  H   UNL     1       4.173   2.922  -6.484  0.00  0.00    +0.148 HD
BRANCH  25  27
ATOM     27  S   UNL     1       3.311   0.724  -6.886  0.00  0.00    +0.027 S 
ATOM     28  O   UNL     1       3.758   1.020  -8.201  0.00  0.00    -0.158 OA
ATOM     29  O   UNL     1       3.818  -0.403  -6.185  0.00  0.00    -0.158 OA
ATOM     30  C   UNL     1       1.498   0.735  -6.824  0.00  0.00    +0.214 C 
ENDBRANCH  25  27
ENDBRANCH  21  25
ENDBRANCH   7  21
TORSDOF 6
