REMARK  Name = ZINC01156044
REMARK  9 active torsions:
REMARK  status: ('A' for Active; 'I' for Inactive)
REMARK    1  A    between atoms: C_1  and  C_2
REMARK    2  A    between atoms: C_7  and  N_8
REMARK    3  A    between atoms: C_13  and  C_14
REMARK    4  A    between atoms: C_13  and  N_52
REMARK    5  A    between atoms: C_14  and  C_16
REMARK    6  A    between atoms: C_14  and  O_27
REMARK    7  A    between atoms: C_16  and  O_17
REMARK    8  A    between atoms: O_17  and  C_18
REMARK    9  A    between atoms: C_21  and  N_24
REMARK                            x       y       z     vdW  Elec       q    Type
REMARK                         _______ _______ _______ _____ _____    ______ ____
ROOT
ATOM      1  C   UNL     1       2.064   1.114   1.238  0.00  0.00    -0.044 C 
ENDROOT
BRANCH   1   7
ATOM      2  N   UNL     1       1.070   2.778   4.991  0.00  0.00    -0.333 N 
ATOM      3  C   UNL     1       1.097   1.314   4.873  0.00  0.00    +0.086 C 
ATOM      4  C   UNL     1       1.925   0.919   3.648  0.00  0.00    -0.060 C 
ATOM      5  C   UNL     1       1.313   2.996   2.565  0.00  0.00    -0.060 C 
ATOM      6  C   UNL     1       0.485   3.390   3.790  0.00  0.00    +0.086 C 
ATOM      7  N   UNL     1       1.314   1.522   2.445  0.00  0.00    +0.383 N 
ATOM      8  H   UNL     1       0.344   1.194   2.362  0.00  0.00    -0.082 HD
BRANCH   2  15
ATOM      9  C   UNL     1       2.480   4.295   6.942  0.00  0.00    +0.045 C 
ATOM     10  C   UNL     1       1.032   3.916   7.119  0.00  0.00    -0.029 A 
ATOM     11  C   UNL     1       0.348   4.311   8.253  0.00  0.00    +0.006 A 
ATOM     12  C   UNL     1      -0.979   3.960   8.419  0.00  0.00    +0.020 A 
ATOM     13  C   UNL     1      -1.628   3.217   7.448  0.00  0.00    +0.043 A 
ATOM     14  C   UNL     1      -0.951   2.824   6.309  0.00  0.00    +0.043 A 
ATOM     15  C   UNL     1       0.382   3.175   6.140  0.00  0.00    +0.034 A 
ATOM     16 CL   UNL     1      -3.295   2.779   7.661  0.00  0.00    -0.083 Cl
ENDBRANCH   2  15
ENDBRANCH   1   7
BRANCH   1  17
ATOM     17  C   UNL     1       1.286   1.562  -0.002  0.00  0.00    +0.135 C 
BRANCH  17  18
ATOM     18  O   UNL     1      -0.011   0.963   0.007  0.00  0.00    -0.390 OA
ATOM     19  H   UNL     1       0.002  -0.004   0.002  0.00  0.00    +0.210 HD
ENDBRANCH  17  18
BRANCH  17  20
ATOM     20  C   UNL     1       2.040   1.127  -1.261  0.00  0.00    +0.258 C 
BRANCH  20  21
ATOM     21  O   UNL     1       1.376   1.645  -2.415  0.00  0.00    -0.489 OA
BRANCH  21  22
ATOM     22  C   UNL     1       1.921   1.349  -3.625  0.00  0.00    +0.121 A 
ATOM     23  C   UNL     1       3.074   0.581  -3.698  0.00  0.00    +0.048 A 
ATOM     24  C   UNL     1       3.623   0.277  -4.929  0.00  0.00    +0.036 A 
ATOM     25  C   UNL     1       3.030   0.747  -6.087  0.00  0.00    +0.126 A 
ATOM     26  C   UNL     1       1.884   1.517  -6.016  0.00  0.00    +0.036 A 
ATOM     27  C   UNL     1       1.328   1.819  -4.788  0.00  0.00    +0.048 A 
BRANCH  25  28
ATOM     28  N   UNL     1       3.623   0.424  -7.404  0.00  0.00    +0.056 N 
ATOM     29  O   UNL     1       3.102   0.838  -8.424  0.00  0.00    -0.126 OA
ATOM     30  O   UNL     1       4.633  -0.254  -7.467  0.00  0.00    -0.126 OA
ENDBRANCH  25  28
ENDBRANCH  21  22
ENDBRANCH  20  21
ENDBRANCH  17  20
ENDBRANCH   1  17
TORSDOF 8
