REMARK  Name = ZINC59479257
REMARK  3 active torsions:
REMARK  status: ('A' for Active; 'I' for Inactive)
REMARK    1  A    between atoms: C_5  and  S_13
REMARK    2  A    between atoms: C_7  and  O_12
REMARK    3  A    between atoms: C_9  and  O_11
REMARK                            x       y       z     vdW  Elec       q    Type
REMARK                         _______ _______ _______ _____ _____    ______ ____
ROOT
ATOM      1  C   UNL     1      -0.017   1.388   0.010  0.00  0.00    +0.004 A 
ATOM      2  C   UNL     1       1.140   2.106   0.003  0.00  0.00    +0.009 A 
ATOM      3  C   UNL     1       2.378   1.441  -0.013  0.00  0.00    -0.009 A 
ATOM      4  C   UNL     1       3.587   2.157  -0.020  0.00  0.00    +0.038 A 
ATOM      5  C   UNL     1       4.773   1.488  -0.035  0.00  0.00    +0.124 A 
ATOM      6  C   UNL     1       4.812   0.097  -0.043  0.00  0.00    +0.075 A 
ATOM      7  C   UNL     1       3.649  -0.641  -0.037  0.00  0.00    +0.130 A 
ATOM      8  C   UNL     1       2.408   0.025  -0.021  0.00  0.00    +0.065 A 
ATOM      9  C   UNL     1       1.195  -0.692  -0.013  0.00  0.00    +0.128 A 
ATOM     10  C   UNL     1       0.002  -0.004   0.002  0.00  0.00    +0.046 A 
ENDROOT
BRANCH   5  11
ATOM     11  S   UNL     1       6.282   2.398  -0.043  0.00  0.00    +0.140 S 
ATOM     12  O   UNL     1       7.259   1.588  -0.753  0.00  0.00    -0.140 OA
ATOM     13  O   UNL     1       6.014   3.652  -0.730  0.00  0.00    -0.140 OA
ATOM     14  O   UNL     1       6.656   2.609   1.346  0.00  0.00    -0.043 OA
ENDBRANCH   5  11
BRANCH   9  15
ATOM     15  O   UNL     1       1.202  -2.050  -0.021  0.00  0.00    -0.506 OA
ATOM     16  H   UNL     1       1.213  -2.448   0.861  0.00  0.00    +0.292 HD
ENDBRANCH   9  15
BRANCH   7  17
ATOM     17  O   UNL     1       3.699  -1.998  -0.046  0.00  0.00    -0.506 OA
ATOM     18  H   UNL     1       3.721  -2.396   0.835  0.00  0.00    +0.292 HD
ENDBRANCH   7  17
TORSDOF 3
