REMARK  Name = ZINC38683892
REMARK  17 active torsions:
REMARK  status: ('A' for Active; 'I' for Inactive)
REMARK    1  A    between atoms: C_1  and  C_2
REMARK    2  A    between atoms: C_2  and  C_3
REMARK    3  A    between atoms: C_3  and  O_4
REMARK    4  A    between atoms: O_4  and  C_5
REMARK    5  A    between atoms: C_8  and  C_14
REMARK    6  A    between atoms: C_10  and  O_11
REMARK    7  A    between atoms: O_11  and  C_12
REMARK    8  A    between atoms: C_12  and  C_13
REMARK    9  A    between atoms: C_19  and  O_28
REMARK   10  A    between atoms: C_23  and  N_27
REMARK   11  A    between atoms: C_24  and  C_25
REMARK   12  A    between atoms: O_28  and  C_29
REMARK   13  A    between atoms: C_29  and  C_31
REMARK   14  A    between atoms: C_31  and  O_32
REMARK   15  A    between atoms: O_32  and  C_33
REMARK   16  A    between atoms: C_34  and  C_40
REMARK   17  A    between atoms: C_38  and  C_39
REMARK                            x       y       z     vdW  Elec       q    Type
REMARK                         _______ _______ _______ _____ _____    ______ ____
ROOT
ATOM      1  C   UNL     1      -6.421  -4.529   0.011  0.00  0.00    +0.098 C 
ATOM      2  C   UNL     1      -7.175  -4.153   1.258  0.00  0.00    +0.008 A 
ATOM      3  C   UNL     1      -6.883  -4.794   2.449  0.00  0.00    +0.012 A 
ATOM      4  C   UNL     1      -7.564  -4.462   3.604  0.00  0.00    +0.047 A 
ATOM      5  C   UNL     1      -8.546  -3.481   3.572  0.00  0.00    +0.135 A 
ATOM      6  C   UNL     1      -8.840  -2.837   2.381  0.00  0.00    +0.093 A 
ATOM      7  C   UNL     1      -8.153  -3.172   1.221  0.00  0.00    +0.138 A 
ATOM      8  O   UNL     1      -8.454  -2.533   0.064  0.00  0.00    -0.441 OA
ATOM      9  C   UNL     1      -8.107  -3.080  -1.113  0.00  0.00    +0.199 C 
ATOM     10  C   UNL     1      -7.150  -4.029  -1.204  0.00  0.00    +0.098 C 
ENDROOT
BRANCH   1  14
ATOM     11  C   UNL     1      -2.519  -2.783   0.135  0.00  0.00    +0.162 A 
ATOM     12  C   UNL     1      -3.644  -1.975   0.166  0.00  0.00    +0.050 A 
ATOM     13  C   UNL     1      -4.904  -2.542   0.125  0.00  0.00    +0.008 A 
ATOM     14  C   UNL     1      -5.045  -3.916   0.054  0.00  0.00    -0.031 A 
ATOM     15  C   UNL     1      -3.926  -4.728   0.024  0.00  0.00    +0.054 A 
ATOM     16  C   UNL     1      -2.661  -4.165   0.059  0.00  0.00    +0.162 A 
BRANCH  11  17
ATOM     17  O   UNL     1      -1.279  -2.226   0.175  0.00  0.00    -0.488 OA
BRANCH  17  18
ATOM     18  C   UNL     1      -1.210  -0.801   0.254  0.00  0.00    +0.229 C 
BRANCH  18  20
ATOM     19  C   UNL     1       0.330   1.164   0.372  0.00  0.00    +0.007 C 
ATOM     20  C   UNL     1       0.256  -0.362   0.288  0.00  0.00    +0.038 C 
ENDBRANCH  18  20
ENDBRANCH  17  18
ENDBRANCH  11  17
BRANCH  16  21
ATOM     21  O   UNL     1      -1.559  -4.962   0.023  0.00  0.00    -0.489 OA
BRANCH  21  22
ATOM     22  C   UNL     1      -1.781  -6.371  -0.056  0.00  0.00    +0.226 C 
ATOM     23  C   UNL     1      -0.435  -7.098  -0.086  0.00  0.00    +0.048 C 
ENDBRANCH  21  22
ENDBRANCH  16  21
ENDBRANCH   1  14
BRANCH   9  24
ATOM     24  N   UNL     1      -8.743  -2.661  -2.256  0.00  0.00    -0.328 N 
ATOM     25  H   UNL     1      -9.431  -1.980  -2.205  0.00  0.00    +0.145 HD
ATOM     26  H   UNL     1      -8.503  -3.047  -3.113  0.00  0.00    +0.145 HD
ENDBRANCH   9  24
BRANCH  10  27
ATOM     27  C   UNL     1      -6.826  -4.571  -2.490  0.00  0.00    +0.101 C 
ATOM     28  N   UNL     1      -6.569  -5.000  -3.509  0.00  0.00    -0.191 NA
ENDBRANCH  10  27
BRANCH   5  29
ATOM     29  O   UNL     1      -9.217  -3.153   4.707  0.00  0.00    -0.423 OA
BRANCH  29  30
ATOM     30  C   UNL     1     -10.515  -3.488   4.791  0.00  0.00    +0.350 C 
ATOM     31  O   UNL     1     -11.024  -4.153   3.920  0.00  0.00    -0.247 OA
BRANCH  30  32
ATOM     32  C   UNL     1     -11.336  -3.034   5.970  0.00  0.00    +0.349 C 
BRANCH  32  33
ATOM     33  O   UNL     1     -12.675  -3.512   5.831  0.00  0.00    -0.480 OA
BRANCH  33  34
ATOM     34  C   UNL     1     -13.552  -3.188   6.818  0.00  0.00    +0.127 A 
ATOM     35  C   UNL     1     -13.699  -4.022   7.917  0.00  0.00    -0.009 A 
ATOM     36  C   UNL     1     -14.590  -3.690   8.919  0.00  0.00    +0.007 A 
ATOM     37  C   UNL     1     -15.335  -2.529   8.827  0.00  0.00    +0.001 A 
ATOM     38  C   UNL     1     -15.191  -1.697   7.732  0.00  0.00    +0.007 A 
ATOM     39  C   UNL     1     -14.296  -2.021   6.730  0.00  0.00    -0.009 A 
ATOM     40  C   UNL     1     -14.134  -1.111   5.540  0.00  0.00    +0.047 C 
ATOM     41  C   UNL     1     -12.888  -5.288   8.018  0.00  0.00    +0.047 C 
ENDBRANCH  33  34
ENDBRANCH  32  33
ENDBRANCH  30  32
ENDBRANCH  29  30
ENDBRANCH   5  29
TORSDOF 13
