REMARK  Name = ZINC00861403
REMARK  10 active torsions:
REMARK  status: ('A' for Active; 'I' for Inactive)
REMARK    1  A    between atoms: C_1  and  C_2
REMARK    2  A    between atoms: C_3  and  C_32
REMARK    3  A    between atoms: C_4  and  C_23
REMARK    4  A    between atoms: C_10  and  C_15
REMARK    5  A    between atoms: C_18  and  O_21
REMARK    6  A    between atoms: O_21  and  C_22
REMARK    7  A    between atoms: C_26  and  O_30
REMARK    8  A    between atoms: O_30  and  C_31
REMARK    9  A    between atoms: C_32  and  O_34
REMARK   10  A    between atoms: O_34  and  C_35
REMARK                            x       y       z     vdW  Elec       q    Type
REMARK                         _______ _______ _______ _____ _____    ______ ____
ROOT
ATOM      1  C   UNL     1       5.175   2.791  -2.311  0.00  0.00    +0.061 C 
ATOM      2  C   UNL     1       4.354   2.356  -1.124  0.00  0.00    +0.016 C 
ATOM      3  C   UNL     1       3.328   1.505  -1.298  0.00  0.00    +0.065 C 
ATOM      4  C   UNL     1       2.484   1.056  -0.142  0.00  0.00    +0.092 C 
ATOM      5  C   UNL     1       3.181   1.314   1.170  0.00  0.00    +0.024 C 
ATOM      6  C   UNL     1       4.220   2.173   1.242  0.00  0.00    +0.016 C 
ATOM      7  N   UNL     1       4.659   2.828   0.122  0.00  0.00    -0.321 N 
ATOM      8  C   UNL     1       4.926   2.432   2.549  0.00  0.00    +0.059 C 
ATOM      9  C   UNL     1       3.937   2.276   3.707  0.00  0.00    +0.032 C 
ATOM     10  C   UNL     1       3.353   0.860   3.659  0.00  0.00    +0.088 C 
ATOM     11  C   UNL     1       2.719   0.638   2.313  0.00  0.00    +0.162 C 
ATOM     12  O   UNL     1       1.790  -0.139   2.211  0.00  0.00    -0.292 OA
ATOM     13  H   UNL     1       5.261   3.742   0.232  0.00  0.00    +0.152 HD
ENDROOT
BRANCH   4  14
ATOM     14  C   UNL     1       1.177   1.806  -0.164  0.00  0.00    -0.034 A 
ATOM     15  C   UNL     1      -0.015   1.112  -0.274  0.00  0.00    +0.008 A 
ATOM     16  C   UNL     1      -1.214   1.797  -0.299  0.00  0.00    +0.047 A 
ATOM     17  C   UNL     1      -1.224   3.181  -0.202  0.00  0.00    +0.134 A 
ATOM     18  C   UNL     1      -0.027   3.875  -0.091  0.00  0.00    +0.060 A 
ATOM     19  C   UNL     1       1.171   3.185  -0.072  0.00  0.00    +0.023 A 
ATOM     20 BR   UNL     1      -0.035   5.762   0.034  0.00  0.00    -0.047 Br
BRANCH  17  21
ATOM     21  O   UNL     1      -2.403   3.856  -0.222  0.00  0.00    -0.494 OA
ATOM     22  C   UNL     1      -3.596   3.077  -0.338  0.00  0.00    +0.277 C 
ENDBRANCH  17  21
ENDBRANCH   4  14
BRANCH   9  23
ATOM     23  C   UNL     1       4.654   2.483   5.017  0.00  0.00    -0.043 A 
ATOM     24  C   UNL     1       5.717   1.668   5.358  0.00  0.00    +0.007 A 
ATOM     25  C   UNL     1       6.379   1.860   6.556  0.00  0.00    +0.046 A 
ATOM     26  C   UNL     1       5.969   2.865   7.420  0.00  0.00    +0.120 A 
ATOM     27  C   UNL     1       4.898   3.678   7.077  0.00  0.00    +0.046 A 
ATOM     28  C   UNL     1       4.243   3.485   5.877  0.00  0.00    +0.007 A 
BRANCH  26  29
ATOM     29  O   UNL     1       6.615   3.052   8.601  0.00  0.00    -0.495 OA
ATOM     30  C   UNL     1       7.709   2.178   8.888  0.00  0.00    +0.277 C 
ENDBRANCH  26  29
ENDBRANCH   9  23
BRANCH   3  31
ATOM     31  C   UNL     1       3.039   1.024  -2.597  0.00  0.00    +0.337 C 
ATOM     32  O   UNL     1       3.646   1.460  -3.557  0.00  0.00    -0.245 OA
BRANCH  31  33
ATOM     33  O   UNL     1       2.089   0.080  -2.770  0.00  0.00    -0.465 OA
ATOM     34  C   UNL     1       1.849  -0.360  -4.109  0.00  0.00    +0.280 C 
ENDBRANCH  31  33
ENDBRANCH   3  31
TORSDOF 6
