REMARK  Name = ZINC18173632
REMARK  4 active torsions:
REMARK  status: ('A' for Active; 'I' for Inactive)
REMARK    1  A    between atoms: C_4  and  C_7
REMARK    2  A    between atoms: C_7  and  C_9
REMARK    3  A    between atoms: C_16  and  C_25
REMARK    4  A    between atoms: C_28  and  N_31
REMARK                            x       y       z     vdW  Elec       q    Type
REMARK                         _______ _______ _______ _____ _____    ______ ____
ROOT
ATOM      1  C   UNL     1       4.051   3.800  -1.746  0.00  0.00    +0.045 A 
ATOM      2  C   UNL     1       4.502   5.087  -1.444  0.00  0.00    +0.033 A 
ATOM      3  C   UNL     1       4.452   5.537  -0.143  0.00  0.00    +0.042 A 
ATOM      4  C   UNL     1       3.956   4.720   0.859  0.00  0.00    +0.026 A 
ATOM      5  C   UNL     1       3.502   3.440   0.579  0.00  0.00    -0.017 A 
ATOM      6  C   UNL     1       3.549   2.971  -0.723  0.00  0.00    +0.042 A 
ATOM      7  N   UNL     1       3.113   1.718  -1.065  0.00  0.00    -0.336 N 
ATOM      8  C   UNL     1       2.113   1.181  -0.141  0.00  0.00    +0.105 C 
ATOM      9  C   UNL     1       2.688   1.164   1.277  0.00  0.00    +0.029 C 
ATOM     10  C   UNL     1       2.976   2.616   1.717  0.00  0.00    +0.049 C 
ATOM     11  C   UNL     1       1.603   3.115   2.184  0.00  0.00    -0.023 C 
ATOM     12  C   UNL     1       0.817   2.108   2.471  0.00  0.00    -0.030 C 
ATOM     13  C   UNL     1       1.536   0.792   2.253  0.00  0.00    +0.033 C 
ATOM     14 CL   UNL     1       5.013   7.134   0.241  0.00  0.00    -0.084 Cl
ATOM     15  H   UNL     1       3.902   1.095  -1.147  0.00  0.00    +0.147 HD
ENDROOT
BRANCH   8  16
ATOM     16  C   UNL     1       0.882   2.050  -0.173  0.00  0.00    -0.027 A 
ATOM     17  C   UNL     1      -0.341   1.528   0.205  0.00  0.00    +0.008 A 
ATOM     18  C   UNL     1      -1.472   2.323   0.171  0.00  0.00    +0.033 A 
ATOM     19  C   UNL     1      -1.378   3.642  -0.233  0.00  0.00    +0.126 A 
ATOM     20  C   UNL     1      -0.154   4.163  -0.611  0.00  0.00    +0.033 A 
ATOM     21  C   UNL     1       0.975   3.367  -0.581  0.00  0.00    +0.008 A 
BRANCH  19  22
ATOM     22  N   UNL     1      -2.587   4.494  -0.266  0.00  0.00    +0.056 N 
ATOM     23  O   UNL     1      -2.505   5.655  -0.625  0.00  0.00    -0.126 OA
ATOM     24  O   UNL     1      -3.665   4.035   0.067  0.00  0.00    -0.126 OA
ENDBRANCH  19  22
ENDBRANCH   8  16
BRANCH   1  25
ATOM     25  C   UNL     1       4.099   3.310  -3.135  0.00  0.00    +0.195 C 
ATOM     26  O   UNL     1       3.280   3.697  -3.946  0.00  0.00    -0.287 OA
BRANCH  25  30
ATOM     27  C   UNL     1       7.101   0.542  -4.305  0.00  0.00    +0.000 A 
ATOM     28  C   UNL     1       6.220   1.042  -5.248  0.00  0.00    +0.001 A 
ATOM     29  C   UNL     1       5.243   1.941  -4.875  0.00  0.00    +0.012 A 
ATOM     30  C   UNL     1       5.144   2.346  -3.542  0.00  0.00    +0.022 A 
ATOM     31  C   UNL     1       6.040   1.842  -2.597  0.00  0.00    +0.012 A 
ATOM     32  C   UNL     1       7.009   0.940  -2.983  0.00  0.00    +0.001 A 
ENDBRANCH  25  30
ENDBRANCH   1  25
TORSDOF 4
