REMARK  Name = ZINC13499907
REMARK  6 active torsions:
REMARK  status: ('A' for Active; 'I' for Inactive)
REMARK    1  A    between atoms: C_1  and  C_2
REMARK    2  A    between atoms: C_2  and  C_3
REMARK    3  A    between atoms: C_16  and  S_19
REMARK    4  A    between atoms: S_19  and  C_20
REMARK    5  A    between atoms: C_20  and  C_21
REMARK    6  A    between atoms: C_27  and  C_30
REMARK                            x       y       z     vdW  Elec       q    Type
REMARK                         _______ _______ _______ _____ _____    ______ ____
ROOT
ATOM      1  C   UNL     1      -2.436  -0.622   0.023  0.00  0.00    +0.118 A 
ATOM      2  N   UNL     1      -3.277  -1.617   0.025  0.00  0.00    -0.226 NA
ATOM      3  C   UNL     1      -2.878  -2.886   0.013  0.00  0.00    +0.114 A 
ATOM      4  C   UNL     1      -1.522  -3.247  -0.002  0.00  0.00    +0.056 A 
ATOM      5  C   UNL     1      -1.231  -4.635  -0.014  0.00  0.00    -0.024 A 
ATOM      6  C   UNL     1      -2.275  -5.495  -0.009  0.00  0.00    -0.004 A 
ATOM      7  S   UNL     1      -3.711  -4.455   0.011  0.00  0.00    -0.073 S 
ATOM      8  C   UNL     1      -2.223  -6.991  -0.020  0.00  0.00    +0.043 C 
ATOM      9  C   UNL     1      -0.801  -7.423  -0.408  0.00  0.00    +0.005 C 
ATOM     10  C   UNL     1       0.201  -6.618   0.425  0.00  0.00    +0.005 C 
ATOM     11  C   UNL     1       0.203  -5.158  -0.030  0.00  0.00    +0.037 C 
ATOM     12  C   UNL     1      -0.577  -2.110  -0.004  0.00  0.00    +0.173 A 
ATOM     13  N   UNL     1      -1.087  -0.830   0.008  0.00  0.00    -0.257 N 
ATOM     14  C   UNL     1       0.002  -0.004   0.002  0.00  0.00    +0.198 A 
ATOM     15  N   UNL     1       1.070  -0.769  -0.018  0.00  0.00    -0.122 NA
ATOM     16  N   UNL     1       0.730  -2.011  -0.016  0.00  0.00    -0.128 NA
ENDROOT
BRANCH   1  18
ATOM     17  C   UNL     1      -3.158   1.275  -1.401  0.00  0.00    +0.012 C 
ATOM     18  C   UNL     1      -2.964   0.789   0.036  0.00  0.00    +0.071 C 
ENDBRANCH   1  18
BRANCH  14  19
ATOM     19  S   UNL     1      -0.022   1.758   0.012  0.00  0.00    -0.076 S 
BRANCH  19  20
ATOM     20  C   UNL     1       1.732   2.220  -0.003  0.00  0.00    +0.173 C 
BRANCH  20  21
ATOM     21  C   UNL     1       1.855   3.722   0.004  0.00  0.00    +0.226 C 
ATOM     22  O   UNL     1       0.858   4.413   0.018  0.00  0.00    -0.275 OA
ATOM     23  N   UNL     1       3.074   4.299  -0.004  0.00  0.00    -0.301 N 
ATOM     24  C   UNL     1       4.291   3.476  -0.020  0.00  0.00    +0.108 C 
ATOM     25  C   UNL     1       5.170   3.918  -1.194  0.00  0.00    +0.019 C 
ATOM     26  C   UNL     1       5.430   5.423  -1.093  0.00  0.00    +0.006 C 
ATOM     27  C   UNL     1       4.101   6.178  -1.172  0.00  0.00    +0.003 C 
ATOM     28  C   UNL     1       3.210   5.761  -0.004  0.00  0.00    +0.111 C 
ATOM     29  C   UNL     1       4.365   7.684  -1.104  0.00  0.00    +0.009 C 
ENDBRANCH  20  21
ENDBRANCH  19  20
ENDBRANCH  14  19
TORSDOF 4
