REMARK  Name = ZINC12449073
REMARK  6 active torsions:
REMARK  status: ('A' for Active; 'I' for Inactive)
REMARK    1  A    between atoms: C_1  and  C_2
REMARK    2  A    between atoms: C_7  and  N_8
REMARK    3  A    between atoms: C_14  and  C_16
REMARK    4  A    between atoms: C_16  and  C_17
REMARK    5  A    between atoms: C_24  and  C_25
REMARK    6  A    between atoms: C_24  and  N_60
REMARK                            x       y       z     vdW  Elec       q    Type
REMARK                         _______ _______ _______ _____ _____    ______ ____
ROOT
ATOM      1  C   UNL     1      -1.746   0.218   4.431  0.00  0.00    +0.028 C 
ATOM      2  C   UNL     1      -0.386  -0.238   4.879  0.00  0.00    +0.200 C 
ATOM      3  O   UNL     1       0.465   0.599   5.098  0.00  0.00    -0.278 OA
ATOM      4  N   UNL     1      -0.074  -1.527   5.047  0.00  0.00    -0.318 N 
ATOM      5  C   UNL     1      -1.013  -2.612   4.776  0.00  0.00    +0.085 C 
ATOM      6  C   UNL     1      -2.443  -2.070   4.735  0.00  0.00    -0.058 C 
ATOM      7  H   UNL     1       0.815  -1.752   5.362  0.00  0.00    +0.149 HD
ATOM      8  N   UNL     1      -2.467  -0.913   3.818  0.00  0.00    +0.391 N 
ATOM      9  H   UNL     1      -2.002  -1.171   2.940  0.00  0.00    -0.080 HD
ENDROOT
BRANCH   1  10
ATOM     10  C   UNL     1      -1.591   1.331   3.393  0.00  0.00    +0.090 C 
BRANCH  10  17
ATOM     11  N   UNL     1      -0.757   3.050  -1.212  0.00  0.00    -0.327 N 
ATOM     12  C   UNL     1      -0.599   1.590  -1.267  0.00  0.00    +0.124 C 
ATOM     13  C   UNL     1       0.155   1.115  -0.020  0.00  0.00    +0.126 C 
ATOM     14  N   UNL     1      -0.540   1.621   1.173  0.00  0.00    -0.299 N 
ATOM     15  C   UNL     1      -0.861   3.055   1.234  0.00  0.00    +0.126 C 
ATOM     16  C   UNL     1      -1.575   3.454  -0.062  0.00  0.00    +0.124 C 
ATOM     17  C   UNL     1      -0.879   0.792   2.180  0.00  0.00    +0.215 C 
ATOM     18  O   UNL     1      -0.610  -0.389   2.110  0.00  0.00    -0.276 OA
BRANCH  11  25
ATOM     19  C   UNL     1       0.828   2.875  -3.568  0.00  0.00    +0.045 C 
ATOM     20  C   UNL     1      -0.554   3.474  -3.579  0.00  0.00    -0.029 A 
ATOM     21  C   UNL     1      -1.090   3.956  -4.758  0.00  0.00    +0.005 A 
ATOM     22  C   UNL     1      -2.356   4.511  -4.768  0.00  0.00    +0.000 A 
ATOM     23  C   UNL     1      -3.092   4.582  -3.600  0.00  0.00    +0.002 A 
ATOM     24  C   UNL     1      -2.565   4.098  -2.419  0.00  0.00    +0.023 A 
ATOM     25  C   UNL     1      -1.293   3.539  -2.405  0.00  0.00    +0.033 A 
ENDBRANCH  11  25
ENDBRANCH  10  17
ENDBRANCH   1  10
BRANCH   8  26
ATOM     26  C   UNL     1      -3.865  -0.524   3.527  0.00  0.00    -0.039 C 
BRANCH  26  27
ATOM     27  C   UNL     1      -4.466  -1.534   2.584  0.00  0.00    -0.026 A 
ATOM     28  C   UNL     1      -4.447  -1.305   1.221  0.00  0.00    +0.005 A 
ATOM     29  C   UNL     1      -4.992  -2.234   0.355  0.00  0.00    +0.003 A 
ATOM     30  C   UNL     1      -5.569  -3.388   0.850  0.00  0.00    +0.041 A 
ATOM     31  C   UNL     1      -5.596  -3.618   2.214  0.00  0.00    +0.159 A 
ATOM     32  C   UNL     1      -5.043  -2.689   3.083  0.00  0.00    +0.160 A 
ATOM     33  F   UNL     1      -5.068  -2.911   4.416  0.00  0.00    -0.202 F 
ATOM     34  F   UNL     1      -6.159  -4.746   2.699  0.00  0.00    -0.202 F 
ENDBRANCH  26  27
ENDBRANCH   8  26
TORSDOF 5
