REMARK  Name = ZINC22619308
REMARK  10 active torsions:
REMARK  status: ('A' for Active; 'I' for Inactive)
REMARK    1  A    between atoms: C_1  and  O_2
REMARK    2  A    between atoms: O_2  and  C_3
REMARK    3  A    between atoms: C_6  and  C_9
REMARK    4  A    between atoms: N_15  and  C_16
REMARK    5  A    between atoms: C_16  and  C_17
REMARK    6  A    between atoms: C_17  and  C_18
REMARK    7  A    between atoms: N_20  and  C_21
REMARK    8  A    between atoms: C_21  and  C_22
REMARK    9  A    between atoms: C_22  and  C_24
REMARK   10  A    between atoms: C_22  and  N_31
REMARK                            x       y       z     vdW  Elec       q    Type
REMARK                         _______ _______ _______ _____ _____    ______ ____
ROOT
ATOM      1  C   UNL     1      -1.665   2.867  -5.629  0.00  0.00    +0.215 C 
ATOM      2  O   UNL     1      -2.526   2.343  -6.302  0.00  0.00    -0.276 OA
ATOM      3  N   UNL     1      -0.989   2.143  -4.715  0.00  0.00    -0.316 N 
ATOM      4  H   UNL     1      -0.208   2.619  -4.104  0.00  0.00    +0.149 HD
ENDROOT
BRANCH   1   5
ATOM      5  C   UNL     1      -1.351   4.330  -5.814  0.00  0.00    +0.117 C 
BRANCH   5   6
ATOM      6  C   UNL     1      -2.253   4.912  -6.903  0.00  0.00    +0.135 C 
BRANCH   6  13
ATOM      7  C   UNL     1      -2.627   7.386  -6.502  0.00  0.00    +0.163 A 
ATOM      8  N   UNL     1      -2.071   8.501  -6.887  0.00  0.00    -0.153 NA
ATOM      9  N   UNL     1      -1.010   8.182  -7.746  0.00  0.00    -0.254 N 
ATOM     10  H   UNL     1      -0.404   8.984  -8.192  0.00  0.00    +0.191 HD
ATOM     11  C   UNL     1      -0.959   6.838  -7.847  0.00  0.00    +0.176 A 
ATOM     12  S   UNL     1       0.160   5.936  -8.777  0.00  0.00    -0.011 S 
ATOM     13  N   UNL     1      -1.948   6.333  -7.082  0.00  0.00    -0.303 N 
BRANCH   7  17
ATOM     14  C   UNL     1      -5.963   7.051  -3.891  0.00  0.00    +0.120 A 
ATOM     15  C   UNL     1      -5.794   8.198  -4.654  0.00  0.00    +0.046 A 
ATOM     16  C   UNL     1      -4.713   8.311  -5.502  0.00  0.00    +0.015 A 
ATOM     17  C   UNL     1      -3.788   7.269  -5.593  0.00  0.00    +0.019 A 
ATOM     18  C   UNL     1      -3.966   6.115  -4.830  0.00  0.00    +0.015 A 
ATOM     19  C   UNL     1      -5.046   6.012  -3.980  0.00  0.00    +0.046 A 
BRANCH  14  21
ATOM     20  C   UNL     1      -7.144   5.735  -2.301  0.00  0.00    +0.277 C 
ATOM     21  O   UNL     1      -7.030   6.943  -3.057  0.00  0.00    -0.495 OA
ENDBRANCH  14  21
ENDBRANCH   7  17
ENDBRANCH   6  13
ENDBRANCH   5   6
ENDBRANCH   1   5
BRANCH   3  22
ATOM     22  C   UNL     1      -1.295   0.721  -4.536  0.00  0.00    +0.093 C 
BRANCH  22  23
ATOM     23  C   UNL     1      -0.517   0.180  -3.335  0.00  0.00    -0.019 C 
BRANCH  23  24
ATOM     24  C   UNL     1      -0.733  -1.307  -3.225  0.00  0.00    -0.041 A 
ATOM     25  C   UNL     1      -1.720  -1.802  -2.393  0.00  0.00    +0.003 A 
ATOM     26  C   UNL     1      -1.918  -3.167  -2.292  0.00  0.00    +0.000 A 
ATOM     27  C   UNL     1      -1.131  -4.037  -3.023  0.00  0.00    +0.001 A 
ATOM     28  C   UNL     1      -0.145  -3.543  -3.856  0.00  0.00    +0.020 A 
ATOM     29  C   UNL     1       0.051  -2.177  -3.961  0.00  0.00    +0.043 A 
ATOM     30 CL   UNL     1       1.285  -1.556  -5.012  0.00  0.00    -0.083 Cl
ENDBRANCH  23  24
BRANCH  23  31
ATOM     31  N   UNL     1      -0.990   0.836  -2.109  0.00  0.00    +0.385 N 
ATOM     32  C   UNL     1      -0.633   2.278  -2.104  0.00  0.00    -0.078 C 
ATOM     33  C   UNL     1      -0.687   2.690  -0.618  0.00  0.00    -0.020 C 
ATOM     34  C   UNL     1      -0.470   1.377   0.168  0.00  0.00    -0.020 C 
ATOM     35  C   UNL     1      -0.303   0.286  -0.912  0.00  0.00    -0.078 C 
ATOM     36  H   UNL     1      -2.077   0.667  -2.091  0.00  0.00    -0.081 HD
ENDBRANCH  23  31
ENDBRANCH  22  23
ENDBRANCH   3  22
TORSDOF 9
