REMARK  Name = ZINC66248841
REMARK  4 active torsions:
REMARK  status: ('A' for Active; 'I' for Inactive)
REMARK    1  A    between atoms: C_4  and  S_14
REMARK    2  A    between atoms: S_14  and  N_17
REMARK    3  A    between atoms: N_17  and  C_18
REMARK    4  A    between atoms: N_22  and  C_23
REMARK                            x       y       z     vdW  Elec       q    Type
REMARK                         _______ _______ _______ _____ _____    ______ ____
ROOT
ATOM      1  S   UNL     1       3.732   3.921  -0.006  0.00  0.00    +0.074 S 
ATOM      2  O   UNL     1       2.878   4.521   0.958  0.00  0.00    -0.150 OA
ATOM      3  O   UNL     1       5.143   4.092   0.014  0.00  0.00    -0.150 OA
ENDROOT
BRANCH   1   7
ATOM      4  C   UNL     1       5.606   0.690  -2.552  0.00  0.00    +0.001 A 
ATOM      5  C   UNL     1       5.039   1.669  -1.780  0.00  0.00    +0.010 A 
ATOM      6  C   UNL     1       4.103   1.304  -0.798  0.00  0.00    +0.011 A 
ATOM      7  C   UNL     1       3.435   2.186   0.069  0.00  0.00    +0.116 A 
ATOM      8  C   UNL     1       2.548   1.666   0.973  0.00  0.00    +0.031 A 
ATOM      9  C   UNL     1       2.274   0.303   1.078  0.00  0.00    +0.026 A 
ATOM     10  C   UNL     1       2.910  -0.597   0.243  0.00  0.00    +0.042 A 
ATOM     11  C   UNL     1       3.808  -0.054  -0.671  0.00  0.00    +0.017 A 
ATOM     12  C   UNL     1       4.384  -1.064  -1.456  0.00  0.00    +0.047 A 
ATOM     13  C   UNL     1       5.300  -0.663  -2.413  0.00  0.00    +0.014 A 
ATOM     14  C   UNL     1       3.769  -2.301  -0.959  0.00  0.00    +0.249 C 
ATOM     15  O   UNL     1       3.991  -3.425  -1.370  0.00  0.00    -0.270 OA
ATOM     16  N   UNL     1       2.911  -1.971   0.042  0.00  0.00    -0.281 N 
ATOM     17  H   UNL     1       2.374  -2.605   0.543  0.00  0.00    +0.155 HD
ENDBRANCH   1   7
BRANCH   1  18
ATOM     18  N   UNL     1       3.213   4.443  -1.489  0.00  0.00    -0.200 N 
ATOM     19  H   UNL     1       3.846   4.819  -2.120  0.00  0.00    +0.175 HD
BRANCH  18  20
ATOM     20  C   UNL     1       1.867   4.343  -1.831  0.00  0.00    +0.136 A 
ATOM     21  C   UNL     1       0.859   3.926  -1.015  0.00  0.00    +0.066 A 
ATOM     22  C   UNL     1      -0.331   3.975  -1.747  0.00  0.00    +0.136 A 
ATOM     23  N   UNL     1      -0.055   4.403  -2.952  0.00  0.00    -0.178 NA
ATOM     24  N   UNL     1       1.322   4.647  -3.030  0.00  0.00    -0.246 N 
BRANCH  24  25
ATOM     25  C   UNL     1       2.044   5.141  -4.205  0.00  0.00    +0.109 C 
ATOM     26  C   UNL     1       1.810   4.199  -5.404  0.00  0.00    +0.027 C 
ATOM     27  C   UNL     1       0.643   4.857  -6.182  0.00  0.00    +0.002 C 
ATOM     28  C   UNL     1       0.955   6.369  -6.051  0.00  0.00    +0.002 C 
ATOM     29  C   UNL     1       1.501   6.520  -4.617  0.00  0.00    +0.027 C 
ENDBRANCH  24  25
ENDBRANCH  18  20
ENDBRANCH   1  18
TORSDOF 4
