REMARK  Name = ZINC21706616
REMARK  6 active torsions:
REMARK  status: ('A' for Active; 'I' for Inactive)
REMARK    1  A    between atoms: C_3  and  N_24
REMARK    2  A    between atoms: C_6  and  C_7
REMARK    3  A    between atoms: C_13  and  C_16
REMARK    4  A    between atoms: N_18  and  C_19
REMARK    5  A    between atoms: N_24  and  S_25
REMARK    6  A    between atoms: S_25  and  C_28
REMARK                            x       y       z     vdW  Elec       q    Type
REMARK                         _______ _______ _______ _____ _____    ______ ____
ROOT
ATOM      1  C   UNL     1       2.388   4.316  -0.603  0.00  0.00    +0.015 A 
ATOM      2  C   UNL     1       1.212   3.611  -0.483  0.00  0.00    +0.025 A 
ATOM      3  C   UNL     1       1.243   2.234  -0.275  0.00  0.00    +0.048 A 
ATOM      4  C   UNL     1       2.462   1.569  -0.181  0.00  0.00    +0.025 A 
ATOM      5  C   UNL     1       3.641   2.268  -0.306  0.00  0.00    +0.015 A 
ATOM      6  C   UNL     1       3.613   3.650  -0.515  0.00  0.00    +0.037 A 
ENDROOT
BRANCH   6   7
ATOM      7  C   UNL     1       4.875   4.403  -0.642  0.00  0.00    +0.247 C 
ATOM      8  O   UNL     1       4.932   5.374  -1.372  0.00  0.00    -0.270 OA
ATOM      9  N   UNL     1       5.964   4.016   0.050  0.00  0.00    -0.297 N 
ATOM     10  C   UNL     1       5.924   2.818   0.901  0.00  0.00    +0.108 C 
ATOM     11  C   UNL     1       6.389   3.191   2.307  0.00  0.00    +0.020 C 
ATOM     12  C   UNL     1       7.763   3.859   2.227  0.00  0.00    +0.016 C 
ATOM     13  C   UNL     1       7.662   5.139   1.395  0.00  0.00    +0.092 C 
ATOM     14  C   UNL     1       7.213   4.785  -0.026  0.00  0.00    +0.120 C 
BRANCH  13  15
ATOM     15  C   UNL     1       9.009   5.814   1.343  0.00  0.00    +0.218 C 
ATOM     16  O   UNL     1       9.956   5.321   1.919  0.00  0.00    -0.275 OA
ATOM     17  N   UNL     1       9.161   6.964   0.658  0.00  0.00    -0.312 N 
ATOM     18  H   UNL     1       8.302   7.411   0.136  0.00  0.00    +0.149 HD
BRANCH  17  19
ATOM     19  C   UNL     1      10.471   7.619   0.608  0.00  0.00    +0.073 C 
ATOM     20  C   UNL     1      10.640   8.555   1.823  0.00  0.00    +0.022 C 
ATOM     21  C   UNL     1      11.413   9.774   1.258  0.00  0.00    +0.002 C 
ATOM     22  C   UNL     1      10.795   9.948  -0.152  0.00  0.00    +0.002 C 
ATOM     23  C   UNL     1      10.570   8.504  -0.647  0.00  0.00    +0.022 C 
ENDBRANCH  17  19
ENDBRANCH  13  15
ENDBRANCH   6   7
BRANCH   3  24
ATOM     24  N   UNL     1       0.054   1.524  -0.154  0.00  0.00    -0.216 N 
ATOM     25  H   UNL     1      -0.746   1.899   0.501  0.00  0.00    +0.174 HD
BRANCH  24  26
ATOM     26  S   UNL     1      -0.158   0.115  -0.998  0.00  0.00    +0.072 S 
ATOM     27  O   UNL     1       1.002  -0.674  -0.769  0.00  0.00    -0.150 OA
ATOM     28  O   UNL     1      -1.467  -0.348  -0.693  0.00  0.00    -0.150 OA
BRANCH  26  29
ATOM     29  C   UNL     1      -0.157   0.527  -2.711  0.00  0.00    +0.109 A 
ATOM     30  C   UNL     1      -1.325   0.942  -3.323  0.00  0.00    +0.030 A 
ATOM     31  C   UNL     1      -1.323   1.271  -4.665  0.00  0.00    +0.022 A 
ATOM     32  C   UNL     1      -0.154   1.175  -5.399  0.00  0.00    +0.041 A 
ATOM     33  C   UNL     1       1.013   0.755  -4.787  0.00  0.00    +0.022 A 
ATOM     34  C   UNL     1       1.012   0.431  -3.444  0.00  0.00    +0.030 A 
ATOM     35 CL   UNL     1      -0.153   1.582  -7.087  0.00  0.00    -0.084 Cl
ENDBRANCH  26  29
ENDBRANCH  24  26
ENDBRANCH   3  24
TORSDOF 6
