REMARK  Name = ZINC23821921
REMARK  10 active torsions:
REMARK  status: ('A' for Active; 'I' for Inactive)
REMARK    1  A    between atoms: C_1  and  C_2
REMARK    2  A    between atoms: C_3  and  C_28
REMARK    3  A    between atoms: C_4  and  C_27
REMARK    4  A    between atoms: C_7  and  C_8
REMARK    5  A    between atoms: C_8  and  C_10
REMARK    6  A    between atoms: C_10  and  C_12
REMARK    7  A    between atoms: C_10  and  N_13
REMARK    8  A    between atoms: C_19  and  C_21
REMARK    9  A    between atoms: C_28  and  O_30
REMARK   10  A    between atoms: O_30  and  C_31
REMARK                            x       y       z     vdW  Elec       q    Type
REMARK                         _______ _______ _______ _____ _____    ______ ____
ROOT
ATOM      1  C   UNL     1       1.403   8.211  -0.791  0.00  0.00    +0.003 C 
ATOM      2  C   UNL     1       2.826   8.432  -0.274  0.00  0.00    -0.005 C 
ENDROOT
BRANCH   1   3
ATOM      3  N   UNL     1       1.074   9.249  -1.778  0.00  0.00    +0.388 N 
ATOM      4  C   UNL     1       1.333  10.590  -1.238  0.00  0.00    -0.059 C 
ATOM      5  C   UNL     1       1.152  11.629  -2.350  0.00  0.00    +0.089 C 
ATOM      6  N   UNL     1      -0.179  11.446  -2.948  0.00  0.00    -0.303 N 
ATOM      7  C   UNL     1      -0.565  10.096  -3.389  0.00  0.00    +0.089 C 
ATOM      8  C   UNL     1      -0.316   9.118  -2.236  0.00  0.00    -0.059 C 
ATOM      9  C   UNL     1      -1.024  12.487  -3.088  0.00  0.00    +0.244 C 
ATOM     10  O   UNL     1      -2.118  12.318  -3.583  0.00  0.00    -0.273 OA
ATOM     11  H   UNL     1       1.728   9.107  -2.651  0.00  0.00    -0.081 HD
BRANCH   9  12
ATOM     12  C   UNL     1      -0.608  13.861  -2.630  0.00  0.00    +0.204 C 
ATOM     13  C   UNL     1       0.572  14.364  -3.484  0.00  0.00    +0.043 C 
ATOM     14  C   UNL     1       0.052  15.680  -4.112  0.00  0.00    +0.031 C 
ATOM     15  C   UNL     1      -1.107  16.060  -3.156  0.00  0.00    +0.161 C 
ATOM     16  O   UNL     1      -1.694  14.785  -2.810  0.00  0.00    -0.367 OA
ENDBRANCH   9  12
ENDBRANCH   1   3
BRANCH   1  17
ATOM     17  C   UNL     1       1.308   6.854  -1.439  0.00  0.00    +0.166 C 
ATOM     18  O   UNL     1       1.429   6.746  -2.642  0.00  0.00    -0.292 OA
BRANCH  17  25
ATOM     19  C   UNL     1       1.076   3.955  -2.538  0.00  0.00    +0.047 C 
ATOM     20  C   UNL     1       0.972   4.411  -1.105  0.00  0.00    -0.008 A 
ATOM     21  C   UNL     1       0.746   3.593   0.023  0.00  0.00    +0.083 A 
ATOM     22  C   UNL     1       0.719   4.423   1.131  0.00  0.00    +0.028 A 
ATOM     23  N   UNL     1       0.924   5.685   0.727  0.00  0.00    -0.355 N 
ATOM     24  H   UNL     1       0.946   6.502   1.463  0.00  0.00    +0.166 HD
ATOM     25  C   UNL     1       1.080   5.705  -0.644  0.00  0.00    +0.084 A 
ATOM     26  C   UNL     1       0.498   3.981   2.554  0.00  0.00    +0.064 C 
BRANCH  21  27
ATOM     27  C   UNL     1       0.567   2.131   0.022  0.00  0.00    +0.341 C 
ATOM     28  O   UNL     1       1.531   1.401   0.137  0.00  0.00    -0.245 OA
BRANCH  27  29
ATOM     29  O   UNL     1      -0.667   1.604  -0.107  0.00  0.00    -0.464 OA
ATOM     30  C   UNL     1      -0.768   0.156  -0.100  0.00  0.00    +0.280 C 
ENDBRANCH  27  29
ENDBRANCH  21  27
ENDBRANCH  17  25
ENDBRANCH   1  17
TORSDOF 6
