REMARK  Name = ZINC36574809
REMARK  13 active torsions:
REMARK  status: ('A' for Active; 'I' for Inactive)
REMARK    1  A    between atoms: C_1  and  C_2
REMARK    2  A    between atoms: C_2  and  C_3
REMARK    3  A    between atoms: C_3  and  N_4
REMARK    4  A    between atoms: N_4  and  C_5
REMARK    5  A    between atoms: C_5  and  C_7
REMARK    6  A    between atoms: C_5  and  C_17
REMARK    7  A    between atoms: C_9  and  N_14
REMARK    8  A    between atoms: N_19  and  C_20
REMARK    9  A    between atoms: C_20  and  S_21
REMARK   10  A    between atoms: S_21  and  C_24
REMARK   11  A    between atoms: C_27  and  C_30
REMARK   12  A    between atoms: C_31  and  C_33
REMARK   13  A    between atoms: C_33  and  O_34
REMARK                            x       y       z     vdW  Elec       q    Type
REMARK                         _______ _______ _______ _____ _____    ______ ____
ROOT
ATOM      1  C   UNL     1       1.859  -2.668   0.807  0.00  0.00    +0.194 C 
ENDROOT
BRANCH   1   2
ATOM      2  C   UNL     1       2.703  -1.914   1.803  0.00  0.00    +0.002 A 
ATOM      3  C   UNL     1       2.185  -0.808   2.451  0.00  0.00    +0.040 A 
ATOM      4  C   UNL     1       2.959  -0.117   3.363  0.00  0.00    +0.127 A 
ATOM      5  C   UNL     1       4.252  -0.530   3.628  0.00  0.00    +0.034 A 
ATOM      6  C   UNL     1       4.770  -1.635   2.981  0.00  0.00    +0.022 A 
ATOM      7  C   UNL     1       3.994  -2.332   2.072  0.00  0.00    +0.047 A 
ATOM      8 CL   UNL     1       4.642  -3.725   1.264  0.00  0.00    -0.083 Cl
BRANCH   4   9
ATOM      9  N   UNL     1       2.404   1.068   4.057  0.00  0.00    +0.056 N 
ATOM     10  O   UNL     1       1.274   1.430   3.825  0.00  0.00    -0.126 OA
ATOM     11  O   UNL     1       3.081   1.673   4.855  0.00  0.00    -0.126 OA
ENDBRANCH   4   9
ENDBRANCH   1   2
BRANCH   1  12
ATOM     12  C   UNL     1       2.071  -2.092  -0.569  0.00  0.00    +0.239 C 
ATOM     13  O   UNL     1       1.643  -0.990  -0.838  0.00  0.00    -0.273 OA
ATOM     14  N   UNL     1       2.735  -2.803  -1.502  0.00  0.00    -0.294 N 
ATOM     15  H   UNL     1       3.077  -3.685  -1.287  0.00  0.00    +0.150 HD
BRANCH  14  16
ATOM     16  C   UNL     1       2.941  -2.244  -2.840  0.00  0.00    +0.278 C 
BRANCH  16  17
ATOM     17  S   UNL     1       4.566  -1.442  -2.916  0.00  0.00    +0.013 S 
ATOM     18  O   UNL     1       4.808  -0.949  -4.227  0.00  0.00    -0.168 OA
ATOM     19  O   UNL     1       4.754  -0.607  -1.782  0.00  0.00    -0.168 OA
BRANCH  17  20
ATOM     20  C   UNL     1       5.727  -2.751  -2.707  0.00  0.00    +0.090 A 
ATOM     21  C   UNL     1       6.152  -3.102  -1.440  0.00  0.00    +0.027 A 
ATOM     22  C   UNL     1       7.063  -4.129  -1.276  0.00  0.00    +0.005 A 
ATOM     23  C   UNL     1       7.548  -4.805  -2.379  0.00  0.00    -0.050 A 
ATOM     24  C   UNL     1       7.123  -4.455  -3.647  0.00  0.00    +0.005 A 
ATOM     25  C   UNL     1       6.209  -3.430  -3.811  0.00  0.00    +0.027 A 
ATOM     26  C   UNL     1       8.542  -5.924  -2.201  0.00  0.00    +0.044 C 
ENDBRANCH  17  20
ENDBRANCH  16  17
ENDBRANCH  14  16
ENDBRANCH   1  12
BRANCH   1  27
ATOM     27  N   UNL     1       0.446  -2.547   1.175  0.00  0.00    -0.284 N 
ATOM     28  C   UNL     1      -0.007  -3.120   2.308  0.00  0.00    +0.242 C 
ATOM     29  O   UNL     1      -1.177  -3.020   2.612  0.00  0.00    -0.273 OA
BRANCH  27  30
ATOM     30  C   UNL     1      -0.475  -1.804   0.311  0.00  0.00    +0.109 C 
BRANCH  30  32
ATOM     31  C   UNL     1      -2.043  -1.986  -1.625  0.00  0.00    +0.005 C 
ATOM     32  C   UNL     1      -0.988  -2.724  -0.799  0.00  0.00    +0.016 C 
ENDBRANCH  30  32
ENDBRANCH  27  30
BRANCH  28  33
ATOM     33  C   UNL     1       0.940  -3.885   3.196  0.00  0.00    +0.251 C 
BRANCH  33  34
ATOM     34  O   UNL     1       0.227  -4.393   4.326  0.00  0.00    -0.386 OA
ATOM     35  H   UNL     1       0.775  -4.898   4.942  0.00  0.00    +0.210 HD
ENDBRANCH  33  34
ENDBRANCH  28  33
ENDBRANCH   1  27
TORSDOF 11
