REMARK  Name = ZINC00659368
REMARK  10 active torsions:
REMARK  status: ('A' for Active; 'I' for Inactive)
REMARK    1  A    between atoms: C_1  and  C_2
REMARK    2  A    between atoms: C_2  and  O_3
REMARK    3  A    between atoms: O_3  and  C_4
REMARK    4  A    between atoms: C_4  and  C_6
REMARK    5  A    between atoms: C_7  and  C_27
REMARK    6  A    between atoms: C_9  and  N_26
REMARK    7  A    between atoms: C_10  and  C_24
REMARK    8  A    between atoms: C_11  and  C_13
REMARK    9  A    between atoms: C_17  and  O_19
REMARK   10  A    between atoms: O_19  and  C_20
REMARK                            x       y       z     vdW  Elec       q    Type
REMARK                         _______ _______ _______ _____ _____    ______ ____
ROOT
ATOM      1  C   UNL     1       1.250  -2.359  -2.583  0.00  0.00    +0.087 C 
ATOM      2  C   UNL     1       1.609  -3.650  -2.580  0.00  0.00    +0.115 C 
ATOM      3  O   UNL     1       2.396  -4.170  -3.535  0.00  0.00    -0.445 OA
ATOM      4  C   UNL     1       2.542  -3.526  -4.708  0.00  0.00    +0.198 C 
ATOM      5  C   UNL     1       2.235  -2.212  -4.837  0.00  0.00    +0.098 C 
ATOM      6  C   UNL     1       1.711  -1.425  -3.668  0.00  0.00    +0.105 C 
ATOM      7  C   UNL     1       1.115  -4.544  -1.472  0.00  0.00    +0.087 C 
ENDROOT
BRANCH   6   8
ATOM      8  C   UNL     1       2.808  -0.541  -3.134  0.00  0.00    -0.027 A 
ATOM      9  C   UNL     1       2.641   0.831  -3.118  0.00  0.00    +0.054 A 
ATOM     10  C   UNL     1       3.648   1.649  -2.628  0.00  0.00    +0.170 A 
ATOM     11  C   UNL     1       4.828   1.086  -2.152  0.00  0.00    +0.208 A 
ATOM     12  C   UNL     1       4.991  -0.294  -2.170  0.00  0.00    +0.166 A 
ATOM     13  C   UNL     1       3.977  -1.104  -2.657  0.00  0.00    +0.054 A 
ATOM     14  O   UNL     1       5.652   2.090  -1.730  0.00  0.00    -0.449 OA
ATOM     15  C   UNL     1       5.131   3.292  -2.329  0.00  0.00    +0.467 C 
ATOM     16  O   UNL     1       3.731   3.006  -2.505  0.00  0.00    -0.452 OA
BRANCH  12  17
ATOM     17  O   UNL     1       6.142  -0.849  -1.705  0.00  0.00    -0.491 OA
ATOM     18  C   UNL     1       6.241  -2.273  -1.754  0.00  0.00    +0.277 C 
ENDBRANCH  12  17
ENDBRANCH   6   8
BRANCH   4  19
ATOM     19  N   UNL     1       3.014  -4.215  -5.797  0.00  0.00    -0.328 N 
ATOM     20  H   UNL     1       3.237  -5.155  -5.717  0.00  0.00    +0.145 HD
ATOM     21  H   UNL     1       3.123  -3.761  -6.648  0.00  0.00    +0.145 HD
ENDBRANCH   4  19
BRANCH   1  22
ATOM     22  C   UNL     1       0.417  -1.867  -1.548  0.00  0.00    +0.339 C 
ATOM     23  O   UNL     1      -0.777  -1.735  -1.740  0.00  0.00    -0.245 OA
BRANCH  22  24
ATOM     24  O   UNL     1       0.948  -1.544  -0.351  0.00  0.00    -0.462 OA
BRANCH  24  26
ATOM     25  C   UNL     1       0.828  -0.743   1.926  0.00  0.00    +0.048 C 
ATOM     26  C   UNL     1       0.049  -1.053   0.646  0.00  0.00    +0.229 C 
ENDBRANCH  24  26
ENDBRANCH  22  24
ENDBRANCH   1  22
BRANCH   5  27
ATOM     27  C   UNL     1       2.406  -1.567  -6.103  0.00  0.00    +0.101 C 
ATOM     28  N   UNL     1       2.542  -1.054  -7.108  0.00  0.00    -0.191 NA
ENDBRANCH   5  27
TORSDOF 7
