REMARK  Name = ZINC04177852
REMARK  10 active torsions:
REMARK  status: ('A' for Active; 'I' for Inactive)
REMARK    1  A    between atoms: C_1  and  C_2
REMARK    2  A    between atoms: N_5  and  S_8
REMARK    3  A    between atoms: S_8  and  C_11
REMARK    4  A    between atoms: C_14  and  C_17
REMARK    5  A    between atoms: N_19  and  C_20
REMARK    6  A    between atoms: C_21  and  C_33
REMARK    7  A    between atoms: C_25  and  C_31
REMARK    8  A    between atoms: C_25  and  C_32
REMARK    9  A    between atoms: C_27  and  C_29
REMARK   10  A    between atoms: C_27  and  C_30
REMARK                            x       y       z     vdW  Elec       q    Type
REMARK                         _______ _______ _______ _____ _____    ______ ____
ROOT
ATOM      1  C   UNL     1       0.118  -9.115  -0.036  0.00  0.00    +0.249 C 
ATOM      2  O   UNL     1      -0.666  -9.674  -0.779  0.00  0.00    -0.270 OA
ATOM      3  N   UNL     1       1.276  -9.718   0.297  0.00  0.00    -0.275 N 
ATOM      4  H   UNL     1       1.902  -9.272   0.890  0.00  0.00    +0.156 HD
ENDROOT
BRANCH   3   5
ATOM      5  C   UNL     1       1.573 -10.974  -0.206  0.00  0.00    +0.085 A 
ATOM      6  C   UNL     1       2.709 -11.739   0.029  0.00  0.00    +0.068 A 
ATOM      7  C   UNL     1       2.779 -13.026  -0.625  0.00  0.00    -0.026 A 
ATOM      8  C   UNL     1       1.709 -13.323  -1.399  0.00  0.00    -0.016 A 
ATOM      9  S   UNL     1       0.645 -11.921  -1.237  0.00  0.00    -0.079 S 
ATOM     10  C   UNL     1       1.516 -14.565  -2.204  0.00  0.00    -0.041 C 
ATOM     11  N   UNL     1       2.543 -15.569  -1.928  0.00  0.00    +0.389 N 
ATOM     12  C   UNL     1       3.267 -15.433  -0.672  0.00  0.00    -0.069 C 
ATOM     13  C   UNL     1       3.902 -14.046  -0.520  0.00  0.00    +0.024 C 
ATOM     14  C   UNL     1       4.402 -16.475  -0.650  0.00  0.00    -0.010 C 
ATOM     15  C   UNL     1       2.354 -15.709   0.525  0.00  0.00    -0.010 C 
ATOM     16  C   UNL     1       0.121 -15.143  -1.928  0.00  0.00    -0.005 C 
ATOM     17  C   UNL     1       1.584 -14.188  -3.697  0.00  0.00    -0.005 C 
ATOM     18  H   UNL     1       2.111 -16.494  -1.956  0.00  0.00    -0.084 HD
ATOM     19  H   UNL     1       3.220 -15.559  -2.694  0.00  0.00    -0.084 HD
BRANCH   6  20
ATOM     20  C   UNL     1       3.783 -11.250   0.899  0.00  0.00    +0.244 C 
ATOM     21  O   UNL     1       3.758 -11.493   2.092  0.00  0.00    -0.270 OA
ATOM     22  N   UNL     1       4.798 -10.532   0.379  0.00  0.00    -0.325 N 
ATOM     23  H   UNL     1       4.819 -10.339  -0.571  0.00  0.00    +0.145 HD
ATOM     24  H   UNL     1       5.509 -10.209   0.955  0.00  0.00    +0.145 HD
ENDBRANCH   6  20
ENDBRANCH   3   5
BRANCH   1  28
ATOM     25  C   UNL     1      -0.795  -5.265   1.507  0.00  0.00    +0.106 A 
ATOM     26  C   UNL     1      -1.689  -5.897   0.662  0.00  0.00    +0.029 A 
ATOM     27  C   UNL     1      -1.399  -7.148   0.157  0.00  0.00    +0.015 A 
ATOM     28  C   UNL     1      -0.200  -7.775   0.500  0.00  0.00    +0.037 A 
ATOM     29  C   UNL     1       0.698  -7.131   1.354  0.00  0.00    +0.015 A 
ATOM     30  C   UNL     1       0.398  -5.878   1.847  0.00  0.00    +0.029 A 
BRANCH  25  31
ATOM     31  S   UNL     1      -1.173  -3.668   2.148  0.00  0.00    +0.061 S 
ATOM     32  O   UNL     1      -0.421  -3.521   3.344  0.00  0.00    -0.153 OA
ATOM     33  O   UNL     1      -2.589  -3.544   2.119  0.00  0.00    -0.153 OA
BRANCH  31  38
ATOM     34  C   UNL     1      -0.019   1.526   0.010  0.00  0.00    +0.007 C 
ATOM     35  C   UNL     1       0.002  -0.004   0.002  0.00  0.00    -0.012 C 
ATOM     36  C   UNL     1      -1.434  -0.533   0.011  0.00  0.00    +0.020 C 
ATOM     37  C   UNL     1      -1.409  -2.065  -0.032  0.00  0.00    +0.110 C 
ATOM     38  N   UNL     1      -0.578  -2.556   1.075  0.00  0.00    -0.177 NA
ATOM     39  C   UNL     1       0.791  -2.042   1.212  0.00  0.00    +0.110 C 
ATOM     40  C   UNL     1       0.742  -0.511   1.242  0.00  0.00    +0.020 C 
ENDBRANCH  31  38
ENDBRANCH  25  31
ENDBRANCH   1  28
TORSDOF 5
