REMARK  Name = ZINC20751755
REMARK  8 active torsions:
REMARK  status: ('A' for Active; 'I' for Inactive)
REMARK    1  A    between atoms: C_1  and  C_2
REMARK    2  A    between atoms: C_2  and  C_3
REMARK    3  A    between atoms: C_2  and  C_4
REMARK    4  A    between atoms: C_2  and  N_5
REMARK    5  A    between atoms: N_5  and  S_6
REMARK    6  A    between atoms: S_6  and  C_9
REMARK    7  A    between atoms: C_22  and  C_25
REMARK    8  A    between atoms: C_34  and  O_35
REMARK                            x       y       z     vdW  Elec       q    Type
REMARK                         _______ _______ _______ _____ _____    ______ ____
ROOT
ATOM      1  C   UNL     1       0.156   0.010  -4.720  0.00  0.00    +0.106 A 
ATOM      2  C   UNL     1       1.422   0.318  -5.183  0.00  0.00    +0.030 A 
ATOM      3  C   UNL     1       2.461   0.499  -4.293  0.00  0.00    +0.025 A 
ATOM      4  C   UNL     1       2.244   0.372  -2.926  0.00  0.00    +0.031 A 
ATOM      5  C   UNL     1       0.957   0.074  -2.464  0.00  0.00    -0.018 A 
ATOM      6  C   UNL     1      -0.072  -0.111  -3.362  0.00  0.00    +0.034 A 
ATOM      7  C   UNL     1       0.760  -0.009  -1.001  0.00  0.00    +0.049 C 
ATOM      8  C   UNL     1      -0.320  -0.845  -0.416  0.00  0.00    -0.023 C 
ATOM      9  C   UNL     1       0.088  -1.303   0.761  0.00  0.00    -0.030 C 
ATOM     10  C   UNL     1       1.541  -0.822   1.053  0.00  0.00    +0.033 C 
ATOM     11  C   UNL     1       2.054  -0.613  -0.378  0.00  0.00    +0.029 C 
ATOM     12  C   UNL     1       3.130   0.440  -0.580  0.00  0.00    +0.109 C 
ATOM     13  N   UNL     1       3.317   0.542  -2.044  0.00  0.00    -0.336 N 
ATOM     14  H   UNL     1       4.314   0.755  -2.457  0.00  0.00    +0.147 HD
ENDROOT
BRANCH  12  15
ATOM     15  C   UNL     1       4.412   0.008   0.083  0.00  0.00    +0.022 A 
ATOM     16  C   UNL     1       4.821   0.607   1.286  0.00  0.00    -0.009 A 
ATOM     17  C   UNL     1       4.047   1.605   1.904  0.00  0.00    +0.009 A 
ATOM     18  C   UNL     1       4.471   2.159   3.073  0.00  0.00    +0.001 A 
ATOM     19  C   UNL     1       5.660   1.747   3.672  0.00  0.00    +0.001 A 
ATOM     20  C   UNL     1       6.432   0.779   3.106  0.00  0.00    +0.008 A 
ATOM     21  C   UNL     1       6.028   0.184   1.899  0.00  0.00    -0.017 A 
ATOM     22  C   UNL     1       6.800  -0.818   1.286  0.00  0.00    +0.012 A 
ATOM     23  C   UNL     1       6.379  -1.374   0.118  0.00  0.00    +0.046 A 
ATOM     24  C   UNL     1       5.186  -0.963  -0.485  0.00  0.00    +0.122 A 
BRANCH  24  25
ATOM     25  O   UNL     1       4.792  -1.538  -1.651  0.00  0.00    -0.506 OA
ATOM     26  H   UNL     1       5.409  -2.321  -2.115  0.00  0.00    +0.292 HD
ENDBRANCH  24  25
ENDBRANCH  12  15
BRANCH   1  27
ATOM     27  S   UNL     1      -1.166  -0.229  -5.860  0.00  0.00    +0.059 S 
ATOM     28  O   UNL     1      -2.327   0.327  -5.259  0.00  0.00    -0.153 OA
ATOM     29  O   UNL     1      -0.688   0.195  -7.130  0.00  0.00    -0.153 OA
BRANCH  27  30
ATOM     30  N   UNL     1      -1.426  -1.860  -5.973  0.00  0.00    -0.185 NA
ATOM     31  H   UNL     1      -2.426  -2.262  -5.750  0.00  0.00    +0.149 HD
BRANCH  30  33
ATOM     32  C   UNL     1       0.907  -2.573  -5.803  0.00  0.00    +0.029 C 
ATOM     33  C   UNL     1      -0.407  -2.725  -6.572  0.00  0.00    +0.032 C 
ATOM     34  C   UNL     1      -0.871  -4.182  -6.505  0.00  0.00    +0.029 C 
ATOM     35  C   UNL     1      -0.192  -2.325  -8.033  0.00  0.00    +0.029 C 
ENDBRANCH  30  33
ENDBRANCH  27  30
ENDBRANCH   1  27
TORSDOF 5
