REMARK  Name = ZINC12847417
REMARK  9 active torsions:
REMARK  status: ('A' for Active; 'I' for Inactive)
REMARK    1  A    between atoms: C_1  and  C_2
REMARK    2  A    between atoms: C_2  and  C_3
REMARK    3  A    between atoms: C_2  and  C_4
REMARK    4  A    between atoms: C_2  and  C_5
REMARK    5  A    between atoms: C_12  and  N_16
REMARK    6  A    between atoms: C_13  and  C_14
REMARK    7  A    between atoms: C_17  and  C_19
REMARK    8  A    between atoms: C_25  and  C_34
REMARK    9  A    between atoms: C_28  and  C_30
REMARK                            x       y       z     vdW  Elec       q    Type
REMARK                         _______ _______ _______ _____ _____    ______ ____
ROOT
ATOM      1  C   UNL     1       7.600  -0.637  -6.375  0.00  0.00    +0.091 C 
ATOM      2  C   UNL     1       8.960  -0.562  -6.154  0.00  0.00    +0.104 C 
ATOM      3  N   UNL     1       9.617  -0.832  -7.311  0.00  0.00    -0.269 N 
ATOM      4  N   UNL     1       8.701  -1.074  -8.328  0.00  0.00    -0.226 N 
ATOM      5  C   UNL     1       7.425  -0.989  -7.789  0.00  0.00    +0.126 C 
ATOM      6  N   UNL     1       6.337  -1.187  -8.476  0.00  0.00    -0.361 N 
ATOM      7  C   UNL     1       6.446  -1.568  -9.889  0.00  0.00    +0.149 C 
ATOM      8  C   UNL     1       7.689  -0.940 -10.520  0.00  0.00    +0.065 C 
ATOM      9  C   UNL     1       8.942  -1.368  -9.745  0.00  0.00    +0.202 C 
ATOM     10  H   UNL     1      10.581  -0.853  -7.412  0.00  0.00    +0.170 HD
ATOM     11  H   UNL     1       5.467  -1.085  -8.059  0.00  0.00    +0.162 HD
ENDROOT
BRANCH   7  12
ATOM     12  C   UNL     1       6.541  -3.069  -9.994  0.00  0.00    +0.127 A 
ATOM     13  C   UNL     1       5.943  -3.832 -10.926  0.00  0.00    +0.047 A 
ATOM     14  C   UNL     1       6.300  -5.172 -10.650  0.00  0.00    +0.041 A 
ATOM     15  C   UNL     1       7.094  -5.147  -9.565  0.00  0.00    +0.195 A 
ATOM     16  O   UNL     1       7.242  -3.870  -9.175  0.00  0.00    -0.466 OA
ENDBRANCH   7  12
BRANCH   1  18
ATOM     17  N   UNL     1       5.251  -0.638  -5.722  0.00  0.00    -0.275 N 
ATOM     18  C   UNL     1       6.538  -0.414  -5.389  0.00  0.00    +0.253 C 
ATOM     19  O   UNL     1       6.818  -0.028  -4.269  0.00  0.00    -0.270 OA
ATOM     20  H   UNL     1       5.021  -0.873  -6.635  0.00  0.00    +0.156 HD
BRANCH  17  27
ATOM     21  C   UNL     1       0.730  -0.525  -1.240  0.00  0.00    -0.000 C 
ATOM     22  C   UNL     1      -0.014  -0.033  -2.485  0.00  0.00    +0.009 C 
ATOM     23  C   UNL     1       0.545  -0.720  -3.732  0.00  0.00    +0.037 C 
ATOM     24  C   UNL     1       2.057  -0.551  -3.747  0.00  0.00    -0.018 A 
ATOM     25  C   UNL     1       2.736  -0.217  -2.628  0.00  0.00    -0.004 A 
ATOM     26  S   UNL     1       4.428  -0.139  -3.138  0.00  0.00    -0.077 S 
ATOM     27  C   UNL     1       4.257  -0.531  -4.761  0.00  0.00    +0.090 A 
ATOM     28  C   UNL     1       2.894  -0.724  -4.921  0.00  0.00    +0.084 A 
ATOM     29  C   UNL     1       2.164   0.025  -1.265  0.00  0.00    +0.047 C 
BRANCH  21  31
ATOM     30  C   UNL     1      -0.025   1.500   0.012  0.00  0.00    +0.011 C 
ATOM     31  C   UNL     1       0.012  -0.029   0.016  0.00  0.00    -0.035 C 
ATOM     32  C   UNL     1       0.761  -0.518   1.258  0.00  0.00    +0.011 C 
ATOM     33  C   UNL     1      -1.417  -0.574   0.035  0.00  0.00    +0.011 C 
ENDBRANCH  21  31
BRANCH  28  34
ATOM     34  C   UNL     1       2.334  -1.079  -6.190  0.00  0.00    +0.102 C 
ATOM     35  N   UNL     1       1.891  -1.362  -7.197  0.00  0.00    -0.191 NA
ENDBRANCH  28  34
ENDBRANCH  17  27
ENDBRANCH   1  18
BRANCH   9  36
ATOM     36  C   UNL     1      10.164  -0.591 -10.239  0.00  0.00    +0.410 C 
ATOM     37  F   UNL     1      11.287  -0.965  -9.493  0.00  0.00    -0.169 F 
ATOM     38  F   UNL     1      10.385  -0.878 -11.590  0.00  0.00    -0.169 F 
ATOM     39  F   UNL     1       9.937   0.781 -10.085  0.00  0.00    -0.169 F 
ENDBRANCH   9  36
TORSDOF 6
