REMARK  Name = ZINC60342738
REMARK  6 active torsions:
REMARK  status: ('A' for Active; 'I' for Inactive)
REMARK    1  A    between atoms: C_3  and  N_18
REMARK    2  A    between atoms: C_4  and  S_10
REMARK    3  A    between atoms: C_6  and  N_7
REMARK    4  A    between atoms: S_10  and  N_13
REMARK    5  A    between atoms: N_18  and  C_19
REMARK    6  A    between atoms: C_25  and  O_27
REMARK                            x       y       z     vdW  Elec       q    Type
REMARK                         _______ _______ _______ _____ _____    ______ ____
ROOT
ATOM      1  C   UNL     1      -0.017   1.378   0.010  0.00  0.00    +0.034 A 
ATOM      2  C   UNL     1       1.169   2.087   0.002  0.00  0.00    +0.027 A 
ATOM      3  C   UNL     1       2.381   1.409  -0.013  0.00  0.00    +0.054 A 
ATOM      4  C   UNL     1       2.396   0.020  -0.021  0.00  0.00    +0.128 A 
ATOM      5  C   UNL     1       1.207  -0.682  -0.013  0.00  0.00    +0.063 A 
ATOM      6  C   UNL     1       0.002  -0.004   0.002  0.00  0.00    +0.128 A 
ENDROOT
BRANCH   6   7
ATOM      7  N   UNL     1      -1.270  -0.760   0.010  0.00  0.00    +0.056 N 
ATOM      8  O   UNL     1      -2.325  -0.168   0.023  0.00  0.00    -0.126 OA
ATOM      9  O   UNL     1      -1.256  -1.969   0.004  0.00  0.00    -0.126 OA
ENDBRANCH   6   7
BRANCH   4  10
ATOM     10  S   UNL     1       3.931  -0.846  -0.041  0.00  0.00    +0.063 S 
ATOM     11  O   UNL     1       4.735  -0.270   0.980  0.00  0.00    -0.153 OA
ATOM     12  O   UNL     1       3.616  -2.231  -0.072  0.00  0.00    -0.153 OA
BRANCH  10  13
ATOM     13  N   UNL     1       4.672  -0.496  -1.480  0.00  0.00    -0.177 NA
ATOM     14  C   UNL     1       4.513  -1.252  -2.731  0.00  0.00    +0.109 C 
ATOM     15  C   UNL     1       5.409  -0.576  -3.791  0.00  0.00    +0.018 C 
ATOM     16  C   UNL     1       6.455   0.180  -2.931  0.00  0.00    +0.018 C 
ATOM     17  C   UNL     1       5.594   0.629  -1.721  0.00  0.00    +0.109 C 
ENDBRANCH  10  13
ENDBRANCH   4  10
BRANCH   3  18
ATOM     18  N   UNL     1       3.582   2.122  -0.021  0.00  0.00    -0.337 N 
ATOM     19  H   UNL     1       4.428   1.647  -0.032  0.00  0.00    +0.146 HD
BRANCH  18  20
ATOM     20  C   UNL     1       3.564   3.587  -0.014  0.00  0.00    +0.099 C 
ATOM     21  C   UNL     1       3.446   4.088   1.427  0.00  0.00    +0.025 C 
ATOM     22  C   UNL     1       3.427   5.618   1.435  0.00  0.00    +0.002 C 
ATOM     23  C   UNL     1       4.722   6.147   0.815  0.00  0.00    +0.003 C 
ATOM     24  C   UNL     1       4.840   5.646  -0.625  0.00  0.00    +0.033 C 
ATOM     25  C   UNL     1       4.859   4.116  -0.633  0.00  0.00    +0.135 C 
BRANCH  25  26
ATOM     26  O   UNL     1       4.969   3.648  -1.979  0.00  0.00    -0.390 OA
ATOM     27  H   UNL     1       5.769   3.945  -2.435  0.00  0.00    +0.210 HD
ENDBRANCH  25  26
ENDBRANCH  18  20
ENDBRANCH   3  18
TORSDOF 6
