REMARK  Name = ZINC64182086
REMARK  5 active torsions:
REMARK  status: ('A' for Active; 'I' for Inactive)
REMARK    1  A    between atoms: C_1  and  C_2
REMARK    2  A    between atoms: C_5  and  S_8
REMARK    3  A    between atoms: S_8  and  N_11
REMARK    4  A    between atoms: C_16  and  C_18
REMARK    5  A    between atoms: C_23  and  C_26
REMARK                            x       y       z     vdW  Elec       q    Type
REMARK                         _______ _______ _______ _____ _____    ______ ____
ROOT
ATOM      1  C   UNL     1       1.364  -4.979   2.548  0.00  0.00    +0.235 C 
ATOM      2  O   UNL     1       0.681  -5.830   3.078  0.00  0.00    -0.274 OA
ATOM      3  N   UNL     1       1.182  -3.680   2.857  0.00  0.00    -0.296 N 
ATOM      4  C   UNL     1       0.252  -3.270   3.922  0.00  0.00    +0.113 C 
ATOM      5  C   UNL     1       1.063  -2.570   5.015  0.00  0.00    +0.054 C 
ATOM      6  C   UNL     1       2.019  -1.586   4.409  0.00  0.00    -0.043 C 
ATOM      7  C   UNL     1       2.402  -1.606   3.138  0.00  0.00    -0.004 C 
ATOM      8  C   UNL     1       1.909  -2.618   2.147  0.00  0.00    +0.135 C 
ENDROOT
BRANCH   6   9
ATOM      9  C   UNL     1       2.543  -0.576   5.241  0.00  0.00    -0.016 C 
ATOM     10  C   UNL     1       2.368  -0.443   6.612  0.00  0.00    +0.003 A 
ATOM     11  C   UNL     1       1.661  -1.213   7.564  0.00  0.00    +0.010 A 
ATOM     12  C   UNL     1       1.662  -0.839   8.867  0.00  0.00    +0.001 A 
ATOM     13  C   UNL     1       2.350   0.299   9.303  0.00  0.00    +0.002 A 
ATOM     14  C   UNL     1       3.048   1.084   8.448  0.00  0.00    +0.026 A 
ATOM     15  C   UNL     1       3.094   0.757   7.066  0.00  0.00    +0.043 A 
ATOM     16  N   UNL     1       3.690   1.345   6.052  0.00  0.00    -0.380 N 
ATOM     17  C   UNL     1       3.420   0.586   4.827  0.00  0.00    +0.149 C 
ATOM     18  H   UNL     1       4.226   2.152   6.106  0.00  0.00    +0.160 HD
ENDBRANCH   6   9
BRANCH   1  24
ATOM     19  N   UNL     1       1.778  -5.702   0.264  0.00  0.00    -0.165 NA
ATOM     20  C   UNL     1       2.607  -6.251  -0.819  0.00  0.00    +0.110 C 
ATOM     21  C   UNL     1       3.356  -7.479  -0.292  0.00  0.00    +0.017 C 
ATOM     22  C   UNL     1       4.139  -7.093   0.965  0.00  0.00    +0.003 C 
ATOM     23  C   UNL     1       3.168  -6.619   2.048  0.00  0.00    +0.030 C 
ATOM     24  C   UNL     1       2.417  -5.376   1.546  0.00  0.00    +0.166 C 
BRANCH  19  25
ATOM     25  S   UNL     1       0.157  -5.449   0.040  0.00  0.00    +0.062 S 
ATOM     26  O   UNL     1      -0.020  -5.140  -1.335  0.00  0.00    -0.153 OA
ATOM     27  O   UNL     1      -0.264  -4.574   1.078  0.00  0.00    -0.153 OA
BRANCH  25  32
ATOM     28  C   UNL     1      -2.621 -10.720   0.995  0.00  0.00    +0.044 C 
ATOM     29  C   UNL     1      -1.927  -9.403   0.756  0.00  0.00    -0.050 A 
ATOM     30  C   UNL     1      -1.725  -8.528   1.807  0.00  0.00    +0.005 A 
ATOM     31  C   UNL     1      -1.089  -7.321   1.588  0.00  0.00    +0.029 A 
ATOM     32  C   UNL     1      -0.653  -6.989   0.319  0.00  0.00    +0.106 A 
ATOM     33  C   UNL     1      -0.854  -7.864  -0.732  0.00  0.00    +0.029 A 
ATOM     34  C   UNL     1      -1.487  -9.073  -0.512  0.00  0.00    +0.005 A 
ENDBRANCH  25  32
ENDBRANCH  19  25
ENDBRANCH   1  24
TORSDOF 4
