REMARK  Name = ZINC06014861
REMARK  12 active torsions:
REMARK  status: ('A' for Active; 'I' for Inactive)
REMARK    1  A    between atoms: C_1  and  C_2
REMARK    2  A    between atoms: C_2  and  C_3
REMARK    3  A    between atoms: C_2  and  C_4
REMARK    4  A    between atoms: C_2  and  O_5
REMARK    5  A    between atoms: O_5  and  C_6
REMARK    6  A    between atoms: C_15  and  C_27
REMARK    7  A    between atoms: C_17  and  C_23
REMARK    8  A    between atoms: C_17  and  C_25
REMARK    9  A    between atoms: C_18  and  N_22
REMARK   10  A    between atoms: C_19  and  C_20
REMARK   11  A    between atoms: C_29  and  O_34
REMARK   12  A    between atoms: O_34  and  C_35
REMARK                            x       y       z     vdW  Elec       q    Type
REMARK                         _______ _______ _______ _____ _____    ______ ____
ROOT
ATOM      1  C   UNL     1      -3.654   3.804  -3.513  0.00  0.00    +0.404 C 
ATOM      2  O   UNL     1      -3.226   3.057  -4.371  0.00  0.00    -0.226 OA
ATOM      3  N   UNL     1      -2.819   4.316  -2.588  0.00  0.00    -0.263 N 
ATOM      4  C   UNL     1      -3.305   5.224  -1.532  0.00  0.00    +0.138 C 
ATOM      5  C   UNL     1      -2.910   4.619  -0.209  0.00  0.00    -0.003 C 
ATOM      6  C   UNL     1      -1.881   3.823  -0.118  0.00  0.00    -0.026 C 
ATOM      7  C   UNL     1      -0.943   3.480  -1.237  0.00  0.00    +0.048 C 
ATOM      8  C   UNL     1      -1.388   3.994  -2.587  0.00  0.00    +0.120 C 
ATOM      9  C   UNL     1      -0.737   1.964  -1.245  0.00  0.00    +0.071 C 
ATOM     10  C   UNL     1      -0.065   1.549   0.065  0.00  0.00    +0.188 C 
ATOM     11  C   UNL     1      -0.785   2.108   1.255  0.00  0.00    +0.054 C 
ATOM     12  C   UNL     1      -1.623   3.171   1.194  0.00  0.00    +0.074 C 
ENDROOT
BRANCH   9  13
ATOM     13  C   UNL     1      -2.070   1.273  -1.369  0.00  0.00    -0.002 A 
ATOM     14  C   UNL     1      -2.974   1.324  -0.325  0.00  0.00    +0.052 A 
ATOM     15  C   UNL     1      -4.201   0.688  -0.440  0.00  0.00    +0.121 A 
ATOM     16  C   UNL     1      -4.520   0.002  -1.603  0.00  0.00    +0.048 A 
ATOM     17  C   UNL     1      -3.614  -0.047  -2.645  0.00  0.00    +0.042 A 
ATOM     18  C   UNL     1      -2.392   0.593  -2.531  0.00  0.00    +0.127 A 
ATOM     19  F   UNL     1      -1.509   0.549  -3.553  0.00  0.00    -0.205 F 
BRANCH  15  20
ATOM     20  O   UNL     1      -5.092   0.738   0.586  0.00  0.00    -0.495 OA
ATOM     21  C   UNL     1      -6.336   0.060   0.399  0.00  0.00    +0.277 C 
ENDBRANCH  15  20
ENDBRANCH   9  13
BRANCH  11  22
ATOM     22  N   UNL     1      -0.584   1.514   2.469  0.00  0.00    -0.358 N 
ATOM     23  H   UNL     1      -1.098   1.899   3.362  0.00  0.00    +0.142 HD
ATOM     24  H   UNL     1       0.090   0.649   2.553  0.00  0.00    +0.142 HD
ENDBRANCH  11  22
BRANCH  12  25
ATOM     25  C   UNL     1      -2.256   3.662   2.382  0.00  0.00    +0.101 C 
ATOM     26  N   UNL     1      -2.758   4.051   3.323  0.00  0.00    -0.191 NA
ENDBRANCH  12  25
BRANCH  10  27
ATOM     27  C   UNL     1      -0.056   0.080   0.155  0.00  0.00    +0.091 C 
ATOM     28  N   UNL     1      -0.048  -1.054   0.225  0.00  0.00    -0.194 NA
ENDBRANCH  10  27
BRANCH  10  29
ATOM     29  C   UNL     1       1.323   2.039   0.069  0.00  0.00    +0.091 C 
ATOM     30  N   UNL     1       2.394   2.417   0.072  0.00  0.00    -0.194 NA
ENDBRANCH  10  29
BRANCH   1  31
ATOM     31  O   UNL     1      -4.963   4.118  -3.486  0.00  0.00    -0.445 OA
BRANCH  31  33
ATOM     32  C   UNL     1      -5.745   2.005  -4.408  0.00  0.00    +0.055 C 
ATOM     33  C   UNL     1      -5.804   3.530  -4.513  0.00  0.00    +0.107 C 
ATOM     34  C   UNL     1      -7.247   3.999  -4.322  0.00  0.00    +0.055 C 
ATOM     35  C   UNL     1      -5.304   3.965  -5.893  0.00  0.00    +0.055 C 
ENDBRANCH  31  33
ENDBRANCH   1  31
TORSDOF 8
