REMARK  Name = ZINC04222299
REMARK  9 active torsions:
REMARK  status: ('A' for Active; 'I' for Inactive)
REMARK    1  A    between atoms: C_1  and  C_2
REMARK    2  A    between atoms: C_5  and  O_37
REMARK    3  A    between atoms: C_7  and  C_34
REMARK    4  A    between atoms: C_7  and  C_35
REMARK    5  A    between atoms: C_17  and  C_19
REMARK    6  A    between atoms: C_25  and  C_27
REMARK    7  A    between atoms: C_27  and  C_28
REMARK    8  A    between atoms: N_30  and  C_31
REMARK    9  A    between atoms: C_35  and  O_36
REMARK                            x       y       z     vdW  Elec       q    Type
REMARK                         _______ _______ _______ _____ _____    ______ ____
ROOT
ATOM      1  C   UNL     1       2.357   3.580   2.413  0.00  0.00    +0.012 C 
ATOM      2  C   UNL     1       3.218   3.219   1.202  0.00  0.00    -0.019 C 
ATOM      3  C   UNL     1       3.484   1.710   1.182  0.00  0.00    +0.010 C 
ATOM      4  C   UNL     1       2.174   0.940   1.026  0.00  0.00    +0.032 C 
ATOM      5  C   UNL     1       1.521   1.342  -0.299  0.00  0.00    +0.123 C 
ATOM      6  C   UNL     1       1.211   2.837  -0.261  0.00  0.00    +0.021 C 
ATOM      7  C   UNL     1       2.501   3.644  -0.082  0.00  0.00    +0.011 C 
ATOM      8  C   UNL     1       2.099   5.127   0.038  0.00  0.00    +0.049 C 
ATOM      9  C   UNL     1       3.258   5.903   0.553  0.00  0.00    +0.015 A 
ATOM     10  C   UNL     1       4.389   5.422   1.131  0.00  0.00    +0.058 A 
ATOM     11  N   UNL     1       5.282   6.333   1.511  0.00  0.00    -0.229 NA
ATOM     12  C   UNL     1       5.086   7.623   1.339  0.00  0.00    +0.165 A 
ATOM     13  S   UNL     1       3.523   7.656   0.579  0.00  0.00    -0.057 S 
ATOM     14  N   UNL     1       5.915   8.686   1.679  0.00  0.00    -0.264 N 
ATOM     15  C   UNL     1       5.530   9.951   1.418  0.00  0.00    +0.222 C 
ATOM     16  O   UNL     1       4.461  10.162   0.885  0.00  0.00    -0.275 OA
ATOM     17  C   UNL     1       4.577   3.923   1.308  0.00  0.00    +0.054 C 
ATOM     18  C   UNL     1       0.538   3.249  -1.572  0.00  0.00    +0.016 C 
ATOM     19  H   UNL     1       6.770   8.517   2.105  0.00  0.00    +0.157 HD
ENDROOT
BRANCH  15  20
ATOM     20  C   UNL     1       6.429  11.103   1.786  0.00  0.00    +0.075 C 
ATOM     21  C   UNL     1       6.673  11.097   3.297  0.00  0.00    +0.013 C 
ATOM     22  C   UNL     1       7.586  12.266   3.671  0.00  0.00    +0.001 C 
ATOM     23  C   UNL     1       6.918  13.583   3.268  0.00  0.00    +0.000 C 
ATOM     24  C   UNL     1       6.673  13.590   1.758  0.00  0.00    +0.001 C 
ATOM     25  C   UNL     1       5.761  12.420   1.384  0.00  0.00    +0.013 C 
ENDBRANCH  15  20
BRANCH   5  26
ATOM     26  O   UNL     1       0.309   0.606  -0.479  0.00  0.00    -0.391 OA
ATOM     27  H   UNL     1       0.432  -0.352  -0.513  0.00  0.00    +0.210 HD
ENDBRANCH   5  26
BRANCH  17  28
ATOM     28  C   UNL     1       5.189   3.646   2.683  0.00  0.00    +0.106 C 
BRANCH  28  29
ATOM     29  C   UNL     1       6.602   4.168   2.718  0.00  0.00    +0.214 C 
ATOM     30  O   UNL     1       7.073   4.709   1.741  0.00  0.00    -0.276 OA
ATOM     31  N   UNL     1       7.342   4.034   3.837  0.00  0.00    -0.312 N 
ATOM     32  H   UNL     1       6.965   3.601   4.619  0.00  0.00    +0.149 HD
BRANCH  31  33
ATOM     33  C   UNL     1       8.715   4.542   3.872  0.00  0.00    +0.073 C 
ATOM     34  C   UNL     1       9.782   3.650   4.510  0.00  0.00    +0.024 C 
ATOM     35  C   UNL     1       9.300   4.906   5.238  0.00  0.00    +0.024 C 
ENDBRANCH  31  33
ENDBRANCH  28  29
ENDBRANCH  17  28
BRANCH   6  36
ATOM     36  C   UNL     1       0.266   3.128   0.907  0.00  0.00    +0.165 C 
BRANCH  36  37
ATOM     37  O   UNL     1      -1.003   2.522   0.655  0.00  0.00    -0.394 OA
ATOM     38  H   UNL     1      -1.654   2.666   1.355  0.00  0.00    +0.209 HD
ENDBRANCH  36  37
ENDBRANCH   6  36
TORSDOF 7
