REMARK  Name = ZINC09814573
REMARK  7 active torsions:
REMARK  status: ('A' for Active; 'I' for Inactive)
REMARK    1  A    between atoms: C_1  and  C_2
REMARK    2  A    between atoms: C_5  and  N_12
REMARK    3  A    between atoms: C_8  and  C_10
REMARK    4  A    between atoms: C_8  and  C_11
REMARK    5  A    between atoms: C_13  and  C_15
REMARK    6  A    between atoms: C_15  and  C_16
REMARK    7  A    between atoms: C_22  and  C_24
REMARK                            x       y       z     vdW  Elec       q    Type
REMARK                         _______ _______ _______ _____ _____    ______ ____
ROOT
ATOM      1  N   UNL     1       5.268  -0.919   1.313  0.00  0.00    -0.312 N 
ATOM      2  C   UNL     1       3.998  -0.508   1.126  0.00  0.00    +0.219 C 
ATOM      3  O   UNL     1       3.125  -0.869   1.887  0.00  0.00    -0.275 OA
ATOM      4  H   UNL     1       5.965  -0.631   0.705  0.00  0.00    +0.149 HD
ENDROOT
BRANCH   1   8
ATOM      5  C   UNL     1       5.423  -5.630   2.807  0.00  0.00    +0.007 C 
ATOM      6  C   UNL     1       5.679  -4.176   3.209  0.00  0.00    -0.012 C 
ATOM      7  C   UNL     1       5.338  -3.255   2.035  0.00  0.00    +0.025 C 
ATOM      8  C   UNL     1       5.594  -1.801   2.437  0.00  0.00    +0.074 C 
ATOM      9  C   UNL     1       7.067  -1.627   2.811  0.00  0.00    +0.028 C 
ATOM     10  C   UNL     1       7.408  -2.547   3.985  0.00  0.00    -0.033 C 
ATOM     11  C   UNL     1       7.152  -4.001   3.583  0.00  0.00    +0.009 C 
ATOM     12  C   UNL     1       8.881  -2.373   4.359  0.00  0.00    +0.011 C 
ATOM     13  C   UNL     1       6.531  -2.188   5.186  0.00  0.00    +0.011 C 
ENDBRANCH   1   8
BRANCH   2  14
ATOM     14  C   UNL     1       3.662   0.398  -0.030  0.00  0.00    +0.151 C 
BRANCH  14  15
ATOM     15  C   UNL     1       2.187   0.707  -0.015  0.00  0.00    +0.059 A 
ATOM     16  C   UNL     1       1.747   1.989  -0.004  0.00  0.00    +0.072 A 
ATOM     17  S   UNL     1      -0.021   1.732   0.012  0.00  0.00    -0.060 S 
ATOM     18  C   UNL     1       0.002  -0.004   0.002  0.00  0.00    +0.165 A 
ATOM     19  N   UNL     1       1.295  -0.264  -0.012  0.00  0.00    -0.229 NA
ATOM     20  N   UNL     1      -1.067  -0.892   0.008  0.00  0.00    -0.265 N 
ATOM     21  C   UNL     1      -2.331  -0.425   0.023  0.00  0.00    +0.216 C 
ATOM     22  O   UNL     1      -2.536   0.771   0.031  0.00  0.00    -0.276 OA
ATOM     23  C   UNL     1      -3.491  -1.387   0.030  0.00  0.00    +0.109 C 
ATOM     24  H   UNL     1      -0.904  -1.848   0.002  0.00  0.00    +0.157 HD
ENDBRANCH  14  15
ENDBRANCH   2  14
TORSDOF 3
