REMARK  Name = ZINC12293135
REMARK  9 active torsions:
REMARK  status: ('A' for Active; 'I' for Inactive)
REMARK    1  A    between atoms: C_1  and  O_2
REMARK    2  A    between atoms: O_2  and  C_3
REMARK    3  A    between atoms: C_5  and  C_14
REMARK    4  A    between atoms: C_8  and  O_9
REMARK    5  A    between atoms: O_9  and  C_10
REMARK    6  A    between atoms: C_10  and  C_11
REMARK    7  A    between atoms: C_14  and  N_15
REMARK    8  A    between atoms: C_23  and  C_25
REMARK    9  A    between atoms: C_23  and  O_32
REMARK                            x       y       z     vdW  Elec       q    Type
REMARK                         _______ _______ _______ _____ _____    ______ ____
ROOT
ATOM      1  N   UNL     1       0.591  -3.678  -2.177  0.00  0.00    +0.386 N 
ATOM      2  C   UNL     1       0.771  -5.027  -1.579  0.00  0.00    -0.065 C 
ATOM      3  C   UNL     1       2.303  -5.232  -1.556  0.00  0.00    -0.017 C 
ATOM      4  C   UNL     1       2.840  -4.326  -2.683  0.00  0.00    -0.017 C 
ATOM      5  C   UNL     1       1.583  -3.656  -3.285  0.00  0.00    -0.065 C 
ATOM      6  C   UNL     1       1.046  -4.574  -4.395  0.00  0.00    +0.024 C 
ATOM      7  C   UNL     1       0.985  -6.010  -3.864  0.00  0.00    +0.091 C 
ATOM      8  C   UNL     1       0.161  -6.044  -2.557  0.00  0.00    +0.024 C 
ATOM      9  H   UNL     1      -0.439  -3.484  -2.512  0.00  0.00    -0.081 HD
ENDROOT
BRANCH   7  10
ATOM     10  C   UNL     1       2.382  -6.506  -3.597  0.00  0.00    +0.019 A 
ATOM     11  C   UNL     1       2.608  -7.432  -2.596  0.00  0.00    +0.009 A 
ATOM     12  C   UNL     1       3.889  -7.892  -2.356  0.00  0.00    +0.001 A 
ATOM     13  C   UNL     1       4.948  -7.418  -3.108  0.00  0.00    +0.003 A 
ATOM     14  C   UNL     1       4.725  -6.488  -4.106  0.00  0.00    +0.039 A 
ATOM     15  C   UNL     1       3.442  -6.031  -4.352  0.00  0.00    +0.129 A 
ATOM     16  F   UNL     1       3.223  -5.121  -5.327  0.00  0.00    -0.205 F 
ENDBRANCH   7  10
BRANCH   7  17
ATOM     17  O   UNL     1       0.359  -6.849  -4.836  0.00  0.00    -0.384 OA
ATOM     18  H   UNL     1       0.225  -7.922  -4.631  0.00  0.00    +0.211 HD
ENDBRANCH   7  17
BRANCH   1  19
ATOM     19  C   UNL     1       0.877  -2.624  -1.194  0.00  0.00    -0.042 C 
BRANCH  19  22
ATOM     20  C   UNL     1      -0.183   0.694  -2.659  0.00  0.00    +0.162 A 
ATOM     21  C   UNL     1      -0.226  -0.535  -2.019  0.00  0.00    +0.051 A 
ATOM     22  C   UNL     1       0.926  -1.288  -1.890  0.00  0.00    -0.060 A 
ATOM     23  C   UNL     1       2.123  -0.818  -2.397  0.00  0.00    +0.005 A 
ATOM     24  C   UNL     1       2.172   0.404  -3.042  0.00  0.00    +0.049 A 
ATOM     25  C   UNL     1       1.022   1.166  -3.170  0.00  0.00    +0.163 A 
BRANCH  20  27
ATOM     26  C   UNL     1      -2.516   0.887  -2.239  0.00  0.00    +0.277 C 
ATOM     27  O   UNL     1      -1.315   1.435  -2.787  0.00  0.00    -0.491 OA
ENDBRANCH  20  27
BRANCH  25  28
ATOM     28  O   UNL     1       1.070   2.371  -3.799  0.00  0.00    -0.479 OA
BRANCH  28  29
ATOM     29  C   UNL     1       2.341   2.793  -4.298  0.00  0.00    +0.324 C 
BRANCH  29  30
ATOM     30  C   UNL     1       2.200   4.140  -4.957  0.00  0.00    +0.248 C 
ATOM     31  O   UNL     1       1.117   4.686  -4.996  0.00  0.00    -0.272 OA
ATOM     32  N   UNL     1       3.276   4.739  -5.504  0.00  0.00    -0.327 N 
ATOM     33  H   UNL     1       3.173   5.723  -5.986  0.00  0.00    +0.145 HD
ATOM     34  H   UNL     1       4.258   4.244  -5.469  0.00  0.00    +0.145 HD
ENDBRANCH  29  30
ENDBRANCH  28  29
ENDBRANCH  25  28
ENDBRANCH  19  22
ENDBRANCH   1  19
TORSDOF 8
