REMARK  Name = ZINC66740785
REMARK  6 active torsions:
REMARK  status: ('A' for Active; 'I' for Inactive)
REMARK    1  A    between atoms: C_1  and  C_2
REMARK    2  A    between atoms: C_11  and  C_14
REMARK    3  A    between atoms: C_17  and  C_19
REMARK    4  A    between atoms: C_22  and  S_25
REMARK    5  A    between atoms: S_25  and  N_28
REMARK    6  A    between atoms: N_28  and  C_29
REMARK                            x       y       z     vdW  Elec       q    Type
REMARK                         _______ _______ _______ _____ _____    ______ ____
ROOT
ATOM      1  C   UNL     1      -2.052  -1.577  -3.288  0.00  0.00    +0.144 A 
ATOM      2  C   UNL     1      -2.893  -2.615  -3.466  0.00  0.00    +0.049 A 
ATOM      3  C   UNL     1      -4.203  -2.103  -3.381  0.00  0.00    +0.050 A 
ATOM      4  C   UNL     1      -4.088  -0.768  -3.153  0.00  0.00    +0.135 A 
ATOM      5  O   UNL     1      -2.778  -0.464  -3.093  0.00  0.00    -0.456 OA
ENDROOT
BRANCH   1  16
ATOM      6  C   UNL     1      -0.018   1.503   0.010  0.00  0.00    +0.067 C 
ATOM      7  C   UNL     1       0.002  -0.004   0.002  0.00  0.00    +0.055 A 
ATOM      8  C   UNL     1       0.008  -0.795  -1.075  0.00  0.00    +0.082 A 
ATOM      9  C   UNL     1       0.036  -2.138  -0.574  0.00  0.00    +0.168 A 
ATOM     10  N   UNL     1       0.036  -2.062   0.724  0.00  0.00    -0.167 NA
ATOM     11  N   UNL     1       0.024  -0.824   1.094  0.00  0.00    -0.279 N 
ATOM     12  H   UNL     1       0.027  -0.521   2.015  0.00  0.00    +0.189 HD
ATOM     13  C   UNL     1       0.065  -3.267  -1.523  0.00  0.00    +0.268 C 
ATOM     14  O   UNL     1       0.262  -4.408  -1.151  0.00  0.00    -0.268 OA
ATOM     15  N   UNL     1      -0.138  -2.973  -2.829  0.00  0.00    -0.285 N 
ATOM     16  C   UNL     1      -0.547  -1.654  -3.298  0.00  0.00    +0.226 C 
ATOM     17  N   UNL     1      -0.010  -0.572  -2.459  0.00  0.00    -0.317 N 
ATOM     18  H   UNL     1      -0.004  -3.674  -3.486  0.00  0.00    +0.151 HD
ATOM     19  H   UNL     1       0.316   0.257  -2.844  0.00  0.00    +0.148 HD
ENDBRANCH   1  16
BRANCH   4  20
ATOM     20  C   UNL     1      -5.207   0.184  -2.992  0.00  0.00    +0.017 A 
ATOM     21  C   UNL     1      -6.527  -0.266  -3.066  0.00  0.00    +0.013 A 
ATOM     22  C   UNL     1      -7.567   0.627  -2.915  0.00  0.00    +0.029 A 
ATOM     23  C   UNL     1      -7.304   1.968  -2.691  0.00  0.00    +0.105 A 
ATOM     24  C   UNL     1      -5.999   2.421  -2.618  0.00  0.00    +0.029 A 
ATOM     25  C   UNL     1      -4.950   1.536  -2.761  0.00  0.00    +0.013 A 
BRANCH  23  26
ATOM     26  S   UNL     1      -8.639   3.102  -2.500  0.00  0.00    +0.058 S 
ATOM     27  O   UNL     1      -8.134   4.385  -2.845  0.00  0.00    -0.153 OA
ATOM     28  O   UNL     1      -9.760   2.524  -3.153  0.00  0.00    -0.153 OA
BRANCH  26  29
ATOM     29  N   UNL     1      -9.007   3.157  -0.886  0.00  0.00    -0.193 NA
ATOM     30  C   UNL     1      -8.031   3.684   0.071  0.00  0.00    +0.127 C 
ATOM     31  H   UNL     1      -9.869   2.840  -0.575  0.00  0.00    +0.148 HD
ENDBRANCH  26  29
ENDBRANCH  23  26
ENDBRANCH   4  20
TORSDOF 4
