REMARK  Name = ZINC22418228
REMARK  10 active torsions:
REMARK  status: ('A' for Active; 'I' for Inactive)
REMARK    1  A    between atoms: C_1  and  C_2
REMARK    2  A    between atoms: C_5  and  C_11
REMARK    3  A    between atoms: C_7  and  N_8
REMARK    4  A    between atoms: N_13  and  C_14
REMARK    5  A    between atoms: C_14  and  C_15
REMARK    6  A    between atoms: C_15  and  C_17
REMARK    7  A    between atoms: C_15  and  N_26
REMARK    8  A    between atoms: C_20  and  N_23
REMARK    9  A    between atoms: N_23  and  C_24
REMARK   10  A    between atoms: N_23  and  C_25
REMARK                            x       y       z     vdW  Elec       q    Type
REMARK                         _______ _______ _______ _____ _____    ______ ____
ROOT
ATOM      1  C   UNL     1      -5.276   3.737   0.227  0.00  0.00    -0.020 C 
ENDROOT
BRANCH   1   2
ATOM      2  N   UNL     1      -4.876   2.898   1.365  0.00  0.00    +0.388 N 
ATOM      3  C   UNL     1      -6.054   2.342   2.050  0.00  0.00    -0.073 C 
ATOM      4  C   UNL     1      -5.592   1.211   2.969  0.00  0.00    +0.017 C 
ATOM      5  C   UNL     1      -4.449   1.683   3.831  0.00  0.00    -0.048 A 
ATOM      6  C   UNL     1      -4.122   0.946   4.958  0.00  0.00    +0.004 A 
ATOM      7  C   UNL     1      -3.076   1.338   5.770  0.00  0.00    +0.000 A 
ATOM      8  C   UNL     1      -2.352   2.473   5.457  0.00  0.00    +0.000 A 
ATOM      9  C   UNL     1      -2.678   3.209   4.336  0.00  0.00    +0.002 A 
ATOM     10  C   UNL     1      -3.729   2.817   3.520  0.00  0.00    -0.061 A 
ATOM     11  C   UNL     1      -4.049   3.655   2.310  0.00  0.00    -0.042 C 
ATOM     12  H   UNL     1      -4.274   2.066   0.971  0.00  0.00    -0.080 HD
ENDBRANCH   1   2
BRANCH   1  13
ATOM     13  C   UNL     1      -6.565   4.446   0.554  0.00  0.00    -0.059 A 
ATOM     14  C   UNL     1      -6.767   4.960   1.821  0.00  0.00    +0.004 A 
ATOM     15  C   UNL     1      -7.945   5.615   2.122  0.00  0.00    +0.023 A 
ATOM     16  C   UNL     1      -8.932   5.747   1.153  0.00  0.00    +0.029 A 
ATOM     17  C   UNL     1      -8.727   5.225  -0.117  0.00  0.00    +0.023 A 
ATOM     18  C   UNL     1      -7.545   4.576  -0.413  0.00  0.00    +0.004 A 
BRANCH  16  19
ATOM     19  N   UNL     1     -10.127   6.404   1.456  0.00  0.00    -0.336 N 
ATOM     20  C   UNL     1     -11.216   6.431   0.477  0.00  0.00    +0.129 C 
ATOM     21  C   UNL     1     -10.290   7.066   2.753  0.00  0.00    +0.129 C 
ENDBRANCH  16  19
ENDBRANCH   1  13
BRANCH   1  22
ATOM     22  C   UNL     1      -4.183   4.770  -0.054  0.00  0.00    +0.094 C 
BRANCH  22  25
ATOM     23  C   UNL     1      -1.791   4.798  -0.518  0.00  0.00    +0.244 C 
ATOM     24  O   UNL     1      -1.849   6.010  -0.590  0.00  0.00    -0.270 OA
ATOM     25  N   UNL     1      -2.903   4.085  -0.255  0.00  0.00    -0.313 N 
ATOM     26  H   UNL     1      -2.850   2.988  -0.190  0.00  0.00    +0.149 HD
BRANCH  23  31
ATOM     27  C   UNL     1       3.235   2.108  -1.305  0.00  0.00    +0.046 C 
ATOM     28  C   UNL     1       1.919   2.812  -1.099  0.00  0.00    -0.020 A 
ATOM     29  C   UNL     1       0.778   2.076  -0.828  0.00  0.00    +0.006 A 
ATOM     30  C   UNL     1      -0.430   2.715  -0.644  0.00  0.00    +0.013 A 
ATOM     31  C   UNL     1      -0.499   4.107  -0.720  0.00  0.00    +0.039 A 
ATOM     32  C   UNL     1       0.654   4.843  -0.993  0.00  0.00    +0.046 A 
ATOM     33  C   UNL     1       1.856   4.192  -1.180  0.00  0.00    +0.130 A 
BRANCH  33  34
ATOM     34  N   UNL     1       3.081   4.971  -1.469  0.00  0.00    +0.057 N 
ATOM     35  O   UNL     1       3.061   6.186  -1.395  0.00  0.00    -0.126 OA
ATOM     36  O   UNL     1       4.109   4.396  -1.782  0.00  0.00    -0.126 OA
ENDBRANCH  33  34
ENDBRANCH  23  31
ENDBRANCH  22  25
ENDBRANCH   1  22
TORSDOF 7
