REMARK  Name = ZINC35017355
REMARK  7 active torsions:
REMARK  status: ('A' for Active; 'I' for Inactive)
REMARK    1  A    between atoms: C_1  and  C_2
REMARK    2  A    between atoms: C_2  and  C_3
REMARK    3  A    between atoms: C_2  and  C_4
REMARK    4  A    between atoms: C_4  and  C_6
REMARK    5  A    between atoms: C_4  and  N_11
REMARK    6  A    between atoms: N_11  and  C_12
REMARK    7  A    between atoms: C_12  and  C_13
REMARK                            x       y       z     vdW  Elec       q    Type
REMARK                         _______ _______ _______ _____ _____    ______ ____
ROOT
ATOM      1  N   UNL     1      -1.915  -0.251   1.125  0.00  0.00    +0.387 N 
ATOM      2  H   UNL     1      -2.059   0.747   1.182  0.00  0.00    -0.085 HD
ATOM      3  H   UNL     1      -2.806  -0.722   1.169  0.00  0.00    -0.085 HD
ENDROOT
BRANCH   1   4
ATOM      4  C   UNL     1      -1.250  -0.578  -0.144  0.00  0.00    -0.031 C 
BRANCH   4   5
ATOM      5  C   UNL     1      -1.159  -2.075  -0.292  0.00  0.00    -0.024 A 
ATOM      6  C   UNL     1      -0.135  -2.824  -0.768  0.00  0.00    +0.009 A 
ATOM      7  C   UNL     1      -0.274  -4.199  -0.811  0.00  0.00    +0.008 A 
ATOM      8  C   UNL     1      -1.431  -4.756  -0.376  0.00  0.00    +0.045 A 
ATOM      9  S   UNL     1      -2.368  -3.321   0.123  0.00  0.00    -0.103 S 
ENDBRANCH   4   5
BRANCH   4  11
ATOM     10  C   UNL     1      -2.109   1.526  -1.184  0.00  0.00    +0.006 C 
ATOM     11  C   UNL     1      -2.058   0.001  -1.307  0.00  0.00    -0.027 C 
ATOM     12  C   UNL     1      -1.393  -0.382  -2.631  0.00  0.00    +0.006 C 
ENDBRANCH   4  11
ENDBRANCH   1   4
BRANCH   1  13
ATOM     13  C   UNL     1      -1.073  -0.689   2.246  0.00  0.00    -0.046 C 
BRANCH  13  14
ATOM     14  C   UNL     1      -1.688  -0.233   3.544  0.00  0.00    -0.060 A 
ATOM     15  C   UNL     1      -1.355   1.001   4.070  0.00  0.00    +0.051 A 
ATOM     16  C   UNL     1      -1.919   1.422   5.263  0.00  0.00    +0.168 A 
ATOM     17  C   UNL     1      -2.822   0.599   5.931  0.00  0.00    +0.180 A 
ATOM     18  C   UNL     1      -3.152  -0.637   5.398  0.00  0.00    +0.063 A 
ATOM     19  C   UNL     1      -2.589  -1.048   4.203  0.00  0.00    +0.021 A 
ATOM     20 BR   UNL     1      -4.378  -1.758   6.301  0.00  0.00    -0.046 Br
ATOM     21  O   UNL     1      -3.232   1.233   7.069  0.00  0.00    -0.451 OA
ATOM     22  C   UNL     1      -2.263   2.273   7.299  0.00  0.00    +0.466 C 
ATOM     23  O   UNL     1      -1.762   2.572   5.982  0.00  0.00    -0.453 OA
ENDBRANCH  13  14
ENDBRANCH   1  13
TORSDOF 5
