REMARK  Name = ZINC50370398
REMARK  4 active torsions:
REMARK  status: ('A' for Active; 'I' for Inactive)
REMARK    1  A    between atoms: C_4  and  C_7
REMARK    2  A    between atoms: C_8  and  C_21
REMARK    3  A    between atoms: N_11  and  C_12
REMARK    4  A    between atoms: N_17  and  C_18
REMARK                            x       y       z     vdW  Elec       q    Type
REMARK                         _______ _______ _______ _____ _____    ______ ____
ROOT
ATOM      1  C   UNL     1       3.711  -0.707  -0.038  0.00  0.00    +0.174 C 
ATOM      2  C   UNL     1       4.255  -0.942  -1.469  0.00  0.00    +0.198 C 
ATOM      3  N   UNL     1       5.572  -0.291  -1.455  0.00  0.00    -0.220 NA
ATOM      4  C   UNL     1       5.803   0.226  -0.294  0.00  0.00    +0.193 C 
ATOM      5  N   UNL     1       6.968   0.901   0.006  0.00  0.00    -0.225 N 
ATOM      6  N   UNL     1       4.795   0.047   0.612  0.00  0.00    -0.288 N 
ATOM      7  N   UNL     1       4.423  -2.398  -1.555  0.00  0.00    -0.285 N 
ATOM      8  C   UNL     1       4.050  -2.962  -0.378  0.00  0.00    +0.195 C 
ATOM      9  N   UNL     1       4.091  -4.263  -0.149  0.00  0.00    -0.143 NA
ATOM     10  N   UNL     1       3.620  -2.049   0.553  0.00  0.00    -0.288 N 
ATOM     11  H   UNL     1       4.794   0.364   1.529  0.00  0.00    +0.151 HD
ATOM     12  H   UNL     1       4.748  -2.881  -2.331  0.00  0.00    +0.151 HD
ATOM     13  H   UNL     1       3.318  -2.246   1.454  0.00  0.00    +0.151 HD
ATOM     14  H   UNL     1       7.098   1.273   0.892  0.00  0.00    +0.167 HD
ENDROOT
BRANCH   1  18
ATOM     15  C   UNL     1      -0.017   1.378   0.010  0.00  0.00    +0.000 A 
ATOM     16  C   UNL     1       1.171   2.086   0.002  0.00  0.00    +0.000 A 
ATOM     17  C   UNL     1       2.377   1.411  -0.013  0.00  0.00    +0.007 A 
ATOM     18  C   UNL     1       2.396   0.029  -0.020  0.00  0.00    -0.002 A 
ATOM     19  C   UNL     1       1.208  -0.679  -0.012  0.00  0.00    +0.007 A 
ATOM     20  C   UNL     1       0.002  -0.004   0.002  0.00  0.00    +0.000 A 
ENDBRANCH   1  18
BRANCH   2  21
ATOM     21  C   UNL     1       3.347  -0.387  -2.537  0.00  0.00    +0.002 A 
ATOM     22  C   UNL     1       2.347  -1.177  -3.072  0.00  0.00    +0.008 A 
ATOM     23  C   UNL     1       1.514  -0.669  -4.051  0.00  0.00    +0.000 A 
ATOM     24  C   UNL     1       1.681   0.629  -4.495  0.00  0.00    +0.000 A 
ATOM     25  C   UNL     1       2.681   1.419  -3.959  0.00  0.00    +0.000 A 
ATOM     26  C   UNL     1       3.511   0.913  -2.977  0.00  0.00    +0.008 A 
ENDBRANCH   2  21
BRANCH   5  27
ATOM     27  C   UNL     1       7.930   1.044  -0.937  0.00  0.00    +0.173 C 
ATOM     28  N   UNL     1       8.737   1.164  -1.728  0.00  0.00    -0.174 NA
ENDBRANCH   5  27
BRANCH   9  29
ATOM     29  C   UNL     1       3.703  -4.752   1.054  0.00  0.00    +0.208 C 
ATOM     30  N   UNL     1       3.377  -5.162   2.062  0.00  0.00    -0.169 NA
ENDBRANCH   9  29
TORSDOF 4
