REMARK  Name = ZINC63498873
REMARK  3 active torsions:
REMARK  status: ('A' for Active; 'I' for Inactive)
REMARK    1  A    between atoms: C_4  and  N_21
REMARK    2  A    between atoms: C_5  and  C_7
REMARK    3  A    between atoms: C_8  and  C_9
REMARK                            x       y       z     vdW  Elec       q    Type
REMARK                         _______ _______ _______ _____ _____    ______ ____
ROOT
ATOM      1  C   UNL     1       0.101  -4.330  -0.352  0.00  0.00    +0.182 C 
ATOM      2  N   UNL     1      -0.689  -4.875   0.759  0.00  0.00    -0.322 N 
ATOM      3  C   UNL     1      -2.076  -4.824   0.676  0.00  0.00    +0.041 A 
ATOM      4  C   UNL     1      -2.874  -4.726   1.803  0.00  0.00    +0.025 A 
ATOM      5  C   UNL     1      -4.248  -4.675   1.666  0.00  0.00    +0.022 A 
ATOM      6  C   UNL     1      -4.833  -4.720   0.409  0.00  0.00    +0.042 A 
ATOM      7  C   UNL     1      -4.051  -4.818  -0.725  0.00  0.00    +0.035 A 
ATOM      8  C   UNL     1      -2.665  -4.872  -0.600  0.00  0.00    +0.059 A 
ATOM      9  C   UNL     1      -1.784  -4.986  -1.776  0.00  0.00    +0.247 C 
ATOM     10  O   UNL     1      -2.244  -5.279  -2.863  0.00  0.00    -0.270 OA
ATOM     11  N   UNL     1      -0.461  -4.761  -1.633  0.00  0.00    -0.290 N 
ATOM     12 CL   UNL     1      -6.561  -4.652   0.260  0.00  0.00    -0.084 Cl
ATOM     13  H   UNL     1      -0.252  -5.263   1.534  0.00  0.00    +0.148 HD
ATOM     14  H   UNL     1       0.128  -4.888  -2.393  0.00  0.00    +0.151 HD
ENDROOT
BRANCH   1  16
ATOM     15  C   UNL     1       1.222  -2.158  -0.137  0.00  0.00    +0.009 C 
ATOM     16  C   UNL     1       0.086  -2.825  -0.283  0.00  0.00    +0.015 C 
BRANCH  15  21
ATOM     17  C   UNL     1       0.073   1.407  -0.414  0.00  0.00    +0.001 A 
ATOM     18  C   UNL     1       1.184   2.085   0.057  0.00  0.00    +0.002 A 
ATOM     19  C   UNL     1       2.306   1.387   0.465  0.00  0.00    +0.033 A 
ATOM     20  C   UNL     1       2.325   0.009   0.405  0.00  0.00    +0.133 A 
ATOM     21  C   UNL     1       1.209  -0.681  -0.069  0.00  0.00    +0.005 A 
ATOM     22  C   UNL     1       0.079   0.029  -0.479  0.00  0.00    +0.010 A 
BRANCH  20  23
ATOM     23  N   UNL     1       3.527  -0.736   0.842  0.00  0.00    +0.057 N 
ATOM     24  O   UNL     1       3.407  -1.784   1.431  0.00  0.00    -0.126 OA
ATOM     25  O   UNL     1       4.629  -0.296   0.608  0.00  0.00    -0.126 OA
ENDBRANCH  20  23
ENDBRANCH  15  21
ENDBRANCH   1  16
TORSDOF 3
