REMARK  Name = ZINC12208164
REMARK  11 active torsions:
REMARK  status: ('A' for Active; 'I' for Inactive)
REMARK    1  A    between atoms: C_1  and  C_2
REMARK    2  A    between atoms: C_3  and  S_8
REMARK    3  A    between atoms: C_4  and  C_7
REMARK    4  A    between atoms: S_8  and  N_11
REMARK    5  A    between atoms: C_14  and  O_17
REMARK    6  A    between atoms: O_17  and  C_18
REMARK    7  A    between atoms: C_21  and  C_24
REMARK    8  A    between atoms: C_24  and  N_67
REMARK    9  A    between atoms: C_25  and  N_67
REMARK   10  A    between atoms: C_26  and  C_27
REMARK   11  A    between atoms: C_26  and  N_67
REMARK                            x       y       z     vdW  Elec       q    Type
REMARK                         _______ _______ _______ _____ _____    ______ ____
ROOT
ATOM      1  C   UNL     1      -8.463   3.067  -5.376  0.00  0.00    +0.121 A 
ATOM      2  C   UNL     1      -8.115   1.933  -4.656  0.00  0.00    +0.046 A 
ATOM      3  C   UNL     1      -7.674   2.052  -3.353  0.00  0.00    +0.005 A 
ATOM      4  C   UNL     1      -7.579   3.300  -2.765  0.00  0.00    -0.064 A 
ATOM      5  C   UNL     1      -7.930   4.431  -3.478  0.00  0.00    +0.005 A 
ATOM      6  C   UNL     1      -8.367   4.318  -4.784  0.00  0.00    +0.046 A 
ENDROOT
BRANCH   1   7
ATOM      7  O   UNL     1      -8.897   2.952  -6.659  0.00  0.00    -0.489 OA
BRANCH   7  11
ATOM      8  N   UNL     1      -9.037  -0.344  -9.190  0.00  0.00    -0.176 NA
ATOM      9  C   UNL     1     -10.335   0.233  -8.815  0.00  0.00    +0.113 C 
ATOM     10  C   UNL     1     -10.111   1.657  -8.299  0.00  0.00    +0.061 C 
ATOM     11  C   UNL     1      -9.085   1.629  -7.164  0.00  0.00    +0.176 C 
ATOM     12  C   UNL     1      -7.753   1.091  -7.692  0.00  0.00    +0.061 C 
ATOM     13  C   UNL     1      -7.950  -0.340  -8.202  0.00  0.00    +0.113 C 
BRANCH   8  14
ATOM     14  S   UNL     1      -8.803  -0.988 -10.698  0.00  0.00    +0.066 S 
ATOM     15  O   UNL     1      -7.736  -1.919 -10.582  0.00  0.00    -0.153 OA
ATOM     16  O   UNL     1     -10.086  -1.355 -11.186  0.00  0.00    -0.153 OA
BRANCH  14  19
ATOM     17  C   UNL     1     -10.490   1.237 -12.650  0.00  0.00    +0.071 C 
ATOM     18  C   UNL     1      -8.989   1.205 -12.524  0.00  0.00    +0.107 A 
ATOM     19  C   UNL     1      -8.224   0.314 -11.736  0.00  0.00    +0.170 A 
ATOM     20  C   UNL     1      -6.943   0.688 -11.968  0.00  0.00    +0.161 A 
ATOM     21  O   UNL     1      -6.998   1.720 -12.822  0.00  0.00    -0.358 OA
ATOM     22  N   UNL     1      -8.139   1.993 -13.116  0.00  0.00    -0.081 NA
ATOM     23  C   UNL     1      -5.702   0.068 -11.382  0.00  0.00    +0.091 C 
ENDBRANCH  14  19
ENDBRANCH   8  14
ENDBRANCH   7  11
ENDBRANCH   1   7
BRANCH   4  24
ATOM     24  C   UNL     1      -7.097   3.427  -1.343  0.00  0.00    -0.043 C 
BRANCH  24  26
ATOM     25  C   UNL     1      -5.237   4.853  -1.952  0.00  0.00    -0.095 C 
ATOM     26  N   UNL     1      -5.625   3.560  -1.348  0.00  0.00    +0.384 N 
ATOM     27  H   UNL     1      -5.223   2.798  -1.906  0.00  0.00    -0.081 HD
BRANCH  26  28
ATOM     28  C   UNL     1      -5.104   3.471   0.032  0.00  0.00    -0.036 C 
BRANCH  28  29
ATOM     29  C   UNL     1      -3.600   3.388  -0.019  0.00  0.00    -0.026 A 
ATOM     30  C   UNL     1      -2.712   4.392   0.014  0.00  0.00    +0.017 A 
ATOM     31  C   UNL     1      -1.290   4.088  -0.049  0.00  0.00    -0.011 A 
ATOM     32  C   UNL     1      -0.192   4.980  -0.028  0.00  0.00    +0.009 A 
ATOM     33  C   UNL     1       1.083   4.513  -0.096  0.00  0.00    +0.001 A 
ATOM     34  C   UNL     1       1.356   3.155  -0.186  0.00  0.00    +0.001 A 
ATOM     35  C   UNL     1       0.311   2.252  -0.208  0.00  0.00    +0.015 A 
ATOM     36  C   UNL     1      -0.986   2.712  -0.146  0.00  0.00    +0.020 A 
ATOM     37  S   UNL     1      -2.579   1.932  -0.139  0.00  0.00    -0.095 S 
ENDBRANCH  28  29
ENDBRANCH  26  28
ENDBRANCH  24  26
ENDBRANCH   4  24
TORSDOF 8
