REMARK  Name = ZINC39237468
REMARK  9 active torsions:
REMARK  status: ('A' for Active; 'I' for Inactive)
REMARK    1  A    between atoms: C_1  and  C_2
REMARK    2  A    between atoms: C_4  and  C_32
REMARK    3  A    between atoms: C_5  and  C_17
REMARK    4  A    between atoms: C_7  and  C_8
REMARK    5  A    between atoms: C_8  and  O_9
REMARK    6  A    between atoms: O_9  and  C_10
REMARK    7  A    between atoms: C_19  and  C_30
REMARK    8  A    between atoms: C_20  and  N_29
REMARK    9  A    between atoms: C_25  and  C_28
REMARK                            x       y       z     vdW  Elec       q    Type
REMARK                         _______ _______ _______ _____ _____    ______ ____
ROOT
ATOM      1  C   UNL     1      -0.018   1.503   0.010  0.00  0.00    +0.044 C 
ATOM      2  C   UNL     1       0.002  -0.004   0.002  0.00  0.00    -0.044 A 
ATOM      3  C   UNL     1       0.006  -0.689  -1.199  0.00  0.00    +0.007 A 
ATOM      4  C   UNL     1       0.025  -2.071  -1.207  0.00  0.00    -0.046 A 
ATOM      5  C   UNL     1       0.040  -2.768  -0.013  0.00  0.00    -0.032 A 
ATOM      6  C   UNL     1       0.037  -2.084   1.188  0.00  0.00    +0.012 A 
ATOM      7  C   UNL     1       0.023  -0.702   1.195  0.00  0.00    -0.007 A 
ATOM      8  C   UNL     1       0.027  -2.817  -2.516  0.00  0.00    +0.044 C 
ENDROOT
BRANCH   5   9
ATOM      9  C   UNL     1       0.059  -4.275  -0.021  0.00  0.00    +0.098 C 
ATOM     10  C   UNL     1      -1.138  -4.820   0.735  0.00  0.00    +0.097 C 
ATOM     11  C   UNL     1      -1.003  -5.437   1.928  0.00  0.00    +0.195 C 
ATOM     12  O   UNL     1       0.147  -5.676   2.584  0.00  0.00    -0.448 OA
ATOM     13  C   UNL     1       1.276  -4.866   2.246  0.00  0.00    +0.343 C 
ATOM     14  C   UNL     1       1.268  -4.784   0.715  0.00  0.00    +0.030 C 
ATOM     15  C   UNL     1       2.440  -5.236   0.341  0.00  0.00    +0.066 C 
ATOM     16  N   UNL     1       3.137  -5.684   1.416  0.00  0.00    -0.155 NA
ATOM     17  N   UNL     1       2.550  -5.535   2.521  0.00  0.00    -0.138 NA
ATOM     18  C   UNL     1       2.941  -5.256  -1.080  0.00  0.00    +0.067 C 
BRANCH  11  19
ATOM     19  N   UNL     1      -2.158  -5.865   2.534  0.00  0.00    -0.329 N 
ATOM     20  H   UNL     1      -3.015  -5.718   2.103  0.00  0.00    +0.145 HD
ATOM     21  H   UNL     1      -2.117  -6.315   3.392  0.00  0.00    +0.145 HD
ENDBRANCH  11  19
BRANCH  10  22
ATOM     22  C   UNL     1      -2.446  -4.675   0.169  0.00  0.00    +0.101 C 
ATOM     23  N   UNL     1      -3.483  -4.560  -0.280  0.00  0.00    -0.191 NA
ENDBRANCH  10  22
ENDBRANCH   5   9
BRANCH   7  24
ATOM     24  C   UNL     1       0.025   0.045   2.504  0.00  0.00    +0.264 C 
BRANCH  24  25
ATOM     25  O   UNL     1       0.048  -0.889   3.585  0.00  0.00    -0.486 OA
BRANCH  25  26
ATOM     26  C   UNL     1       0.053  -0.377   4.844  0.00  0.00    +0.135 A 
ATOM     27  C   UNL     1       0.031   0.997   5.035  0.00  0.00    +0.047 A 
ATOM     28  C   UNL     1       0.036   1.516   6.315  0.00  0.00    +0.004 A 
ATOM     29  C   UNL     1       0.064   0.667   7.407  0.00  0.00    +0.001 A 
ATOM     30  C   UNL     1       0.086  -0.702   7.220  0.00  0.00    +0.019 A 
ATOM     31  C   UNL     1       0.075  -1.227   5.941  0.00  0.00    +0.059 A 
ATOM     32 BR   UNL     1       0.098  -3.100   5.686  0.00  0.00    -0.047 Br
ENDBRANCH  25  26
ENDBRANCH  24  25
ENDBRANCH   7  24
TORSDOF 6
