REMARK  Name = ZINC12701677
REMARK  5 active torsions:
REMARK  status: ('A' for Active; 'I' for Inactive)
REMARK    1  A    between atoms: C_11  and  C_23
REMARK    2  A    between atoms: C_15  and  C_16
REMARK    3  A    between atoms: C_15  and  N_49
REMARK    4  A    between atoms: C_19  and  C_21
REMARK    5  A    between atoms: C_21  and  O_22
REMARK                            x       y       z     vdW  Elec       q    Type
REMARK                         _______ _______ _______ _____ _____    ______ ____
ROOT
ATOM      1  C   UNL     1       0.584   4.085   0.018  0.00  0.00    +0.001 A 
ATOM      2  C   UNL     1      -0.738   3.659   0.028  0.00  0.00    +0.002 A 
ATOM      3  C   UNL     1      -1.041   2.315   0.019  0.00  0.00    +0.026 A 
ATOM      4  C   UNL     1      -0.017   1.374   0.010  0.00  0.00    +0.047 A 
ATOM      5  C   UNL     1       1.323   1.812  -0.001  0.00  0.00    +0.003 A 
ATOM      6  C   UNL     1       1.605   3.179   0.004  0.00  0.00    +0.010 A 
ATOM      7  C   UNL     1       2.134   0.601  -0.016  0.00  0.00    -0.022 A 
ATOM      8  C   UNL     1       1.291  -0.451  -0.013  0.00  0.00    +0.011 A 
ATOM      9  N   UNL     1       0.002  -0.004   0.002  0.00  0.00    -0.359 N 
ATOM     10  H   UNL     1      -0.784  -0.572   0.007  0.00  0.00    +0.166 HD
ATOM     11  C   UNL     1       1.767  -1.885  -0.024  0.00  0.00    +0.011 C 
ATOM     12  C   UNL     1       3.980  -0.968  -0.441  0.00  0.00    -0.072 C 
ATOM     13  C   UNL     1       3.636   0.472  -0.034  0.00  0.00    +0.019 C 
ATOM     14  N   UNL     1       3.189  -1.899   0.396  0.00  0.00    +0.393 N 
ATOM     15  H   UNL     1       3.249  -1.598   1.376  0.00  0.00    -0.080 HD
ENDROOT
BRANCH  11  16
ATOM     16  C   UNL     1       0.960  -2.695   0.958  0.00  0.00    -0.054 A 
ATOM     17  C   UNL     1      -0.080  -3.489   0.510  0.00  0.00    +0.002 A 
ATOM     18  C   UNL     1      -0.821  -4.232   1.410  0.00  0.00    +0.002 A 
ATOM     19  C   UNL     1      -0.522  -4.182   2.758  0.00  0.00    +0.020 A 
ATOM     20  C   UNL     1       0.518  -3.388   3.208  0.00  0.00    +0.041 A 
ATOM     21  C   UNL     1       1.262  -2.649   2.306  0.00  0.00    +0.022 A 
ATOM     22 CL   UNL     1       0.893  -3.326   4.901  0.00  0.00    -0.084 Cl
ENDBRANCH  11  16
BRANCH  14  23
ATOM     23  C   UNL     1       3.735  -3.267   0.281  0.00  0.00    -0.002 C 
BRANCH  23  24
ATOM     24  C   UNL     1       3.582  -3.784  -1.126  0.00  0.00    +0.089 A 
ATOM     25  C   UNL     1       4.479  -3.644  -2.117  0.00  0.00    +0.043 A 
ATOM     26  C   UNL     1       3.932  -4.276  -3.258  0.00  0.00    +0.047 A 
ATOM     27  C   UNL     1       2.732  -4.764  -2.894  0.00  0.00    +0.130 A 
ATOM     28  O   UNL     1       2.528  -4.469  -1.600  0.00  0.00    -0.464 OA
BRANCH  27  29
ATOM     29  C   UNL     1       1.782  -5.520  -3.787  0.00  0.00    +0.230 C 
BRANCH  29  30
ATOM     30  O   UNL     1       2.063  -6.919  -3.706  0.00  0.00    -0.387 OA
ATOM     31  H   UNL     1       1.488  -7.468  -4.256  0.00  0.00    +0.210 HD
ENDBRANCH  29  30
ENDBRANCH  27  29
ENDBRANCH  23  24
ENDBRANCH  14  23
TORSDOF 5
