REMARK  Name = ZINC15759719
REMARK  10 active torsions:
REMARK  status: ('A' for Active; 'I' for Inactive)
REMARK    1  A    between atoms: C_1  and  C_2
REMARK    2  A    between atoms: C_2  and  O_3
REMARK    3  A    between atoms: O_3  and  C_4
REMARK    4  A    between atoms: C_4  and  C_6
REMARK    5  A    between atoms: C_9  and  S_12
REMARK    6  A    between atoms: S_12  and  N_15
REMARK    7  A    between atoms: C_21  and  C_23
REMARK    8  A    between atoms: C_24  and  C_30
REMARK    9  A    between atoms: C_25  and  C_29
REMARK   10  A    between atoms: C_27  and  C_28
REMARK                            x       y       z     vdW  Elec       q    Type
REMARK                         _______ _______ _______ _____ _____    ______ ____
ROOT
ATOM      1  N   UNL     1      -0.897   1.885  -1.312  0.00  0.00    -0.174 NA
ATOM      2  C   UNL     1      -1.885   0.978  -1.913  0.00  0.00    +0.128 C 
ATOM      3  C   UNL     1      -3.242   1.700  -1.960  0.00  0.00    +0.125 C 
ATOM      4  N   UNL     1      -3.046   3.028  -2.557  0.00  0.00    -0.295 N 
ATOM      5  C   UNL     1      -2.054   3.934  -1.959  0.00  0.00    +0.125 C 
ATOM      6  C   UNL     1      -0.701   3.214  -1.909  0.00  0.00    +0.128 C 
ATOM      7  C   UNL     1      -3.761   3.409  -3.634  0.00  0.00    +0.250 C 
ATOM      8  O   UNL     1      -3.590   4.511  -4.119  0.00  0.00    -0.270 OA
ENDROOT
BRANCH   7   9
ATOM      9  C   UNL     1      -4.752   2.491  -4.223  0.00  0.00    +0.081 A 
ATOM     10  C   UNL     1      -6.174   2.372  -3.869  0.00  0.00    +0.003 A 
ATOM     11  C   UNL     1      -6.674   1.415  -4.665  0.00  0.00    +0.106 A 
ATOM     12  O   UNL     1      -5.694   0.942  -5.452  0.00  0.00    -0.464 OA
ATOM     13  C   UNL     1      -4.540   1.569  -5.206  0.00  0.00    +0.115 A 
ATOM     14  C   UNL     1      -3.227   1.303  -5.896  0.00  0.00    +0.087 C 
ATOM     15  C   UNL     1      -8.104   0.941  -4.671  0.00  0.00    +0.086 C 
ATOM     16  C   UNL     1      -6.920   3.167  -2.828  0.00  0.00    +0.048 C 
ENDBRANCH   7   9
BRANCH   1  17
ATOM     17  S   UNL     1      -0.017   1.417   0.010  0.00  0.00    +0.061 S 
ATOM     18  O   UNL     1       0.002  -0.004   0.002  0.00  0.00    -0.153 OA
ATOM     19  O   UNL     1       1.172   2.195   0.003  0.00  0.00    -0.153 OA
BRANCH  17  23
ATOM     20  C   UNL     1      -2.356   2.660   3.687  0.00  0.00    +0.059 A 
ATOM     21  C   UNL     1      -2.561   1.401   3.117  0.00  0.00    +0.017 A 
ATOM     22  C   UNL     1      -1.846   1.030   1.998  0.00  0.00    +0.029 A 
ATOM     23  C   UNL     1      -0.927   1.900   1.439  0.00  0.00    +0.106 A 
ATOM     24  C   UNL     1      -0.714   3.147   2.002  0.00  0.00    +0.029 A 
ATOM     25  C   UNL     1      -1.427   3.533   3.118  0.00  0.00    +0.017 A 
BRANCH  20  26
ATOM     26  C   UNL     1      -3.118   3.065   4.885  0.00  0.00    +0.339 C 
ATOM     27  O   UNL     1      -3.926   2.303   5.378  0.00  0.00    -0.245 OA
BRANCH  26  28
ATOM     28  O   UNL     1      -2.918   4.280   5.432  0.00  0.00    -0.461 OA
BRANCH  28  30
ATOM     29  C   UNL     1      -3.339   6.019   7.084  0.00  0.00    +0.048 C 
ATOM     30  C   UNL     1      -3.702   4.610   6.609  0.00  0.00    +0.229 C 
ENDBRANCH  28  30
ENDBRANCH  26  28
ENDBRANCH  20  26
ENDBRANCH  17  23
ENDBRANCH   1  17
TORSDOF 6
