REMARK  Name = ZINC15217869
REMARK  11 active torsions:
REMARK  status: ('A' for Active; 'I' for Inactive)
REMARK    1  A    between atoms: C_1  and  C_2
REMARK    2  A    between atoms: C_2  and  C_3
REMARK    3  A    between atoms: C_2  and  N_4
REMARK    4  A    between atoms: C_5  and  N_9
REMARK    5  A    between atoms: C_10  and  C_12
REMARK    6  A    between atoms: C_12  and  O_13
REMARK    7  A    between atoms: O_13  and  C_14
REMARK    8  A    between atoms: C_14  and  C_16
REMARK    9  A    between atoms: C_17  and  C_18
REMARK   10  A    between atoms: N_20  and  C_32
REMARK   11  A    between atoms: C_22  and  C_23
REMARK                            x       y       z     vdW  Elec       q    Type
REMARK                         _______ _______ _______ _____ _____    ______ ____
ROOT
ATOM      1  C   UNL     1      -3.121  -6.579  -8.847  0.00  0.00    +0.024 A 
ATOM      2  C   UNL     1      -4.438  -6.896  -8.571  0.00  0.00    +0.123 A 
ATOM      3  N   UNL     1      -4.892  -7.677  -9.568  0.00  0.00    -0.239 N 
ATOM      4  N   UNL     1      -3.877  -7.880 -10.508  0.00  0.00    -0.163 NA
ATOM      5  C   UNL     1      -2.796  -7.235 -10.121  0.00  0.00    +0.135 A 
ENDROOT
BRANCH   5   6
ATOM      6  C   UNL     1      -1.503  -7.185 -10.830  0.00  0.00    +0.157 A 
ATOM      7  C   UNL     1      -0.969  -8.202 -11.550  0.00  0.00    +0.060 A 
ATOM      8  C   UNL     1       0.308  -7.706 -12.067  0.00  0.00    +0.021 A 
ATOM      9  C   UNL     1       1.316  -8.255 -12.861  0.00  0.00    +0.011 A 
ATOM     10  C   UNL     1       2.416  -7.507 -13.174  0.00  0.00    +0.001 A 
ATOM     11  C   UNL     1       2.537  -6.206 -12.706  0.00  0.00    +0.004 A 
ATOM     12  C   UNL     1       1.552  -5.646 -11.920  0.00  0.00    +0.047 A 
ATOM     13  C   UNL     1       0.425  -6.388 -11.591  0.00  0.00    +0.136 A 
ATOM     14  O   UNL     1      -0.679  -6.119 -10.864  0.00  0.00    -0.453 OA
ENDBRANCH   5   6
BRANCH   3  15
ATOM     15  C   UNL     1      -6.186  -8.207  -9.652  0.00  0.00    +0.065 A 
ATOM     16  C   UNL     1      -7.115  -7.933  -8.658  0.00  0.00    +0.028 A 
ATOM     17  C   UNL     1      -8.390  -8.457  -8.743  0.00  0.00    +0.002 A 
ATOM     18  C   UNL     1      -8.741  -9.255  -9.817  0.00  0.00    +0.000 A 
ATOM     19  C   UNL     1      -7.817  -9.530 -10.809  0.00  0.00    +0.002 A 
ATOM     20  C   UNL     1      -6.543  -9.004 -10.732  0.00  0.00    +0.028 A 
ENDBRANCH   3  15
BRANCH   1  22
ATOM     21  C   UNL     1      -2.674  -5.207  -6.876  0.00  0.00    +0.092 C 
ATOM     22  C   UNL     1      -2.228  -5.747  -8.034  0.00  0.00    +0.018 C 
BRANCH  21  23
ATOM     23  C   UNL     1      -1.812  -4.405  -6.091  0.00  0.00    +0.332 C 
ATOM     24  O   UNL     1      -0.670  -4.201  -6.458  0.00  0.00    -0.246 OA
BRANCH  23  25
ATOM     25  O   UNL     1      -2.257  -3.866  -4.937  0.00  0.00    -0.452 OA
BRANCH  25  26
ATOM     26  C   UNL     1      -1.333  -3.067  -4.195  0.00  0.00    +0.328 C 
BRANCH  26  28
ATOM     27  N   UNL     1      -1.318  -1.773  -2.087  0.00  0.00    -0.268 N 
ATOM     28  C   UNL     1      -2.002  -2.554  -2.946  0.00  0.00    +0.256 C 
ATOM     29  O   UNL     1      -3.157  -2.845  -2.713  0.00  0.00    -0.272 OA
ATOM     30  H   UNL     1      -0.395  -1.541  -2.273  0.00  0.00    +0.156 HD
BRANCH  27  32
ATOM     31  N   UNL     1      -1.372  -0.511   0.012  0.00  0.00    -0.248 N 
ATOM     32  C   UNL     1      -1.937  -1.299  -0.931  0.00  0.00    +0.123 A 
ATOM     33  C   UNL     1      -3.220  -1.544  -0.547  0.00  0.00    +0.065 A 
ATOM     34  C   UNL     1      -3.437  -0.885   0.666  0.00  0.00    +0.136 A 
ATOM     35  N   UNL     1      -2.332  -0.271   1.004  0.00  0.00    -0.178 NA
BRANCH  31  37
ATOM     36  C   UNL     1      -0.019   1.526   0.010  0.00  0.00    +0.032 C 
ATOM     37  C   UNL     1       0.002  -0.004   0.002  0.00  0.00    +0.103 C 
ATOM     38  C   UNL     1       0.742  -0.511   1.242  0.00  0.00    +0.032 C 
ENDBRANCH  31  37
ENDBRANCH  27  32
ENDBRANCH  26  28
ENDBRANCH  25  26
ENDBRANCH  23  25
ENDBRANCH  21  23
ENDBRANCH   1  22
TORSDOF 9
