REMARK  Name = ZINC10069450
REMARK  9 active torsions:
REMARK  status: ('A' for Active; 'I' for Inactive)
REMARK    1  A    between atoms: C_1  and  C_2
REMARK    2  A    between atoms: C_4  and  S_12
REMARK    3  A    between atoms: C_5  and  C_11
REMARK    4  A    between atoms: C_6  and  C_10
REMARK    5  A    between atoms: C_7  and  O_8
REMARK    6  A    between atoms: O_8  and  C_9
REMARK    7  A    between atoms: S_12  and  N_15
REMARK    8  A    between atoms: N_15  and  C_16
REMARK    9  A    between atoms: C_19  and  C_22
REMARK                            x       y       z     vdW  Elec       q    Type
REMARK                         _______ _______ _______ _____ _____    ______ ____
ROOT
ATOM      1  C   UNL     1       5.858  -2.276  -0.075  0.00  0.00    +0.048 A 
ATOM      2  C   UNL     1       4.580  -2.818   0.010  0.00  0.00    +0.025 A 
ATOM      3  C   UNL     1       3.479  -1.989   0.021  0.00  0.00    +0.012 A 
ATOM      4  C   UNL     1       3.646  -0.607  -0.054  0.00  0.00    +0.002 A 
ATOM      5  C   UNL     1       4.928  -0.066  -0.145  0.00  0.00    +0.012 A 
ATOM      6  C   UNL     1       6.027  -0.898  -0.149  0.00  0.00    +0.025 A 
ENDROOT
BRANCH   4   7
ATOM      7  C   UNL     1       2.463   0.286  -0.043  0.00  0.00    +0.093 A 
ATOM      8  C   UNL     1       2.629   1.673  -0.119  0.00  0.00    +0.033 A 
ATOM      9  C   UNL     1       1.495   2.465  -0.106  0.00  0.00    +0.047 A 
ATOM     10  C   UNL     1       0.255   1.830  -0.018  0.00  0.00    +0.144 A 
ATOM     11  N   UNL     1       0.192   0.509   0.050  0.00  0.00    -0.134 NA
ATOM     12  N   UNL     1       1.243  -0.228   0.038  0.00  0.00    -0.147 NA
ATOM     13  N   UNL     1      -0.913   2.584  -0.007  0.00  0.00    -0.314 N 
ATOM     14  C   UNL     1      -0.892   3.572   1.080  0.00  0.00    +0.106 C 
ATOM     15  C   UNL     1      -2.122   4.477   0.972  0.00  0.00    +0.019 C 
ATOM     16  C   UNL     1      -3.389   3.621   1.060  0.00  0.00    +0.003 C 
ATOM     17  C   UNL     1      -3.363   2.570  -0.053  0.00  0.00    +0.019 C 
ATOM     18  C   UNL     1      -2.097   1.720   0.084  0.00  0.00    +0.106 C 
ENDBRANCH   4   7
BRANCH   1  19
ATOM     19  N   UNL     1       6.972  -3.116  -0.085  0.00  0.00    -0.216 N 
ATOM     20  H   UNL     1       7.038  -3.842   0.555  0.00  0.00    +0.174 HD
BRANCH  19  21
ATOM     21  S   UNL     1       8.181  -2.875  -1.191  0.00  0.00    +0.073 S 
ATOM     22  O   UNL     1       8.564  -1.511  -1.082  0.00  0.00    -0.150 OA
ATOM     23  O   UNL     1       9.105  -3.941  -1.022  0.00  0.00    -0.150 OA
BRANCH  21  27
ATOM     24  C   UNL     1       6.861  -0.997  -5.885  0.00  0.00    +0.047 C 
ATOM     25  C   UNL     1       6.889  -2.159  -4.927  0.00  0.00    -0.007 A 
ATOM     26  C   UNL     1       7.440  -2.005  -3.669  0.00  0.00    +0.036 A 
ATOM     27  C   UNL     1       7.471  -3.072  -2.791  0.00  0.00    +0.112 A 
ATOM     28  C   UNL     1       6.940  -4.293  -3.165  0.00  0.00    -0.017 A 
ATOM     29  C   UNL     1       6.382  -4.451  -4.418  0.00  0.00    -0.004 A 
ATOM     30  C   UNL     1       6.355  -3.382  -5.304  0.00  0.00    +0.126 A 
ATOM     31  C   UNL     1       5.804  -5.782  -4.825  0.00  0.00    +0.048 C 
ATOM     32  C   UNL     1       6.969  -5.453  -2.203  0.00  0.00    +0.046 C 
BRANCH  30  33
ATOM     33  O   UNL     1       5.807  -3.535  -6.538  0.00  0.00    -0.495 OA
ATOM     34  C   UNL     1       4.411  -3.254  -6.666  0.00  0.00    +0.277 C 
ENDBRANCH  30  33
ENDBRANCH  21  27
ENDBRANCH  19  21
ENDBRANCH   1  19
TORSDOF 5
