REMARK  Name = ZINC38657630
REMARK  7 active torsions:
REMARK  status: ('A' for Active; 'I' for Inactive)
REMARK    1  A    between atoms: C_1  and  C_2
REMARK    2  A    between atoms: C_7  and  C_8
REMARK    3  A    between atoms: C_8  and  O_10
REMARK    4  A    between atoms: O_10  and  C_11
REMARK    5  A    between atoms: C_18  and  N_34
REMARK    6  A    between atoms: C_19  and  C_32
REMARK    7  A    between atoms: C_20  and  C_22
REMARK                            x       y       z     vdW  Elec       q    Type
REMARK                         _______ _______ _______ _____ _____    ______ ____
ROOT
ATOM      1  C   UNL     1       0.217  -0.337   5.022  0.00  0.00    +0.135 A 
ATOM      2  C   UNL     1       0.083   1.044   4.973  0.00  0.00    +0.047 A 
ATOM      3  C   UNL     1       0.064   1.778   6.142  0.00  0.00    +0.012 A 
ATOM      4  C   UNL     1       0.178   1.142   7.366  0.00  0.00    +0.008 A 
ATOM      5  C   UNL     1       0.312  -0.236   7.421  0.00  0.00    +0.138 A 
ATOM      6  C   UNL     1       0.325  -0.977   6.246  0.00  0.00    +0.093 A 
ATOM      7  O   UNL     1       0.425  -0.877   8.611  0.00  0.00    -0.441 OA
ATOM      8  C   UNL     1       0.032  -0.266   9.741  0.00  0.00    +0.199 C 
ATOM      9  C   UNL     1      -0.116   1.078   9.815  0.00  0.00    +0.098 C 
ATOM     10  C   UNL     1       0.156   1.960   8.630  0.00  0.00    +0.098 C 
ENDROOT
BRANCH  10  11
ATOM     11  C   UNL     1       1.490   2.640   8.808  0.00  0.00    -0.027 A 
ATOM     12  C   UNL     1       2.637   1.908   8.800  0.00  0.00    +0.005 A 
ATOM     13  C   UNL     1       3.879   2.518   8.963  0.00  0.00    +0.001 A 
ATOM     14  C   UNL     1       3.981   3.865   9.136  0.00  0.00    +0.008 A 
ATOM     15  C   UNL     1       2.818   4.653   9.150  0.00  0.00    -0.018 A 
ATOM     16  C   UNL     1       1.555   4.033   8.978  0.00  0.00    -0.014 A 
ATOM     17  C   UNL     1       0.393   4.823   8.986  0.00  0.00    +0.009 A 
ATOM     18  C   UNL     1       0.495   6.170   9.154  0.00  0.00    +0.001 A 
ATOM     19  C   UNL     1       1.737   6.780   9.317  0.00  0.00    +0.001 A 
ATOM     20  C   UNL     1       2.883   6.046   9.327  0.00  0.00    +0.008 A 
ENDBRANCH  10  11
BRANCH   8  21
ATOM     21  N   UNL     1      -0.228  -1.027  10.853  0.00  0.00    -0.328 N 
ATOM     22  H   UNL     1      -0.127  -1.991  10.816  0.00  0.00    +0.145 HD
ATOM     23  H   UNL     1      -0.513  -0.601  11.677  0.00  0.00    +0.145 HD
ENDBRANCH   8  21
BRANCH   9  24
ATOM     24  C   UNL     1      -0.539   1.670  11.049  0.00  0.00    +0.101 C 
ATOM     25  N   UNL     1      -0.875   2.140  12.027  0.00  0.00    -0.191 NA
ENDBRANCH   9  24
BRANCH   1  26
ATOM     26  O   UNL     1       0.236  -1.060   3.872  0.00  0.00    -0.422 OA
BRANCH  26  27
ATOM     27  C   UNL     1       1.386  -1.107   3.172  0.00  0.00    +0.345 C 
ATOM     28  O   UNL     1       2.396  -0.610   3.631  0.00  0.00    -0.245 OA
BRANCH  27  35
ATOM     29  C   UNL     1       3.788  -0.961   1.566  0.00  0.00    +0.044 C 
ATOM     30  C   UNL     1       2.574  -1.699   1.065  0.00  0.00    -0.036 A 
ATOM     31  C   UNL     1       2.600  -2.318  -0.168  0.00  0.00    +0.004 A 
ATOM     32  C   UNL     1       1.486  -2.995  -0.630  0.00  0.00    +0.000 A 
ATOM     33  C   UNL     1       0.338  -3.057   0.140  0.00  0.00    +0.001 A 
ATOM     34  C   UNL     1       0.297  -2.442   1.374  0.00  0.00    +0.015 A 
ATOM     35  C   UNL     1       1.420  -1.762   1.849  0.00  0.00    +0.062 A 
ENDBRANCH  27  35
ENDBRANCH  26  27
ENDBRANCH   1  26
TORSDOF 6
