REMARK  Name = ZINC37825054
REMARK  8 active torsions:
REMARK  status: ('A' for Active; 'I' for Inactive)
REMARK    1  A    between atoms: C_1  and  N_2
REMARK    2  A    between atoms: N_2  and  C_3
REMARK    3  A    between atoms: N_2  and  C_4
REMARK    4  A    between atoms: C_4  and  C_5
REMARK    5  A    between atoms: C_5  and  N_6
REMARK    6  A    between atoms: N_6  and  C_7
REMARK    7  A    between atoms: C_12  and  C_14
REMARK    8  A    between atoms: C_17  and  O_21
REMARK                            x       y       z     vdW  Elec       q    Type
REMARK                         _______ _______ _______ _____ _____    ______ ____
ROOT
ATOM      1  N   UNL     1       0.496  -0.388   3.547  0.00  0.00    -0.302 N 
ATOM      2  C   UNL     1       0.323  -1.591   4.128  0.00  0.00    +0.202 C 
ATOM      3  O   UNL     1       0.913  -1.860   5.153  0.00  0.00    -0.277 OA
ENDROOT
BRANCH   2   4
ATOM      4  C   UNL     1      -0.604  -2.603   3.504  0.00  0.00    +0.019 C 
ATOM      5  C   UNL     1       0.181  -3.546   2.567  0.00  0.00    +0.023 C 
ATOM      6  C   UNL     1      -0.467  -4.933   2.760  0.00  0.00    +0.097 C 
ATOM      7  C   UNL     1      -1.589  -4.710   3.797  0.00  0.00    -0.050 C 
ATOM      8  N   UNL     1      -1.174  -3.495   4.546  0.00  0.00    +0.388 N 
ATOM      9  H   UNL     1      -0.473  -3.727   5.234  0.00  0.00    -0.085 HD
ATOM     10  H   UNL     1      -1.971  -3.059   4.985  0.00  0.00    -0.085 HD
BRANCH   6  11
ATOM     11  O   UNL     1      -1.015  -5.401   1.526  0.00  0.00    -0.394 OA
ATOM     12  H   UNL     1      -1.436  -6.269   1.587  0.00  0.00    +0.210 HD
ENDBRANCH   6  11
ENDBRANCH   2   4
BRANCH   1  13
ATOM     13  C   UNL     1       1.480   0.553   4.089  0.00  0.00    +0.076 C 
ATOM     14  C   UNL     1       2.882  -0.091   4.088  0.00  0.00    +0.022 C 
ATOM     15  C   UNL     1       3.538   0.426   5.393  0.00  0.00    +0.002 C 
ATOM     16  C   UNL     1       2.357   0.420   6.395  0.00  0.00    +0.002 C 
ATOM     17  C   UNL     1       1.147   0.877   5.556  0.00  0.00    +0.022 C 
ENDBRANCH   1  13
BRANCH   1  18
ATOM     18  C   UNL     1      -0.299  -0.019   2.373  0.00  0.00    +0.089 C 
BRANCH  18  19
ATOM     19  C   UNL     1       0.435  -0.453   1.103  0.00  0.00    -0.060 C 
BRANCH  19  21
ATOM     20  C   UNL     1      -0.459   1.380  -0.161  0.00  0.00    -0.097 C 
ATOM     21  N   UNL     1      -0.363  -0.084  -0.074  0.00  0.00    +0.377 N 
ATOM     22  C   UNL     1       0.283  -0.605  -1.286  0.00  0.00    -0.097 C 
ATOM     23  H   UNL     1      -1.288  -0.477   0.010  0.00  0.00    -0.083 HD
ENDBRANCH  19  21
ENDBRANCH  18  19
ENDBRANCH   1  18
TORSDOF 6
