REMARK  Name = ZINC64651053
REMARK  7 active torsions:
REMARK  status: ('A' for Active; 'I' for Inactive)
REMARK    1  A    between atoms: C_1  and  C_2
REMARK    2  A    between atoms: C_5  and  C_34
REMARK    3  A    between atoms: C_6  and  C_8
REMARK    4  A    between atoms: C_15  and  C_18
REMARK    5  A    between atoms: C_18  and  N_19
REMARK    6  A    between atoms: C_20  and  C_22
REMARK    7  A    between atoms: C_24  and  C_33
REMARK                            x       y       z     vdW  Elec       q    Type
REMARK                         _______ _______ _______ _____ _____    ______ ____
ROOT
ATOM      1  C   UNL     1      -0.088  -3.157   2.120  0.00  0.00    +0.003 A 
ATOM      2  C   UNL     1      -0.780  -4.360   1.984  0.00  0.00    +0.013 A 
ATOM      3  C   UNL     1      -0.829  -5.254   3.030  0.00  0.00    +0.046 A 
ATOM      4  C   UNL     1      -0.188  -4.966   4.234  0.00  0.00    +0.124 A 
ATOM      5  C   UNL     1       0.494  -3.761   4.366  0.00  0.00    -0.002 A 
ATOM      6  C   UNL     1       0.556  -2.867   3.324  0.00  0.00    +0.017 A 
ATOM      7  C   UNL     1       1.057  -3.722   5.774  0.00  0.00    +0.085 C 
ATOM      8  C   UNL     1       0.259  -4.849   6.470  0.00  0.00    +0.195 C 
ATOM      9  O   UNL     1      -0.103  -5.706   5.373  0.00  0.00    -0.487 OA
ENDROOT
BRANCH   1  15
ATOM     10  C   UNL     1       2.463  -0.084  -0.692  0.00  0.00    +0.067 C 
ATOM     11  C   UNL     1       1.162  -0.751  -0.330  0.00  0.00    +0.057 A 
ATOM     12  C   UNL     1       0.015  -0.466  -1.051  0.00  0.00    +0.134 A 
ATOM     13  N   UNL     1      -1.130  -1.048  -0.739  0.00  0.00    -0.256 NA
ATOM     14  C   UNL     1      -1.185  -1.905   0.263  0.00  0.00    +0.064 A 
ATOM     15  C   UNL     1      -0.032  -2.196   0.993  0.00  0.00    +0.092 A 
ATOM     16  N   UNL     1       1.118  -1.611   0.671  0.00  0.00    -0.249 NA
ATOM     17  C   UNL     1      -2.491  -2.568   0.619  0.00  0.00    +0.068 C 
ENDBRANCH   1  15
BRANCH   8  18
ATOM     18  C   UNL     1       1.138  -5.593   7.477  0.00  0.00    +0.149 C 
BRANCH  18  19
ATOM     19  N   UNL     1       0.355  -6.653   8.118  0.00  0.00    -0.310 N 
ATOM     20  C   UNL     1       0.927  -7.444   9.048  0.00  0.00    +0.240 C 
ATOM     21  O   UNL     1       2.089  -7.279   9.353  0.00  0.00    -0.273 OA
ATOM     22  H   UNL     1      -0.574  -6.785   7.874  0.00  0.00    +0.149 HD
BRANCH  20  23
ATOM     23  C   UNL     1       0.122  -8.534   9.708  0.00  0.00    +0.193 C 
ATOM     24  C   UNL     1       0.059  -9.751   8.811  0.00  0.00    -0.033 C 
ATOM     25  C   UNL     1       0.637 -10.757   9.504  0.00  0.00    +0.001 A 
ATOM     26  C   UNL     1       0.882 -12.170   9.188  0.00  0.00    +0.030 A 
ATOM     27  C   UNL     1       1.498 -12.951  10.105  0.00  0.00    +0.042 A 
ATOM     28  C   UNL     1       1.908 -12.445  11.348  0.00  0.00    +0.022 A 
ATOM     29  C   UNL     1       1.717 -11.159  11.710  0.00  0.00    +0.027 A 
ATOM     30  C   UNL     1       1.079 -10.249  10.822  0.00  0.00    +0.043 A 
ATOM     31  N   UNL     1       0.784  -8.975  10.941  0.00  0.00    -0.370 N 
ATOM     32 CL   UNL     1       1.789 -14.621   9.735  0.00  0.00    -0.084 Cl
ATOM     33  C   UNL     1      -0.531  -9.825   7.426  0.00  0.00    +0.042 C 
ATOM     34  H   UNL     1       0.971  -8.419  11.713  0.00  0.00    +0.161 HD
ENDBRANCH  20  23
ENDBRANCH  18  19
ENDBRANCH   8  18
TORSDOF 4
