REMARK  Name = ZINC67557027
REMARK  6 active torsions:
REMARK  status: ('A' for Active; 'I' for Inactive)
REMARK    1  A    between atoms: C_1  and  S_2
REMARK    2  A    between atoms: S_2  and  C_5
REMARK    3  A    between atoms: C_8  and  N_12
REMARK    4  A    between atoms: C_13  and  C_15
REMARK    5  A    between atoms: N_17  and  C_18
REMARK    6  A    between atoms: C_18  and  C_19
REMARK                            x       y       z     vdW  Elec       q    Type
REMARK                         _______ _______ _______ _____ _____    ______ ____
ROOT
ATOM      1  N   UNL     1       2.840  -1.462  -4.996  0.00  0.00    -0.278 N 
ATOM      2  C   UNL     1       4.186  -1.524  -5.013  0.00  0.00    +0.303 C 
ATOM      3  O   UNL     1       4.814  -1.371  -3.985  0.00  0.00    -0.265 OA
ATOM      4  H   UNL     1       2.335  -1.661  -5.800  0.00  0.00    +0.155 HD
ENDROOT
BRANCH   1   8
ATOM      5  C   UNL     1       0.846  -0.419  -1.488  0.00  0.00    +0.158 A 
ATOM      6  C   UNL     1       2.083   0.136  -1.771  0.00  0.00    +0.153 A 
ATOM      7  C   UNL     1       2.747  -0.209  -2.935  0.00  0.00    +0.063 A 
ATOM      8  C   UNL     1       2.172  -1.113  -3.820  0.00  0.00    +0.039 A 
ATOM      9  C   UNL     1       0.931  -1.668  -3.534  0.00  0.00    +0.063 A 
ATOM     10  C   UNL     1       0.273  -1.324  -2.366  0.00  0.00    +0.153 A 
ATOM     11  F   UNL     1      -0.931  -1.867  -2.085  0.00  0.00    -0.203 F 
ATOM     12  F   UNL     1       2.642   1.014  -0.911  0.00  0.00    -0.203 F 
BRANCH   5  14
ATOM     13  C   UNL     1       0.571  -1.179   1.229  0.00  0.00    +0.200 C 
ATOM     14  S   UNL     1       0.003   0.022  -0.005  0.00  0.00    -0.000 S 
ATOM     15  O   UNL     1      -1.373  -0.186  -0.295  0.00  0.00    -0.169 OA
ATOM     16  O   UNL     1       0.487   1.320   0.315  0.00  0.00    -0.169 OA
ENDBRANCH   5  14
ENDBRANCH   1   8
BRANCH   2  17
ATOM     17  C   UNL     1       4.906  -1.782  -6.296  0.00  0.00    +0.299 C 
ATOM     18  O   UNL     1       4.278  -1.936  -7.323  0.00  0.00    -0.265 OA
ATOM     19  N   UNL     1       6.252  -1.844  -6.313  0.00  0.00    -0.307 N 
ATOM     20  H   UNL     1       6.754  -1.721  -5.492  0.00  0.00    +0.149 HD
BRANCH  19  21
ATOM     21  C   UNL     1       6.958  -2.097  -7.572  0.00  0.00    +0.108 C 
BRANCH  21  22
ATOM     22  C   UNL     1       8.466  -2.117  -7.315  0.00  0.00    +0.010 C 
ATOM     23  C   UNL     1       9.213  -2.268  -8.646  0.00  0.00    +0.009 C 
ATOM     24  C   UNL     1      10.712  -2.106  -8.381  0.00  0.00    +0.027 C 
ATOM     25  C   UNL     1      11.130  -2.979  -7.235  0.00  0.00    -0.031 C 
ATOM     26  C   UNL     1      10.308  -3.499  -6.381  0.00  0.00    -0.031 C 
ATOM     27  C   UNL     1       8.819  -3.307  -6.420  0.00  0.00    +0.032 C 
ENDBRANCH  21  22
ENDBRANCH  19  21
ENDBRANCH   2  17
TORSDOF 5
