REMARK  Name = ZINC22942473
REMARK  11 active torsions:
REMARK  status: ('A' for Active; 'I' for Inactive)
REMARK    1  A    between atoms: C_1  and  N_2
REMARK    2  A    between atoms: N_2  and  C_3
REMARK    3  A    between atoms: N_2  and  C_17
REMARK    4  A    between atoms: C_4  and  C_5
REMARK    5  A    between atoms: N_6  and  C_10
REMARK    6  A    between atoms: C_17  and  C_18
REMARK    7  A    between atoms: C_18  and  N_19
REMARK    8  A    between atoms: N_19  and  C_20
REMARK    9  A    between atoms: N_19  and  C_34
REMARK   10  A    between atoms: C_21  and  C_22
REMARK   11  A    between atoms: N_23  and  C_27
REMARK                            x       y       z     vdW  Elec       q    Type
REMARK                         _______ _______ _______ _____ _____    ______ ____
ROOT
ATOM      1  C   UNL     1      -0.000  -0.730  -1.271  0.00  0.00    +0.123 C 
ENDROOT
BRANCH   1   3
ATOM      2  C   UNL     1      -0.018   1.461   0.010  0.00  0.00    +0.128 C 
ATOM      3  N   UNL     1       0.002  -0.004   0.002  0.00  0.00    -0.337 N 
BRANCH   3   4
ATOM      4  C   UNL     1       0.023  -0.699   1.192  0.00  0.00    +0.073 C 
ATOM      5  C   UNL     1       0.025  -0.035   2.357  0.00  0.00    +0.065 C 
BRANCH   5   6
ATOM      6  C   UNL     1       0.047  -0.775   3.623  0.00  0.00    +0.181 A 
ATOM      7  N   UNL     1       0.046  -0.239   4.882  0.00  0.00    -0.193 N 
ATOM      8  N   UNL     1       0.071  -1.345   5.750  0.00  0.00    -0.039 NA
ATOM      9  N   UNL     1       0.085  -2.402   5.013  0.00  0.00    -0.022 NA
ATOM     10  N   UNL     1       0.066  -2.088   3.769  0.00  0.00    -0.108 NA
BRANCH   7  11
ATOM     11  C   UNL     1       0.025   1.118   5.230  0.00  0.00    +0.070 A 
ATOM     12  C   UNL     1       0.688   2.049   4.442  0.00  0.00    +0.031 A 
ATOM     13  C   UNL     1       0.666   3.386   4.787  0.00  0.00    +0.040 A 
ATOM     14  C   UNL     1      -0.017   3.799   5.919  0.00  0.00    +0.124 A 
ATOM     15  C   UNL     1      -0.679   2.872   6.707  0.00  0.00    +0.040 A 
ATOM     16  C   UNL     1      -0.664   1.535   6.362  0.00  0.00    +0.031 A 
ATOM     17  F   UNL     1      -0.036   5.107   6.256  0.00  0.00    -0.205 F 
ENDBRANCH   7  11
ENDBRANCH   5   6
ENDBRANCH   3   4
ENDBRANCH   1   3
BRANCH   1  18
ATOM     18  C   UNL     1       1.441  -0.963  -1.727  0.00  0.00    +0.123 C 
BRANCH  18  19
ATOM     19  N   UNL     1       1.439  -1.688  -3.000  0.00  0.00    -0.337 N 
ATOM     20  C   UNL     1       1.459  -3.153  -3.008  0.00  0.00    +0.128 C 
BRANCH  19  21
ATOM     21  C   UNL     1       1.419  -0.993  -4.190  0.00  0.00    +0.073 C 
ATOM     22  C   UNL     1       1.417  -1.657  -5.355  0.00  0.00    +0.065 C 
BRANCH  22  23
ATOM     23  C   UNL     1       1.394  -0.917  -6.622  0.00  0.00    +0.181 A 
ATOM     24  N   UNL     1       1.384  -1.453  -7.880  0.00  0.00    -0.193 N 
ATOM     25  N   UNL     1       1.363  -0.347  -8.748  0.00  0.00    -0.039 NA
ATOM     26  N   UNL     1       1.362   0.710  -8.011  0.00  0.00    -0.022 NA
ATOM     27  N   UNL     1       1.375   0.396  -6.767  0.00  0.00    -0.108 NA
BRANCH  24  28
ATOM     28  C   UNL     1       1.393  -2.811  -8.228  0.00  0.00    +0.070 A 
ATOM     29  C   UNL     1       2.097  -3.723  -7.453  0.00  0.00    +0.031 A 
ATOM     30  C   UNL     1       2.105  -5.060  -7.798  0.00  0.00    +0.040 A 
ATOM     31  C   UNL     1       1.412  -5.492  -8.917  0.00  0.00    +0.124 A 
ATOM     32  C   UNL     1       0.710  -4.583  -9.691  0.00  0.00    +0.040 A 
ATOM     33  C   UNL     1       0.695  -3.246  -9.346  0.00  0.00    +0.031 A 
ATOM     34  F   UNL     1       1.422  -6.800  -9.253  0.00  0.00    -0.205 F 
ENDBRANCH  24  28
ENDBRANCH  22  23
ENDBRANCH  19  21
ENDBRANCH  18  19
ENDBRANCH   1  18
TORSDOF 9
