REMARK  Name = ZINC40144962
REMARK  8 active torsions:
REMARK  status: ('A' for Active; 'I' for Inactive)
REMARK    1  A    between atoms: C_4  and  C_7
REMARK    2  A    between atoms: C_8  and  C_18
REMARK    3  A    between atoms: N_10  and  C_12
REMARK    4  A    between atoms: C_18  and  C_20
REMARK    5  A    between atoms: C_18  and  N_33
REMARK    6  A    between atoms: C_20  and  C_22
REMARK    7  A    between atoms: C_20  and  C_24
REMARK    8  A    between atoms: C_34  and  N_35
REMARK                            x       y       z     vdW  Elec       q    Type
REMARK                         _______ _______ _______ _____ _____    ______ ____
ROOT
ATOM      1  C   UNL     1       3.069  -2.603   1.604  0.00  0.00    +0.164 C 
ENDROOT
BRANCH   1   2
ATOM      2  N   UNL     1       3.609  -3.937   1.876  0.00  0.00    -0.261 N 
ATOM      3  C   UNL     1       2.998  -5.130   1.585  0.00  0.00    +0.117 A 
ATOM      4  C   UNL     1       3.824  -6.138   1.995  0.00  0.00    +0.114 A 
ATOM      5  C   UNL     1       4.973  -5.559   2.553  0.00  0.00    +0.266 A 
ATOM      6  O   UNL     1       5.923  -6.161   3.022  0.00  0.00    -0.266 OA
ATOM      7  N   UNL     1       4.844  -4.219   2.475  0.00  0.00    -0.261 N 
ATOM      8  H   UNL     1       5.492  -3.566   2.782  0.00  0.00    +0.190 HD
BRANCH   3   9
ATOM      9  N   UNL     1       1.774  -5.283   0.986  0.00  0.00    -0.343 N 
ATOM     10  H   UNL     1       1.259  -4.503   0.729  0.00  0.00    +0.144 HD
ATOM     11  H   UNL     1       1.424  -6.172   0.820  0.00  0.00    +0.144 HD
ENDBRANCH   3   9
ENDBRANCH   1   2
BRANCH   1  13
ATOM     12  C   UNL     1       3.636  -0.858  -0.236  0.00  0.00    +0.098 A 
ATOM     13  C   UNL     1       4.002  -1.861   0.682  0.00  0.00    +0.024 A 
ATOM     14  C   UNL     1       5.338  -2.041   0.591  0.00  0.00    +0.121 A 
ATOM     15  N   UNL     1       5.810  -1.184  -0.352  0.00  0.00    -0.239 N 
ATOM     16  N   UNL     1       4.725  -0.457  -0.859  0.00  0.00    -0.166 NA
BRANCH  12  20
ATOM     17  C   UNL     1      -0.299   0.611  -0.895  0.00  0.00    +0.000 A 
ATOM     18  C   UNL     1       0.762   1.495  -0.817  0.00  0.00    +0.001 A 
ATOM     19  C   UNL     1       2.041   1.024  -0.603  0.00  0.00    +0.010 A 
ATOM     20  C   UNL     1       2.263  -0.345  -0.466  0.00  0.00    +0.002 A 
ATOM     21  C   UNL     1       1.190  -1.231  -0.545  0.00  0.00    +0.010 A 
ATOM     22  C   UNL     1      -0.085  -0.748  -0.759  0.00  0.00    +0.001 A 
ENDBRANCH  12  20
BRANCH  15  23
ATOM     23  C   UNL     1       7.147  -1.053  -0.750  0.00  0.00    +0.065 A 
ATOM     24  C   UNL     1       8.127  -1.849  -0.170  0.00  0.00    +0.028 A 
ATOM     25  C   UNL     1       9.444  -1.718  -0.565  0.00  0.00    +0.002 A 
ATOM     26  C   UNL     1       9.787  -0.795  -1.537  0.00  0.00    +0.000 A 
ATOM     27  C   UNL     1       8.814  -0.002  -2.116  0.00  0.00    +0.002 A 
ATOM     28  C   UNL     1       7.494  -0.133  -1.730  0.00  0.00    +0.028 A 
ENDBRANCH  15  23
ENDBRANCH   1  13
BRANCH   1  29
ATOM     29  C   UNL     1       2.929  -1.831   2.917  0.00  0.00    +0.176 C 
BRANCH  29  30
ATOM     30  C   UNL     1       1.995  -2.573   3.839  0.00  0.00    +0.099 A 
ATOM     31  N   UNL     1       0.750  -2.885   3.630  0.00  0.00    -0.243 NA
ATOM     32  C   UNL     1       0.015  -3.557   4.540  0.00  0.00    +0.079 A 
ATOM     33  C   UNL     1      -1.331  -3.975   4.486  0.00  0.00    +0.029 A 
ATOM     34  C   UNL     1      -1.889  -4.650   5.528  0.00  0.00    +0.002 A 
ATOM     35  C   UNL     1      -1.163  -4.949   6.673  0.00  0.00    +0.001 A 
ATOM     36  C   UNL     1       0.159  -4.556   6.763  0.00  0.00    +0.017 A 
ATOM     37  C   UNL     1       0.731  -3.875   5.716  0.00  0.00    +0.039 A 
ATOM     38  S   UNL     1       2.330  -3.191   5.368  0.00  0.00    -0.071 S 
ENDBRANCH  29  30
BRANCH  29  39
ATOM     39  C   UNL     1       2.386  -0.491   2.643  0.00  0.00    +0.075 C 
ATOM     40  N   UNL     1       1.966   0.543   2.432  0.00  0.00    -0.196 NA
ENDBRANCH  29  39
ENDBRANCH   1  29
TORSDOF 8
