REMARK  Name = ZINC01237189
REMARK  7 active torsions:
REMARK  status: ('A' for Active; 'I' for Inactive)
REMARK    1  A    between atoms: C_5  and  C_7
REMARK    2  A    between atoms: C_7  and  S_8
REMARK    3  A    between atoms: S_8  and  C_9
REMARK    4  A    between atoms: C_12  and  C_14
REMARK    5  A    between atoms: C_14  and  C_16
REMARK    6  A    between atoms: C_14  and  N_27
REMARK    7  A    between atoms: C_16  and  C_17
REMARK                            x       y       z     vdW  Elec       q    Type
REMARK                         _______ _______ _______ _____ _____    ______ ____
ROOT
ATOM      1  C   UNL     1       1.323  -8.001   2.621  0.00  0.00    +0.019 C 
ENDROOT
BRANCH   1   5
ATOM      2  C   UNL     1       1.275  -4.553   1.506  0.00  0.00    +0.278 A 
ATOM      3  N   UNL     1       1.278  -5.221   0.377  0.00  0.00    -0.101 NA
ATOM      4  N   UNL     1       1.296  -6.482   0.629  0.00  0.00    -0.113 NA
ATOM      5  C   UNL     1       1.304  -6.670   1.916  0.00  0.00    +0.204 A 
ATOM      6  O   UNL     1       1.296  -5.457   2.504  0.00  0.00    -0.417 OA
BRANCH   2   7
ATOM      7  S   UNL     1       1.253  -2.800   1.685  0.00  0.00    -0.061 S 
BRANCH   7   8
ATOM      8  C   UNL     1       1.228  -2.186  -0.022  0.00  0.00    +0.117 C 
BRANCH   8  13
ATOM      9  C   UNL     1      -0.017   1.378   0.010  0.00  0.00    +0.000 A 
ATOM     10  C   UNL     1       1.171   2.087   0.002  0.00  0.00    +0.003 A 
ATOM     11  C   UNL     1       2.377   1.414  -0.013  0.00  0.00    +0.038 A 
ATOM     12  C   UNL     1       2.397   0.029  -0.021  0.00  0.00    +0.127 A 
ATOM     13  C   UNL     1       1.208  -0.679  -0.013  0.00  0.00    -0.002 A 
ATOM     14  C   UNL     1       0.002  -0.004   0.002  0.00  0.00    +0.007 A 
ATOM     15  F   UNL     1       3.577  -0.630  -0.036  0.00  0.00    -0.205 F 
ENDBRANCH   8  13
ENDBRANCH   7   8
ENDBRANCH   2   7
ENDBRANCH   1   5
BRANCH   1  16
ATOM     16  N   UNL     1       0.352  -8.905   1.989  0.00  0.00    +0.386 N 
ATOM     17  H   UNL     1       0.365  -9.796   2.461  0.00  0.00    -0.089 HD
ATOM     18  H   UNL     1      -0.572  -8.504   2.053  0.00  0.00    -0.089 HD
ATOM     19  H   UNL     1       0.596  -9.034   1.018  0.00  0.00    -0.089 HD
ENDBRANCH   1  16
BRANCH   1  20
ATOM     20  C   UNL     1       2.724  -8.609   2.524  0.00  0.00    +0.030 C 
BRANCH  20  21
ATOM     21  C   UNL     1       2.776  -9.880   3.332  0.00  0.00    -0.023 A 
ATOM     22  C   UNL     1       3.193 -10.002   4.603  0.00  0.00    +0.087 A 
ATOM     23  N   UNL     1       3.098 -11.308   5.002  0.00  0.00    -0.360 N 
ATOM     24  H   UNL     1       3.342 -11.641   5.879  0.00  0.00    +0.165 HD
ATOM     25  C   UNL     1       2.606 -12.077   3.971  0.00  0.00    +0.047 A 
ATOM     26  C   UNL     1       2.377 -11.216   2.883  0.00  0.00    +0.003 A 
ATOM     27  C   UNL     1       1.867 -11.725   1.687  0.00  0.00    +0.010 A 
ATOM     28  C   UNL     1       1.588 -13.059   1.582  0.00  0.00    +0.001 A 
ATOM     29  C   UNL     1       1.809 -13.912   2.654  0.00  0.00    +0.002 A 
ATOM     30  C   UNL     1       2.321 -13.432   3.840  0.00  0.00    +0.026 A 
ENDBRANCH  20  21
ENDBRANCH   1  20
TORSDOF 7
