REMARK  Name = ZINC34720398
REMARK  11 active torsions:
REMARK  status: ('A' for Active; 'I' for Inactive)
REMARK    1  A    between atoms: C_1  and  C_2
REMARK    2  A    between atoms: C_5  and  C_40
REMARK    3  A    between atoms: C_10  and  C_12
REMARK    4  A    between atoms: N_25  and  C_28
REMARK    5  A    between atoms: C_26  and  N_27
REMARK    6  A    between atoms: C_28  and  C_29
REMARK    7  A    between atoms: C_29  and  C_30
REMARK    8  A    between atoms: C_33  and  O_38
REMARK    9  A    between atoms: C_34  and  O_36
REMARK   10  A    between atoms: O_36  and  C_37
REMARK   11  A    between atoms: O_38  and  C_39
REMARK                            x       y       z     vdW  Elec       q    Type
REMARK                         _______ _______ _______ _____ _____    ______ ____
ROOT
ATOM      1  C   UNL     1       3.113  -2.196   1.452  0.00  0.00    +0.075 A 
ATOM      2  C   UNL     1       3.326  -0.816   1.450  0.00  0.00    +0.033 A 
ATOM      3  C   UNL     1       4.641  -0.358   1.441  0.00  0.00    +0.083 A 
ATOM      4  C   UNL     1       5.714  -1.289   1.436  0.00  0.00    +0.150 A 
ATOM      5  N   UNL     1       6.969  -0.829   1.427  0.00  0.00    -0.211 NA
ATOM      6  C   UNL     1       7.246   0.470   1.424  0.00  0.00    +0.143 A 
ATOM      7  C   UNL     1       8.600   0.870   1.415  0.00  0.00    +0.047 A 
ATOM      8  C   UNL     1       8.910   2.194   1.411  0.00  0.00    +0.005 A 
ATOM      9  C   UNL     1       7.882   3.149   1.416  0.00  0.00    +0.018 A 
ATOM     10  C   UNL     1       6.591   2.753   1.425  0.00  0.00    +0.096 A 
ATOM     11  N   UNL     1       6.266   1.427   1.428  0.00  0.00    -0.268 N 
ATOM     12  C   UNL     1       4.960   1.071   1.437  0.00  0.00    +0.268 A 
ATOM     13  O   UNL     1       4.080   1.912   1.442  0.00  0.00    -0.267 OA
ATOM     14  N   UNL     1       5.461  -2.600   1.439  0.00  0.00    -0.313 N 
ATOM     15  C   UNL     1       4.226  -3.066   1.453  0.00  0.00    +0.110 A 
ENDROOT
BRANCH   1  23
ATOM     16  C   UNL     1       1.192  -0.763  -2.899  0.00  0.00    +0.009 C 
ATOM     17  C   UNL     1       0.953  -1.867  -1.867  0.00  0.00    +0.004 C 
ATOM     18  C   UNL     1      -0.497  -2.348  -1.959  0.00  0.00    +0.009 C 
ATOM     19  C   UNL     1      -0.727  -3.475  -0.949  0.00  0.00    +0.004 C 
ATOM     20  C   UNL     1      -0.483  -2.944   0.467  0.00  0.00    +0.111 C 
ATOM     21  N   UNL     1       0.859  -2.348   0.523  0.00  0.00    -0.297 N 
ATOM     22  C   UNL     1       1.218  -1.318  -0.461  0.00  0.00    +0.111 C 
ATOM     23  C   UNL     1       1.745  -2.739   1.461  0.00  0.00    +0.250 C 
ATOM     24  O   UNL     1       1.414  -3.540   2.314  0.00  0.00    -0.270 OA
ATOM     25  C   UNL     1      -2.167  -3.978  -1.065  0.00  0.00    +0.009 C 
ENDBRANCH   1  23
BRANCH  15  26
ATOM     26  N   UNL     1       4.019  -4.429   1.462  0.00  0.00    -0.344 N 
ATOM     27  H   UNL     1       3.121  -4.784   1.373  0.00  0.00    +0.144 HD
ATOM     28  H   UNL     1       4.772  -5.034   1.557  0.00  0.00    +0.144 HD
ENDBRANCH  15  26
BRANCH  14  29
ATOM     29  C   UNL     1       6.581  -3.544   1.433  0.00  0.00    +0.129 C 
BRANCH  29  30
ATOM     30  C   UNL     1       6.980  -3.871   2.873  0.00  0.00    +0.057 C 
BRANCH  30  31
ATOM     31  C   UNL     1       8.133  -4.842   2.867  0.00  0.00    -0.042 A 
ATOM     32  C   UNL     1       7.888  -6.202   2.864  0.00  0.00    +0.007 A 
ATOM     33  C   UNL     1       8.942  -7.097   2.859  0.00  0.00    +0.049 A 
ATOM     34  C   UNL     1      10.247  -6.631   2.855  0.00  0.00    +0.161 A 
ATOM     35  C   UNL     1      10.493  -5.261   2.857  0.00  0.00    +0.162 A 
ATOM     36  C   UNL     1       9.432  -4.370   2.858  0.00  0.00    +0.053 A 
BRANCH  35  37
ATOM     37  O   UNL     1      11.772  -4.799   2.854  0.00  0.00    -0.491 OA
ATOM     38  C   UNL     1      11.949  -3.381   2.857  0.00  0.00    +0.277 C 
ENDBRANCH  35  37
BRANCH  34  39
ATOM     39  O   UNL     1      11.284  -7.510   2.850  0.00  0.00    -0.491 OA
ATOM     40  C   UNL     1      10.957  -8.901   2.848  0.00  0.00    +0.277 C 
ENDBRANCH  34  39
ENDBRANCH  30  31
ENDBRANCH  29  30
ENDBRANCH  14  29
TORSDOF 7
