REMARK  Name = ZINC13963173
REMARK  10 active torsions:
REMARK  status: ('A' for Active; 'I' for Inactive)
REMARK    1  A    between atoms: C_1  and  C_2
REMARK    2  A    between atoms: C_4  and  C_29
REMARK    3  A    between atoms: C_5  and  C_9
REMARK    4  A    between atoms: C_6  and  C_8
REMARK    5  A    between atoms: C_9  and  C_10
REMARK    6  A    between atoms: C_10  and  N_12
REMARK    7  A    between atoms: N_14  and  C_26
REMARK    8  A    between atoms: C_18  and  S_22
REMARK    9  A    between atoms: S_22  and  N_25
REMARK   10  A    between atoms: C_26  and  C_27
REMARK                            x       y       z     vdW  Elec       q    Type
REMARK                         _______ _______ _______ _____ _____    ______ ____
ROOT
ATOM      1  N   UNL     1       1.746  -6.062  -0.041  0.00  0.00    -0.156 NA
ATOM      2  C   UNL     1       3.007  -6.490  -0.050  0.00  0.00    +0.167 A 
ATOM      3  N   UNL     1       3.451  -7.772  -0.065  0.00  0.00    -0.310 N 
ATOM      4  C   UNL     1       4.809  -8.030  -0.073  0.00  0.00    +0.059 A 
ATOM      5  C   UNL     1       5.476  -9.262  -0.089  0.00  0.00    +0.029 A 
ATOM      6  C   UNL     1       6.851  -9.315  -0.095  0.00  0.00    +0.030 A 
ATOM      7  C   UNL     1       7.612  -8.158  -0.086  0.00  0.00    +0.106 A 
ATOM      8  C   UNL     1       6.978  -6.928  -0.071  0.00  0.00    +0.045 A 
ATOM      9  C   UNL     1       5.604  -6.875  -0.065  0.00  0.00    +0.041 A 
ATOM     10  S   UNL     1       4.410  -5.564  -0.053  0.00  0.00    -0.052 S 
ENDROOT
BRANCH   7  11
ATOM     11  S   UNL     1       9.372  -8.251  -0.092  0.00  0.00    +0.056 S 
ATOM     12  O   UNL     1       9.845  -7.034   0.469  0.00  0.00    -0.153 OA
ATOM     13  O   UNL     1       9.713  -9.521   0.445  0.00  0.00    -0.153 OA
BRANCH  11  14
ATOM     14  N   UNL     1       9.855  -8.261  -1.676  0.00  0.00    -0.204 NA
ATOM     15  H   UNL     1      10.714  -7.883  -1.923  0.00  0.00    +0.144 HD
ATOM     16  H   UNL     1       9.280  -8.644  -2.356  0.00  0.00    +0.144 HD
ENDBRANCH  11  14
ENDBRANCH   7  11
BRANCH   1  17
ATOM     17  C   UNL     1       1.487  -4.759  -0.032  0.00  0.00    +0.243 C 
ATOM     18  O   UNL     1       2.401  -3.957  -0.033  0.00  0.00    -0.273 OA
BRANCH  17  19
ATOM     19  C   UNL     1       0.059  -4.275  -0.021  0.00  0.00    +0.133 C 
BRANCH  19  24
ATOM     20  C   UNL     1      -0.018   1.503   0.010  0.00  0.00    +0.044 C 
ATOM     21  C   UNL     1       0.002  -0.004   0.002  0.00  0.00    -0.050 A 
ATOM     22  C   UNL     1       0.006  -0.689  -1.199  0.00  0.00    +0.007 A 
ATOM     23  C   UNL     1       0.025  -2.071  -1.206  0.00  0.00    -0.046 A 
ATOM     24  C   UNL     1       0.040  -2.768  -0.013  0.00  0.00    -0.033 A 
ATOM     25  C   UNL     1       0.037  -2.084   1.188  0.00  0.00    -0.046 A 
ATOM     26  C   UNL     1       0.023  -0.702   1.195  0.00  0.00    +0.007 A 
ATOM     27  C   UNL     1       0.054  -2.844   2.489  0.00  0.00    +0.044 C 
ATOM     28  C   UNL     1       0.027  -2.817  -2.516  0.00  0.00    +0.044 C 
ENDBRANCH  19  24
ENDBRANCH  17  19
ENDBRANCH   1  17
BRANCH   3  29
ATOM     29  C   UNL     1       2.493  -8.881  -0.072  0.00  0.00    +0.212 C 
BRANCH  29  30
ATOM     30  C   UNL     1       2.166  -9.239  -1.462  0.00  0.00    -0.084 C 
ATOM     31  C   UNL     1       1.906  -9.524  -2.570  0.00  0.00    +0.005 C 
ENDBRANCH  29  30
ENDBRANCH   3  29
TORSDOF 7
