REMARK  Name = ZINC18708567
REMARK  15 active torsions:
REMARK  status: ('A' for Active; 'I' for Inactive)
REMARK    1  A    between atoms: C_1  and  C_2
REMARK    2  A    between atoms: C_2  and  C_3
REMARK    3  A    between atoms: C_3  and  C_4
REMARK    4  A    between atoms: C_4  and  N_5
REMARK    5  A    between atoms: N_5  and  C_6
REMARK    6  A    between atoms: C_7  and  N_18
REMARK    7  A    between atoms: N_8  and  C_15
REMARK    8  A    between atoms: C_15  and  C_16
REMARK    9  A    between atoms: C_16  and  C_17
REMARK   10  A    between atoms: C_19  and  C_21
REMARK   11  A    between atoms: C_21  and  N_22
REMARK   12  A    between atoms: N_22  and  C_23
REMARK   13  A    between atoms: N_22  and  C_30
REMARK   14  A    between atoms: C_23  and  C_24
REMARK   15  A    between atoms: C_30  and  C_31
REMARK                            x       y       z     vdW  Elec       q    Type
REMARK                         _______ _______ _______ _____ _____    ______ ____
ROOT
ATOM      1  N   UNL     1       2.770  -2.739  -3.251  0.00  0.00    -0.266 N 
ATOM      2  C   UNL     1       1.884  -3.217  -4.150  0.00  0.00    +0.203 C 
ATOM      3  O   UNL     1       2.263  -3.936  -5.051  0.00  0.00    -0.277 OA
ENDROOT
BRANCH   1   4
ATOM      4  C   UNL     1       4.149  -2.982  -3.422  0.00  0.00    +0.140 A 
ATOM      5  C   UNL     1       4.830  -3.805  -2.548  0.00  0.00    +0.127 A 
ATOM      6  N   UNL     1       6.175  -4.024  -2.740  0.00  0.00    -0.280 N 
ATOM      7  C   UNL     1       6.818  -3.441  -3.768  0.00  0.00    +0.331 A 
ATOM      8  O   UNL     1       8.007  -3.646  -3.920  0.00  0.00    -0.246 OA
ATOM      9  N   UNL     1       6.171  -2.636  -4.629  0.00  0.00    -0.273 N 
ATOM     10  H   UNL     1       6.658  -2.228  -5.362  0.00  0.00    +0.173 HD
ATOM     11  C   UNL     1       4.853  -2.394  -4.489  0.00  0.00    +0.277 A 
ATOM     12  O   UNL     1       4.275  -1.667  -5.279  0.00  0.00    -0.266 OA
BRANCH   5  13
ATOM     13  N   UNL     1       4.173  -4.400  -1.498  0.00  0.00    -0.343 N 
ATOM     14  H   UNL     1       3.244  -4.183  -1.322  0.00  0.00    +0.144 HD
ATOM     15  H   UNL     1       4.637  -5.037  -0.932  0.00  0.00    +0.144 HD
ENDBRANCH   5  13
BRANCH   6  16
ATOM     16  C   UNL     1       6.910  -4.895  -1.820  0.00  0.00    +0.128 C 
BRANCH  16  17
ATOM     17  C   UNL     1       6.895  -6.329  -2.354  0.00  0.00    +0.018 C 
ATOM     18  C   UNL     1       7.555  -7.260  -1.335  0.00  0.00    +0.005 C 
ENDBRANCH  16  17
ENDBRANCH   6  16
ENDBRANCH   1   4
BRANCH   1  19
ATOM     19  C   UNL     1       2.299  -1.968  -2.098  0.00  0.00    +0.114 C 
BRANCH  19  20
ATOM     20  C   UNL     1       2.325  -0.476  -2.437  0.00  0.00    +0.019 C 
BRANCH  20  22
ATOM     21  C   UNL     1       1.859   1.821  -1.573  0.00  0.00    +0.004 C 
ATOM     22  C   UNL     1       1.833   0.329  -1.233  0.00  0.00    -0.002 C 
ENDBRANCH  20  22
ENDBRANCH  19  20
ENDBRANCH   1  19
BRANCH   2  23
ATOM     23  C   UNL     1       0.425  -2.857  -4.035  0.00  0.00    +0.020 C 
BRANCH  23  24
ATOM     24  N   UNL     1      -0.345  -3.612  -5.032  0.00  0.00    +0.391 N 
ATOM     25  H   UNL     1       0.054  -3.466  -5.947  0.00  0.00    -0.080 HD
BRANCH  24  26
ATOM     26  C   UNL     1      -0.304  -5.043  -4.702  0.00  0.00    -0.042 C 
BRANCH  26  27
ATOM     27  C   UNL     1      -0.989  -5.830  -5.790  0.00  0.00    -0.064 A 
ATOM     28  C   UNL     1      -2.346  -6.082  -5.710  0.00  0.00    +0.002 A 
ATOM     29  C   UNL     1      -2.975  -6.803  -6.708  0.00  0.00    +0.000 A 
ATOM     30  C   UNL     1      -2.247  -7.272  -7.785  0.00  0.00    +0.000 A 
ATOM     31  C   UNL     1      -0.890  -7.019  -7.865  0.00  0.00    +0.000 A 
ATOM     32  C   UNL     1      -0.262  -6.294  -6.870  0.00  0.00    +0.002 A 
ENDBRANCH  26  27
ENDBRANCH  24  26
BRANCH  24  33
ATOM     33  C   UNL     1      -1.739  -3.149  -5.027  0.00  0.00    -0.042 C 
BRANCH  33  34
ATOM     34  C   UNL     1      -1.795  -1.720  -5.502  0.00  0.00    -0.064 A 
ATOM     35  C   UNL     1      -1.814  -0.686  -4.584  0.00  0.00    +0.002 A 
ATOM     36  C   UNL     1      -1.865   0.624  -5.019  0.00  0.00    +0.000 A 
ATOM     37  C   UNL     1      -1.897   0.902  -6.373  0.00  0.00    +0.000 A 
ATOM     38  C   UNL     1      -1.878  -0.131  -7.292  0.00  0.00    +0.000 A 
ATOM     39  C   UNL     1      -1.822  -1.442  -6.856  0.00  0.00    +0.002 A 
ENDBRANCH  33  34
ENDBRANCH  24  33
ENDBRANCH  23  24
ENDBRANCH   2  23
TORSDOF 13
