REMARK  Name = ZINC37628698
REMARK  7 active torsions:
REMARK  status: ('A' for Active; 'I' for Inactive)
REMARK    1  A    between atoms: C_1  and  C_2
REMARK    2  A    between atoms: C_6  and  C_21
REMARK    3  A    between atoms: C_8  and  N_11
REMARK    4  A    between atoms: C_12  and  C_14
REMARK    5  A    between atoms: C_17  and  N_20
REMARK    6  A    between atoms: C_21  and  C_22
REMARK    7  A    between atoms: C_21  and  C_23
REMARK                            x       y       z     vdW  Elec       q    Type
REMARK                         _______ _______ _______ _____ _____    ______ ____
ROOT
ATOM      1  N   UNL     1      -0.612  -2.548   1.244  0.00  0.00    -0.312 N 
ATOM      2  C   UNL     1      -1.268  -2.692   2.412  0.00  0.00    +0.216 C 
ATOM      3  O   UNL     1      -0.721  -2.402   3.455  0.00  0.00    -0.276 OA
ATOM      4  H   UNL     1      -1.049  -2.780   0.410  0.00  0.00    +0.149 HD
ENDROOT
BRANCH   1  10
ATOM      5  C   UNL     1      -0.019   1.526   0.010  0.00  0.00    +0.007 C 
ATOM      6  C   UNL     1       0.002  -0.004   0.002  0.00  0.00    -0.012 C 
ATOM      7  C   UNL     1       0.718  -0.497  -1.257  0.00  0.00    +0.004 C 
ATOM      8  C   UNL     1       0.739  -2.027  -1.265  0.00  0.00    +0.006 C 
ATOM      9  C   UNL     1       1.479  -2.534  -0.026  0.00  0.00    +0.012 C 
ATOM     10  C   UNL     1       0.763  -2.041   1.233  0.00  0.00    +0.077 C 
ATOM     11  C   UNL     1       0.742  -0.511   1.242  0.00  0.00    +0.025 C 
BRANCH   9  12
ATOM     12  C   UNL     1       1.500  -4.064  -0.034  0.00  0.00    -0.012 C 
ATOM     13  C   UNL     1       2.216  -4.557  -1.293  0.00  0.00    +0.007 C 
ATOM     14  C   UNL     1       2.240  -4.571   1.205  0.00  0.00    +0.007 C 
ENDBRANCH   9  12
ENDBRANCH   1  10
BRANCH   2  15
ATOM     15  C   UNL     1      -2.682  -3.213   2.422  0.00  0.00    +0.075 C 
ATOM     16  C   UNL     1      -3.577  -2.277   1.609  0.00  0.00    +0.011 C 
ATOM     17  C   UNL     1      -3.545  -0.877   2.226  0.00  0.00    -0.016 C 
ATOM     18  C   UNL     1      -4.053  -0.944   3.667  0.00  0.00    -0.075 C 
ATOM     19  C   UNL     1      -3.158  -1.880   4.481  0.00  0.00    -0.016 C 
ATOM     20  C   UNL     1      -3.190  -3.280   3.864  0.00  0.00    +0.011 C 
BRANCH  18  21
ATOM     21  N   UNL     1      -4.023   0.400   4.259  0.00  0.00    +0.380 N 
ATOM     22  H   UNL     1      -4.613   1.018   3.723  0.00  0.00    -0.090 HD
ATOM     23  H   UNL     1      -4.358   0.357   5.210  0.00  0.00    -0.090 HD
ATOM     24  H   UNL     1      -3.076   0.750   4.252  0.00  0.00    -0.090 HD
ENDBRANCH  18  21
ENDBRANCH   2  15
TORSDOF 4
