REMARK  Name = ZINC12880464
REMARK  9 active torsions:
REMARK  status: ('A' for Active; 'I' for Inactive)
REMARK    1  A    between atoms: C_1  and  C_2
REMARK    2  A    between atoms: C_4  and  C_36
REMARK    3  A    between atoms: C_6  and  N_8
REMARK    4  A    between atoms: C_16  and  C_22
REMARK    5  A    between atoms: C_22  and  O_24
REMARK    6  A    between atoms: O_24  and  C_25
REMARK    7  A    between atoms: C_25  and  C_27
REMARK    8  A    between atoms: C_25  and  C_28
REMARK    9  A    between atoms: N_30  and  C_31
REMARK                            x       y       z     vdW  Elec       q    Type
REMARK                         _______ _______ _______ _____ _____    ______ ____
ROOT
ATOM      1  N   UNL     1      -0.069   5.242   0.029  0.00  0.00    -0.268 N 
ATOM      2  C   UNL     1      -1.304   6.087   0.039  0.00  0.00    +0.153 C 
ATOM      3  C   UNL     1      -0.810   7.366  -0.556  0.00  0.00    +0.116 C 
ATOM      4  C   UNL     1      -0.533   7.250  -2.044  0.00  0.00    +0.008 C 
ATOM      5  C   UNL     1      -0.117   8.448  -2.427  0.00  0.00    +0.004 C 
ATOM      6  C   UNL     1      -0.084   9.286  -1.143  0.00  0.00    +0.157 C 
ATOM      7  O   UNL     1      -1.223   8.702  -0.384  0.00  0.00    -0.359 OA
ATOM      8  C   UNL     1       1.154   8.682  -0.396  0.00  0.00    +0.145 C 
ATOM      9  C   UNL     1       0.571   7.432   0.212  0.00  0.00    +0.129 C 
ATOM     10  C   UNL     1       1.043   6.048   0.022  0.00  0.00    +0.227 C 
ATOM     11  O   UNL     1       2.194   5.691  -0.115  0.00  0.00    -0.275 OA
ENDROOT
BRANCH   1  17
ATOM     12  C   UNL     1       2.490   1.044  -0.016  0.00  0.00    +0.044 C 
ATOM     13  C   UNL     1       1.176   1.782   0.000  0.00  0.00    -0.048 A 
ATOM     14  C   UNL     1      -0.013   1.076   0.008  0.00  0.00    +0.006 A 
ATOM     15  C   UNL     1      -1.220   1.749   0.017  0.00  0.00    -0.048 A 
ATOM     16  C   UNL     1      -1.242   3.130   0.030  0.00  0.00    +0.027 A 
ATOM     17  C   UNL     1      -0.050   3.842   0.022  0.00  0.00    +0.037 A 
ATOM     18  C   UNL     1       1.161   3.163   0.007  0.00  0.00    +0.027 A 
ATOM     19  C   UNL     1      -2.514   0.976   0.020  0.00  0.00    +0.044 C 
ENDBRANCH   1  17
BRANCH   8  20
ATOM     20  C   UNL     1       1.648   9.624   0.672  0.00  0.00    +0.315 C 
ATOM     21  O   UNL     1       1.544   9.323   1.837  0.00  0.00    -0.250 OA
BRANCH  20  22
ATOM     22  O   UNL     1       2.203  10.797   0.329  0.00  0.00    -0.452 OA
BRANCH  22  23
ATOM     23  C   UNL     1       2.656  11.653   1.410  0.00  0.00    +0.258 C 
ATOM     24  C   UNL     1       1.517  12.582   1.836  0.00  0.00    +0.062 C 
BRANCH  23  25
ATOM     25  C   UNL     1       3.828  12.477   0.941  0.00  0.00    +0.254 C 
ATOM     26  O   UNL     1       4.183  12.422  -0.218  0.00  0.00    -0.272 OA
ATOM     27  N   UNL     1       4.480  13.275   1.808  0.00  0.00    -0.309 N 
ATOM     28  H   UNL     1       4.196  13.320   2.735  0.00  0.00    +0.149 HD
BRANCH  27  29
ATOM     29  C   UNL     1       5.619  14.076   1.353  0.00  0.00    +0.073 C 
ATOM     30  C   UNL     1       6.921  13.256   1.464  0.00  0.00    +0.022 C 
ATOM     31  C   UNL     1       7.985  14.291   1.907  0.00  0.00    +0.002 C 
ATOM     32  C   UNL     1       7.198  15.191   2.892  0.00  0.00    +0.002 C 
ATOM     33  C   UNL     1       5.795  15.307   2.260  0.00  0.00    +0.022 C 
ENDBRANCH  27  29
ENDBRANCH  23  25
ENDBRANCH  22  23
ENDBRANCH  20  22
ENDBRANCH   8  20
TORSDOF 6
