REMARK  Name = ZINC47962395
REMARK  6 active torsions:
REMARK  status: ('A' for Active; 'I' for Inactive)
REMARK    1  A    between atoms: C_1  and  C_2
REMARK    2  A    between atoms: C_2  and  C_4
REMARK    3  A    between atoms: C_2  and  N_10
REMARK    4  A    between atoms: C_11  and  C_13
REMARK    5  A    between atoms: N_15  and  C_16
REMARK    6  A    between atoms: C_17  and  C_25
REMARK                            x       y       z     vdW  Elec       q    Type
REMARK                         _______ _______ _______ _____ _____    ______ ____
ROOT
ATOM      1  C   UNL     1       0.705  -1.089  -3.587  0.00  0.00    +0.304 C 
ATOM      2  O   UNL     1       1.887  -1.363  -3.545  0.00  0.00    -0.265 OA
ATOM      3  N   UNL     1       0.023  -1.221  -4.742  0.00  0.00    -0.271 N 
ATOM      4  H   UNL     1      -0.921  -1.003  -4.775  0.00  0.00    +0.156 HD
ENDROOT
BRANCH   3   5
ATOM      5  C   UNL     1       0.671  -1.668  -5.881  0.00  0.00    +0.090 A 
ATOM      6  C   UNL     1       0.157  -1.864  -7.157  0.00  0.00    +0.084 A 
ATOM      7  C   UNL     1       1.060  -2.346  -8.187  0.00  0.00    -0.018 A 
ATOM      8  C   UNL     1       2.340  -2.563  -7.805  0.00  0.00    -0.004 A 
ATOM      9  S   UNL     1       2.382  -2.130  -6.087  0.00  0.00    -0.077 S 
ATOM     10  C   UNL     1       3.469  -3.056  -8.657  0.00  0.00    +0.043 C 
ATOM     11  C   UNL     1       2.881  -3.638  -9.951  0.00  0.00    +0.005 C 
ATOM     12  C   UNL     1       1.864  -2.644 -10.519  0.00  0.00    +0.005 C 
ATOM     13  C   UNL     1       0.624  -2.602  -9.626  0.00  0.00    +0.037 C 
BRANCH   6  14
ATOM     14  C   UNL     1      -1.221  -1.601  -7.447  0.00  0.00    +0.102 C 
ATOM     15  N   UNL     1      -2.313  -1.392  -7.677  0.00  0.00    -0.191 NA
ENDBRANCH   6  14
ENDBRANCH   3   5
BRANCH   1  17
ATOM     16  N   UNL     1       0.688  -0.476  -1.203  0.00  0.00    -0.301 N 
ATOM     17  C   UNL     1       0.006  -0.608  -2.358  0.00  0.00    +0.300 C 
ATOM     18  O   UNL     1      -1.176  -0.335  -2.400  0.00  0.00    -0.265 OA
ATOM     19  H   UNL     1       1.632  -0.695  -1.170  0.00  0.00    +0.150 HD
BRANCH  16  21
ATOM     20  C   UNL     1      -0.019   1.526   0.010  0.00  0.00    +0.033 C 
ATOM     21  C   UNL     1       0.002  -0.004   0.002  0.00  0.00    +0.101 C 
BRANCH  21  22
ATOM     22  C   UNL     1       0.731  -0.503   1.223  0.00  0.00    -0.027 A 
ATOM     23  C   UNL     1       2.113  -0.514   1.247  0.00  0.00    +0.005 A 
ATOM     24  C   UNL     1       2.782  -0.972   2.366  0.00  0.00    +0.000 A 
ATOM     25  C   UNL     1       2.068  -1.419   3.463  0.00  0.00    +0.000 A 
ATOM     26  C   UNL     1       0.686  -1.407   3.439  0.00  0.00    +0.000 A 
ATOM     27  C   UNL     1       0.017  -0.945   2.321  0.00  0.00    +0.005 A 
ENDBRANCH  21  22
ENDBRANCH  16  21
ENDBRANCH   1  17
TORSDOF 5
