REMARK  Name = ZINC12377534
REMARK  7 active torsions:
REMARK  status: ('A' for Active; 'I' for Inactive)
REMARK    1  A    between atoms: C_1  and  C_2
REMARK    2  A    between atoms: C_2  and  C_4
REMARK    3  A    between atoms: C_6  and  C_18
REMARK    4  A    between atoms: C_12  and  C_13
REMARK    5  A    between atoms: C_12  and  O_17
REMARK    6  A    between atoms: C_20  and  N_25
REMARK    7  A    between atoms: C_23  and  O_24
REMARK                            x       y       z     vdW  Elec       q    Type
REMARK                         _______ _______ _______ _____ _____    ______ ____
ROOT
ATOM      1  C   UNL     1      -2.682   6.021  -1.391  0.00  0.00    +0.139 C 
ATOM      2  C   UNL     1      -2.506   5.423   0.009  0.00  0.00    +0.123 C 
ATOM      3  N   UNL     1      -1.260   5.920   0.592  0.00  0.00    -0.292 N 
ATOM      4  C   UNL     1      -0.764   7.121   0.259  0.00  0.00    +0.302 C 
ATOM      5  O   UNL     1       0.270   7.492   0.781  0.00  0.00    -0.253 OA
ATOM      6  N   UNL     1      -1.364   7.930  -0.627  0.00  0.00    -0.264 N 
ATOM      7  C   UNL     1      -2.617   7.548  -1.280  0.00  0.00    +0.243 C 
ATOM      8  H   UNL     1      -0.710   5.306   1.320  0.00  0.00    +0.151 HD
ATOM      9  H   UNL     1      -0.895   8.898  -0.859  0.00  0.00    +0.153 HD
ENDROOT
BRANCH   2  10
ATOM     10  C   UNL     1      -2.452   3.920  -0.090  0.00  0.00    +0.017 A 
ATOM     11  C   UNL     1      -3.532   3.160   0.316  0.00  0.00    +0.041 A 
ATOM     12  C   UNL     1      -3.481   1.782   0.231  0.00  0.00    +0.127 A 
ATOM     13  C   UNL     1      -2.353   1.159  -0.271  0.00  0.00    +0.036 A 
ATOM     14  C   UNL     1      -1.272   1.914  -0.683  0.00  0.00    +0.048 A 
ATOM     15  C   UNL     1      -1.319   3.298  -0.594  0.00  0.00    +0.122 A 
BRANCH  12  16
ATOM     16  N   UNL     1      -4.638   0.970   0.673  0.00  0.00    +0.056 N 
ATOM     17  O   UNL     1      -4.595  -0.244   0.594  0.00  0.00    -0.126 OA
ATOM     18  O   UNL     1      -5.630   1.517   1.119  0.00  0.00    -0.126 OA
ENDBRANCH  12  16
BRANCH  15  19
ATOM     19  O   UNL     1      -0.257   4.043  -0.998  0.00  0.00    -0.506 OA
ATOM     20  H   UNL     1       0.641   3.549  -1.398  0.00  0.00    +0.292 HD
ENDBRANCH  15  19
ENDBRANCH   2  10
BRANCH   7  21
ATOM     21  C   UNL     1      -2.674   8.166  -2.679  0.00  0.00    +0.436 C 
ATOM     22  F   UNL     1      -1.593   7.704  -3.437  0.00  0.00    -0.166 F 
ATOM     23  F   UNL     1      -3.871   7.800  -3.302  0.00  0.00    -0.166 F 
ATOM     24  F   UNL     1      -2.608   9.560  -2.575  0.00  0.00    -0.166 F 
ENDBRANCH   7  21
BRANCH   1  26
ATOM     25  C   UNL     1      -4.145   5.259  -3.413  0.00  0.00    +0.086 C 
ATOM     26  C   UNL     1      -4.018   5.610  -1.954  0.00  0.00    +0.140 C 
ATOM     27  O   UNL     1      -4.987   5.561  -1.234  0.00  0.00    -0.297 OA
ENDBRANCH   1  26
BRANCH   7  28
ATOM     28  O   UNL     1      -3.722   8.018  -0.505  0.00  0.00    -0.364 OA
ATOM     29  H   UNL     1      -3.844   9.095  -0.317  0.00  0.00    +0.212 HD
ENDBRANCH   7  28
TORSDOF 6
