REMARK  Name = ZINC09358658
REMARK  14 active torsions:
REMARK  status: ('A' for Active; 'I' for Inactive)
REMARK    1  A    between atoms: C_1  and  N_69
REMARK    2  A    between atoms: C_2  and  N_69
REMARK    3  A    between atoms: C_3  and  C_4
REMARK    4  A    between atoms: C_3  and  N_69
REMARK    5  A    between atoms: C_4  and  C_5
REMARK    6  A    between atoms: C_5  and  N_6
REMARK    7  A    between atoms: C_7  and  C_30
REMARK    8  A    between atoms: C_10  and  C_11
REMARK    9  A    between atoms: C_10  and  O_25
REMARK   10  A    between atoms: C_14  and  O_17
REMARK   11  A    between atoms: O_17  and  C_18
REMARK   12  A    between atoms: C_18  and  C_19
REMARK   13  A    between atoms: C_35  and  O_36
REMARK   14  A    between atoms: O_36  and  C_37
REMARK                            x       y       z     vdW  Elec       q    Type
REMARK                         _______ _______ _______ _____ _____    ______ ____
ROOT
ATOM      1  N   UNL     1       2.480   0.754   0.608  0.00  0.00    -0.284 N 
ATOM      2  C   UNL     1       1.491   1.805   0.352  0.00  0.00    +0.148 C 
ATOM      3  C   UNL     1       0.131   1.153   0.457  0.00  0.00    +0.071 C 
ATOM      4  C   UNL     1      -1.097   1.762   0.285  0.00  0.00    +0.133 C 
ATOM      5  C   UNL     1       0.367  -0.197   0.757  0.00  0.00    +0.249 C 
ATOM      6  O   UNL     1      -0.484  -1.052   0.919  0.00  0.00    -0.282 OA
ATOM      7  C   UNL     1       1.839  -0.403   0.843  0.00  0.00    +0.288 C 
ATOM      8  O   UNL     1       2.380  -1.462   1.087  0.00  0.00    -0.266 OA
ENDROOT
BRANCH   4   9
ATOM      9  C   UNL     1      -2.324   0.952   0.273  0.00  0.00    +0.017 A 
ATOM     10  C   UNL     1      -2.420  -0.166  -0.564  0.00  0.00    +0.015 A 
ATOM     11  C   UNL     1      -3.568  -0.924  -0.568  0.00  0.00    +0.046 A 
ATOM     12  C   UNL     1      -4.638  -0.574   0.249  0.00  0.00    +0.121 A 
ATOM     13  C   UNL     1      -4.550   0.539   1.079  0.00  0.00    +0.046 A 
ATOM     14  C   UNL     1      -3.404   1.300   1.094  0.00  0.00    +0.015 A 
BRANCH  12  15
ATOM     15  O   UNL     1      -5.770  -1.321   0.238  0.00  0.00    -0.487 OA
BRANCH  15  16
ATOM     16  C   UNL     1      -5.793  -2.451  -0.636  0.00  0.00    +0.264 C 
BRANCH  16  17
ATOM     17  C   UNL     1      -7.121  -3.154  -0.514  0.00  0.00    -0.010 A 
ATOM     18  C   UNL     1      -7.284  -4.167   0.413  0.00  0.00    +0.007 A 
ATOM     19  C   UNL     1      -8.503  -4.808   0.529  0.00  0.00    +0.000 A 
ATOM     20  C   UNL     1      -9.556  -4.444  -0.290  0.00  0.00    +0.000 A 
ATOM     21  C   UNL     1      -9.391  -3.435  -1.221  0.00  0.00    +0.000 A 
ATOM     22  C   UNL     1      -8.174  -2.790  -1.333  0.00  0.00    +0.007 A 
ENDBRANCH  16  17
ENDBRANCH  15  16
ENDBRANCH  12  15
ENDBRANCH   4   9
BRANCH   2  23
ATOM     23  C   UNL     1       1.620   2.897   1.382  0.00  0.00    +0.019 A 
ATOM     24  C   UNL     1       1.567   4.222   0.995  0.00  0.00    +0.009 A 
ATOM     25  C   UNL     1       1.681   5.225   1.940  0.00  0.00    +0.001 A 
ATOM     26  C   UNL     1       1.857   4.905   3.273  0.00  0.00    +0.004 A 
ATOM     27  C   UNL     1       1.915   3.582   3.665  0.00  0.00    +0.046 A 
ATOM     28  C   UNL     1       1.796   2.573   2.719  0.00  0.00    +0.125 A 
BRANCH  28  29
ATOM     29  O   UNL     1       1.853   1.271   3.103  0.00  0.00    -0.495 OA
ATOM     30  C   UNL     1       2.037   1.012   4.496  0.00  0.00    +0.277 C 
ENDBRANCH  28  29
ENDBRANCH   2  23
BRANCH   4  31
ATOM     31  O   UNL     1      -1.170   3.101   0.128  0.00  0.00    -0.506 OA
ATOM     32  H   UNL     1      -2.126   3.372   0.018  0.00  0.00    +0.292 HD
ENDBRANCH   4  31
BRANCH   1  33
ATOM     33  C   UNL     1       3.934   0.936   0.609  0.00  0.00    +0.107 C 
BRANCH  33  34
ATOM     34  C   UNL     1       4.479   0.692  -0.800  0.00  0.00    +0.000 C 
BRANCH  34  35
ATOM     35  C   UNL     1       5.997   0.882  -0.799  0.00  0.00    -0.078 C 
BRANCH  35  38
ATOM     36  C   UNL     1       6.040   1.674  -3.087  0.00  0.00    -0.097 C 
ATOM     37  C   UNL     1       7.988   0.588  -2.145  0.00  0.00    -0.097 C 
ATOM     38  N   UNL     1       6.511   0.623  -2.161  0.00  0.00    +0.376 N 
ATOM     39  H   UNL     1       6.159  -0.287  -2.482  0.00  0.00    -0.083 HD
ENDBRANCH  35  38
ENDBRANCH  34  35
ENDBRANCH  33  34
ENDBRANCH   1  33
TORSDOF 11
