REMARK  Name = ZINC39915860
REMARK  9 active torsions:
REMARK  status: ('A' for Active; 'I' for Inactive)
REMARK    1  A    between atoms: C_8  and  S_18
REMARK    2  A    between atoms: N_9  and  C_10
REMARK    3  A    between atoms: C_10  and  C_11
REMARK    4  A    between atoms: S_18  and  C_19
REMARK    5  A    between atoms: C_21  and  O_34
REMARK    6  A    between atoms: C_23  and  O_33
REMARK    7  A    between atoms: C_25  and  O_32
REMARK    8  A    between atoms: C_27  and  C_30
REMARK    9  A    between atoms: C_30  and  O_31
REMARK                            x       y       z     vdW  Elec       q    Type
REMARK                         _______ _______ _______ _____ _____    ______ ____
ROOT
ATOM      1  C   UNL     1      -0.017   1.373   0.010  0.00  0.00    +0.002 A 
ATOM      2  C   UNL     1       1.169   2.093   0.002  0.00  0.00    +0.002 A 
ATOM      3  C   UNL     1       2.384   1.439  -0.013  0.00  0.00    +0.028 A 
ATOM      4  C   UNL     1       2.421   0.053  -0.021  0.00  0.00    +0.070 A 
ATOM      5  C   UNL     1       1.224  -0.681  -0.013  0.00  0.00    +0.090 A 
ATOM      6  C   UNL     1       0.002  -0.004   0.002  0.00  0.00    +0.030 A 
ATOM      7  N   UNL     1       1.561  -1.998  -0.024  0.00  0.00    -0.222 NA
ATOM      8  C   UNL     1       2.866  -2.117  -0.037  0.00  0.00    +0.173 A 
ATOM      9  N   UNL     1       3.446  -0.880  -0.036  0.00  0.00    -0.314 N 
ENDROOT
BRANCH   9  10
ATOM     10  C   UNL     1       4.882  -0.593  -0.050  0.00  0.00    +0.159 C 
BRANCH  10  11
ATOM     11  C   UNL     1       5.389  -0.502   1.366  0.00  0.00    -0.028 A 
ATOM     12  C   UNL     1       5.382   0.713   2.026  0.00  0.00    +0.007 A 
ATOM     13  C   UNL     1       5.848   0.798   3.324  0.00  0.00    +0.020 A 
ATOM     14  C   UNL     1       6.320  -0.334   3.965  0.00  0.00    +0.041 A 
ATOM     15  C   UNL     1       6.327  -1.550   3.304  0.00  0.00    +0.020 A 
ATOM     16  C   UNL     1       5.857  -1.634   2.007  0.00  0.00    +0.007 A 
ATOM     17 CL   UNL     1       6.905  -0.229   5.596  0.00  0.00    -0.084 Cl
ENDBRANCH  10  11
ENDBRANCH   9  10
BRANCH   8  18
ATOM     18  S   UNL     1       3.743  -3.646  -0.054  0.00  0.00    -0.054 S 
BRANCH  18  19
ATOM     19  C   UNL     1       2.434  -4.902  -0.048  0.00  0.00    +0.214 C 
ATOM     20  C   UNL     1       3.053  -6.282   0.189  0.00  0.00    +0.185 C 
ATOM     21  C   UNL     1       1.950  -7.344   0.133  0.00  0.00    +0.177 C 
ATOM     22  C   UNL     1       1.236  -7.251  -1.219  0.00  0.00    +0.176 C 
ATOM     23  C   UNL     1       0.687  -5.834  -1.401  0.00  0.00    +0.176 C 
ATOM     24  O   UNL     1       1.760  -4.894  -1.308  0.00  0.00    -0.355 OA
BRANCH  22  25
ATOM     25  O   UNL     1       2.160  -7.546  -2.268  0.00  0.00    -0.386 OA
ATOM     26  H   UNL     1       2.550  -8.429  -2.212  0.00  0.00    +0.210 HD
ENDBRANCH  22  25
BRANCH  21  27
ATOM     27  O   UNL     1       2.528  -8.642   0.282  0.00  0.00    -0.386 OA
ATOM     28  H   UNL     1       3.002  -8.768   1.115  0.00  0.00    +0.210 HD
ENDBRANCH  21  27
BRANCH  20  29
ATOM     29  O   UNL     1       4.026  -6.549  -0.822  0.00  0.00    -0.386 OA
ATOM     30  H   UNL     1       4.753  -5.912  -0.847  0.00  0.00    +0.210 HD
ENDBRANCH  20  29
BRANCH  23  31
ATOM     31  C   UNL     1       0.024  -5.716  -2.775  0.00  0.00    +0.190 C 
BRANCH  31  32
ATOM     32  O   UNL     1      -0.589  -4.431  -2.900  0.00  0.00    -0.392 OA
ATOM     33  H   UNL     1      -1.029  -4.286  -3.748  0.00  0.00    +0.210 HD
ENDBRANCH  31  32
ENDBRANCH  23  31
ENDBRANCH  18  19
ENDBRANCH   8  18
TORSDOF 9
