REMARK  Name = ZINC40844854
REMARK  8 active torsions:
REMARK  status: ('A' for Active; 'I' for Inactive)
REMARK    1  A    between atoms: C_1  and  O_2
REMARK    2  A    between atoms: O_2  and  C_3
REMARK    3  A    between atoms: C_6  and  C_10
REMARK    4  A    between atoms: C_7  and  O_9
REMARK    5  A    between atoms: N_11  and  N_12
REMARK    6  A    between atoms: C_13  and  C_15
REMARK    7  A    between atoms: C_15  and  O_16
REMARK    8  A    between atoms: O_16  and  C_17
REMARK                            x       y       z     vdW  Elec       q    Type
REMARK                         _______ _______ _______ _____ _____    ______ ____
ROOT
ATOM      1  N   UNL     1       2.060  -4.556  -3.378  0.00  0.00    -0.204 N 
ATOM      2  C   UNL     1       2.112  -5.900  -3.457  0.00  0.00    +0.270 C 
ATOM      3  O   UNL     1       2.652  -6.432  -4.404  0.00  0.00    -0.270 OA
ATOM      4  H   UNL     1       1.628  -4.131  -2.621  0.00  0.00    +0.177 HD
ENDROOT
BRANCH   1   6
ATOM      5  C   UNL     1       2.480  -2.483  -4.375  0.00  0.00    +0.142 C 
ATOM      6  N   UNL     1       2.630  -3.772  -4.390  0.00  0.00    -0.188 NA
BRANCH   5  10
ATOM      7  C   UNL     1      -0.239  -0.693  -1.646  0.00  0.00    +0.124 A 
ATOM      8  C   UNL     1      -0.451  -1.994  -2.087  0.00  0.00    +0.046 A 
ATOM      9  C   UNL     1       0.428  -2.579  -2.972  0.00  0.00    +0.016 A 
ATOM     10  C   UNL     1       1.537  -1.862  -3.429  0.00  0.00    +0.036 A 
ATOM     11  C   UNL     1       1.749  -0.550  -2.982  0.00  0.00    +0.129 A 
ATOM     12  C   UNL     1       0.856   0.028  -2.097  0.00  0.00    +0.091 A 
BRANCH   7  14
ATOM     13  C   UNL     1      -2.218  -0.923  -0.348  0.00  0.00    +0.277 C 
ATOM     14  O   UNL     1      -1.111  -0.124  -0.773  0.00  0.00    -0.495 OA
ENDBRANCH   7  14
BRANCH  11  15
ATOM     15  O   UNL     1       2.825   0.154  -3.421  0.00  0.00    -0.506 OA
ATOM     16  H   UNL     1       2.640   0.724  -4.179  0.00  0.00    +0.292 HD
ENDBRANCH  11  15
ENDBRANCH   5  10
ENDBRANCH   1   6
BRANCH   2  17
ATOM     17  C   UNL     1       1.499  -6.743  -2.368  0.00  0.00    +0.326 C 
BRANCH  17  18
ATOM     18  O   UNL     1       1.682  -8.126  -2.677  0.00  0.00    -0.483 OA
BRANCH  18  19
ATOM     19  C   UNL     1       1.184  -9.027  -1.789  0.00  0.00    +0.121 A 
ATOM     20  C   UNL     1       0.528  -8.589  -0.648  0.00  0.00    +0.047 A 
ATOM     21  C   UNL     1       0.022  -9.507   0.252  0.00  0.00    +0.019 A 
ATOM     22  C   UNL     1       0.170 -10.862   0.017  0.00  0.00    +0.018 A 
ATOM     23  C   UNL     1       0.825 -11.301  -1.120  0.00  0.00    +0.019 A 
ATOM     24  C   UNL     1       1.326 -10.387  -2.026  0.00  0.00    +0.047 A 
ATOM     25 BR   UNL     1      -0.523 -12.116   1.251  0.00  0.00    -0.050 Br
ENDBRANCH  18  19
ENDBRANCH  17  18
ENDBRANCH   2  17
TORSDOF 7
