REMARK  Name = ZINC51646487
REMARK  11 active torsions:
REMARK  status: ('A' for Active; 'I' for Inactive)
REMARK    1  A    between atoms: C_1  and  C_2
REMARK    2  A    between atoms: C_4  and  C_20
REMARK    3  A    between atoms: C_7  and  N_8
REMARK    4  A    between atoms: N_11  and  C_12
REMARK    5  A    between atoms: C_12  and  C_13
REMARK    6  A    between atoms: C_12  and  C_14
REMARK    7  A    between atoms: C_14  and  C_15
REMARK    8  A    between atoms: N_22  and  C_23
REMARK    9  A    between atoms: C_23  and  C_24
REMARK   10  A    between atoms: C_24  and  C_25
REMARK   11  A    between atoms: C_24  and  C_26
REMARK                            x       y       z     vdW  Elec       q    Type
REMARK                         _______ _______ _______ _____ _____    ______ ____
ROOT
ATOM      1  C   UNL     1      -0.013   1.493   0.004  0.00  0.00    +0.045 C 
ATOM      2  C   UNL     1       0.013  -0.014   0.002  0.00  0.00    -0.028 A 
ATOM      3  C   UNL     1       0.025  -0.699  -1.192  0.00  0.00    +0.018 A 
ATOM      4  C   UNL     1       0.049  -2.096  -1.193  0.00  0.00    +0.037 A 
ATOM      5  C   UNL     1       0.061  -2.793   0.019  0.00  0.00    +0.015 A 
ATOM      6  C   UNL     1       0.049  -2.101   1.208  0.00  0.00    +0.024 A 
ATOM      7  C   UNL     1       0.031  -0.710   1.206  0.00  0.00    +0.038 A 
ENDROOT
BRANCH   7   8
ATOM      8  N   UNL     1       0.025  -0.012   2.413  0.00  0.00    -0.269 N 
ATOM      9  C   UNL     1      -0.632  -0.513   3.478  0.00  0.00    +0.304 C 
ATOM     10  O   UNL     1      -1.150  -1.611   3.411  0.00  0.00    -0.253 OA
ATOM     11  N   UNL     1      -0.716   0.203   4.617  0.00  0.00    -0.296 N 
ATOM     12  H   UNL     1       0.494   0.834   2.487  0.00  0.00    +0.156 HD
ATOM     13  H   UNL     1      -0.302   1.079   4.670  0.00  0.00    +0.151 HD
BRANCH  11  14
ATOM     14  C   UNL     1      -1.430  -0.342   5.774  0.00  0.00    +0.079 C 
ATOM     15  C   UNL     1      -2.923  -0.033   5.643  0.00  0.00    +0.028 C 
BRANCH  14  16
ATOM     16  C   UNL     1      -0.887   0.296   7.054  0.00  0.00    +0.096 C 
BRANCH  16  17
ATOM     17  C   UNL     1       0.551  -0.110   7.247  0.00  0.00    +0.107 A 
ATOM     18  C   UNL     1       1.625   0.554   6.781  0.00  0.00    +0.045 A 
ATOM     19  C   UNL     1       2.766  -0.175   7.190  0.00  0.00    +0.041 A 
ATOM     20  C   UNL     1       2.321  -1.239   7.881  0.00  0.00    +0.195 A 
ATOM     21  O   UNL     1       0.979  -1.192   7.918  0.00  0.00    -0.468 OA
ENDBRANCH  16  17
ENDBRANCH  14  16
ENDBRANCH  11  14
ENDBRANCH   7   8
BRANCH   4  22
ATOM     22  C   UNL     1       0.060  -2.835  -2.471  0.00  0.00    +0.244 C 
ATOM     23  O   UNL     1       0.049  -2.227  -3.524  0.00  0.00    -0.270 OA
ATOM     24  N   UNL     1       0.084  -4.182  -2.470  0.00  0.00    -0.311 N 
ATOM     25  H   UNL     1       0.092  -4.667  -1.630  0.00  0.00    +0.149 HD
BRANCH  24  26
ATOM     26  C   UNL     1       0.096  -4.915  -3.739  0.00  0.00    +0.107 C 
BRANCH  26  27
ATOM     27  C   UNL     1       0.121  -6.419  -3.459  0.00  0.00    -0.000 C 
ATOM     28  C   UNL     1       0.008  -7.186  -4.778  0.00  0.00    +0.009 C 
ATOM     29  C   UNL     1       1.436  -6.786  -2.767  0.00  0.00    +0.009 C 
ENDBRANCH  26  27
ENDBRANCH  24  26
ENDBRANCH   4  22
TORSDOF 7
