REMARK  Name = ZINC02354313
REMARK  5 active torsions:
REMARK  status: ('A' for Active; 'I' for Inactive)
REMARK    1  A    between atoms: C_1  and  O_2
REMARK    2  A    between atoms: O_2  and  C_3
REMARK    3  A    between atoms: C_3  and  C_4
REMARK    4  A    between atoms: C_4  and  N_5
REMARK    5  A    between atoms: C_20  and  C_21
REMARK                            x       y       z     vdW  Elec       q    Type
REMARK                         _______ _______ _______ _____ _____    ______ ____
ROOT
ATOM      1  N   UNL     1      -0.945   3.635   0.131  0.00  0.00    -0.289 N 
ATOM      2  C   UNL     1      -1.995   4.471   0.301  0.00  0.00    +0.269 A 
ATOM      3  O   UNL     1      -1.823   5.652   0.542  0.00  0.00    -0.267 OA
ATOM      4  C   UNL     1      -3.300   3.933   0.191  0.00  0.00    +0.148 A 
ATOM      5  C   UNL     1      -4.488   4.772   0.361  0.00  0.00    +0.207 A 
ATOM      6  O   UNL     1      -4.400   5.963   0.605  0.00  0.00    -0.286 OA
ATOM      7  C   UNL     1      -5.800   4.102   0.223  0.00  0.00    +0.066 A 
ATOM      8  C   UNL     1      -6.987   4.818   0.367  0.00  0.00    +0.030 A 
ATOM      9  C   UNL     1      -8.195   4.167   0.234  0.00  0.00    +0.019 A 
ATOM     10  C   UNL     1      -8.227   2.808  -0.045  0.00  0.00    +0.019 A 
ATOM     11  C   UNL     1      -7.059   2.092  -0.189  0.00  0.00    +0.048 A 
ATOM     12  C   UNL     1      -5.829   2.729  -0.058  0.00  0.00    +0.141 A 
ATOM     13  O   UNL     1      -4.687   2.024  -0.201  0.00  0.00    -0.436 OA
ATOM     14  C   UNL     1      -3.463   2.565  -0.089  0.00  0.00    +0.239 A 
ATOM     15  N   UNL     1      -2.377   1.807  -0.249  0.00  0.00    -0.193 NA
ATOM     16  C   UNL     1      -1.161   2.313  -0.140  0.00  0.00    +0.154 A 
ATOM     17 BR   UNL     1      -9.812   5.129   0.429  0.00  0.00    -0.050 Br
ENDROOT
BRANCH  16  18
ATOM     18  C   UNL     1      -0.008   1.429  -0.320  0.00  0.00    +0.055 A 
ATOM     19  C   UNL     1       0.022   0.050  -0.470  0.00  0.00    +0.019 A 
ATOM     20  C   UNL     1       1.253  -0.534  -0.630  0.00  0.00    +0.008 A 
ATOM     21  C   UNL     1       2.364   0.250  -0.633  0.00  0.00    +0.046 A 
ATOM     22  S   UNL     1       1.724   1.846  -0.411  0.00  0.00    -0.094 S 
ENDBRANCH  16  18
BRANCH   1  23
ATOM     23  C   UNL     1       0.424   4.147   0.237  0.00  0.00    +0.155 C 
BRANCH  23  24
ATOM     24  C   UNL     1       0.927   4.549  -1.151  0.00  0.00    +0.181 C 
BRANCH  24  26
ATOM     25  C   UNL     1       0.540   6.099  -2.938  0.00  0.00    +0.194 C 
ATOM     26  O   UNL     1       0.150   5.644  -1.641  0.00  0.00    -0.381 OA
ENDBRANCH  24  26
ENDBRANCH  23  24
ENDBRANCH   1  23
TORSDOF 4
