REMARK  Name = ZINC35971664
REMARK  8 active torsions:
REMARK  status: ('A' for Active; 'I' for Inactive)
REMARK    1  A    between atoms: C_2  and  C_3
REMARK    2  A    between atoms: C_3  and  N_4
REMARK    3  A    between atoms: C_7  and  C_12
REMARK    4  A    between atoms: C_17  and  C_18
REMARK    5  A    between atoms: N_24  and  C_26
REMARK    6  A    between atoms: C_26  and  C_28
REMARK    7  A    between atoms: C_26  and  C_34
REMARK    8  A    between atoms: N_36  and  C_37
REMARK                            x       y       z     vdW  Elec       q    Type
REMARK                         _______ _______ _______ _____ _____    ______ ____
ROOT
ATOM      1  N   UNL     1      -1.075  -1.986  -1.166  0.00  0.00    -0.253 N 
ATOM      2  C   UNL     1      -1.547  -1.583  -2.383  0.00  0.00    +0.043 C 
ATOM      3  C   UNL     1      -1.644  -2.445  -3.415  0.00  0.00    +0.058 C 
ATOM      4  C   UNL     1      -1.210  -3.878  -3.180  0.00  0.00    +0.142 C 
ATOM      5  N   UNL     1      -0.716  -4.213  -1.834  0.00  0.00    -0.288 N 
ATOM      6  C   UNL     1      -0.673  -3.237  -0.905  0.00  0.00    +0.307 C 
ATOM      7  O   UNL     1      -0.262  -3.502   0.208  0.00  0.00    -0.252 OA
ATOM      8  C   UNL     1      -2.157  -1.791  -4.554  0.00  0.00    +0.247 C 
ATOM      9  O   UNL     1      -2.349  -2.329  -5.629  0.00  0.00    -0.270 OA
ATOM     10  N   UNL     1      -2.407  -0.494  -4.298  0.00  0.00    -0.277 N 
ATOM     11  C   UNL     1      -2.041  -0.249  -2.895  0.00  0.00    +0.160 C 
ATOM     12  H   UNL     1      -0.423  -5.113  -1.622  0.00  0.00    +0.151 HD
ENDROOT
BRANCH   4  13
ATOM     13  C   UNL     1      -2.385  -4.774  -3.478  0.00  0.00    -0.011 A 
ATOM     14  C   UNL     1      -3.469  -4.801  -2.621  0.00  0.00    +0.006 A 
ATOM     15  C   UNL     1      -4.546  -5.623  -2.895  0.00  0.00    +0.000 A 
ATOM     16  C   UNL     1      -4.540  -6.418  -4.026  0.00  0.00    +0.001 A 
ATOM     17  C   UNL     1      -3.456  -6.390  -4.884  0.00  0.00    +0.013 A 
ATOM     18  C   UNL     1      -2.381  -5.565  -4.612  0.00  0.00    +0.060 A 
BRANCH  18  19
ATOM     19  C   UNL     1      -1.201  -5.531  -5.550  0.00  0.00    +0.418 C 
ATOM     20  F   UNL     1      -1.463  -6.345  -6.657  0.00  0.00    -0.166 F 
ATOM     21  F   UNL     1      -0.984  -4.217  -5.978  0.00  0.00    -0.166 F 
ATOM     22  F   UNL     1      -0.063  -5.999  -4.885  0.00  0.00    -0.166 F 
ENDBRANCH  18  19
ENDBRANCH   4  13
BRANCH   1  23
ATOM     23  C   UNL     1      -0.997  -0.995  -0.091  0.00  0.00    +0.141 C 
BRANCH  23  25
ATOM     24  C   UNL     1       0.422   0.989  -0.205  0.00  0.00    +0.005 C 
ATOM     25  C   UNL     1       0.349  -0.317  -0.129  0.00  0.00    -0.015 C 
ENDBRANCH  23  25
ENDBRANCH   1  23
BRANCH  10  26
ATOM     26  C   UNL     1      -2.943   0.490  -5.240  0.00  0.00    +0.193 C 
BRANCH  26  27
ATOM     27  C   UNL     1      -4.341   0.094  -5.640  0.00  0.00    -0.018 A 
ATOM     28  C   UNL     1      -5.193  -0.469  -4.707  0.00  0.00    +0.006 A 
ATOM     29  C   UNL     1      -6.475  -0.832  -5.073  0.00  0.00    +0.000 A 
ATOM     30  C   UNL     1      -6.907  -0.632  -6.372  0.00  0.00    +0.000 A 
ATOM     31  C   UNL     1      -6.055  -0.069  -7.303  0.00  0.00    +0.000 A 
ATOM     32  C   UNL     1      -4.774   0.299  -6.936  0.00  0.00    +0.006 A 
ENDBRANCH  26  27
BRANCH  26  33
ATOM     33  C   UNL     1      -2.973   1.848  -4.587  0.00  0.00    +0.238 C 
ATOM     34  O   UNL     1      -2.585   1.980  -3.445  0.00  0.00    -0.273 OA
ATOM     35  N   UNL     1      -3.432   2.915  -5.270  0.00  0.00    -0.311 N 
ATOM     36  H   UNL     1      -3.742   2.810  -6.183  0.00  0.00    +0.149 HD
BRANCH  35  37
ATOM     37  C   UNL     1      -3.461   4.235  -4.635  0.00  0.00    +0.073 C 
ATOM     38  C   UNL     1      -4.715   5.088  -4.835  0.00  0.00    +0.024 C 
ATOM     39  C   UNL     1      -3.414   5.461  -5.549  0.00  0.00    +0.024 C 
ENDBRANCH  35  37
ENDBRANCH  26  33
ENDBRANCH  10  26
TORSDOF 8
