REMARK  Name = ZINC34907237
REMARK  7 active torsions:
REMARK  status: ('A' for Active; 'I' for Inactive)
REMARK    1  A    between atoms: C_1  and  C_2
REMARK    2  A    between atoms: C_2  and  C_3
REMARK    3  A    between atoms: C_2  and  N_4
REMARK    4  A    between atoms: C_16  and  N_19
REMARK    5  A    between atoms: N_19  and  S_20
REMARK    6  A    between atoms: S_20  and  C_23
REMARK    7  A    between atoms: C_23  and  C_24
REMARK                            x       y       z     vdW  Elec       q    Type
REMARK                         _______ _______ _______ _____ _____    ______ ____
ROOT
ATOM      1  N   UNL     1       0.798  -1.909  -1.875  0.00  0.00    -0.311 N 
ATOM      2  C   UNL     1       0.445  -1.153  -2.982  0.00  0.00    +0.068 A 
ATOM      3  C   UNL     1      -0.450  -1.335  -4.024  0.00  0.00    +0.028 A 
ATOM      4  C   UNL     1      -0.572  -0.369  -5.002  0.00  0.00    +0.002 A 
ATOM      5  C   UNL     1       0.197   0.784  -4.949  0.00  0.00    +0.002 A 
ATOM      6  C   UNL     1       1.091   0.981  -3.921  0.00  0.00    +0.028 A 
ATOM      7  C   UNL     1       1.226   0.013  -2.923  0.00  0.00    +0.065 A 
ATOM      8  N   UNL     1       2.001  -0.080  -1.811  0.00  0.00    -0.327 N 
ATOM      9  C   UNL     1       1.747  -1.206  -1.190  0.00  0.00    +0.177 A 
ATOM     10  N   UNL     1       2.350  -1.620  -0.022  0.00  0.00    -0.302 N 
ATOM     11  C   UNL     1       1.716  -1.366   1.279  0.00  0.00    +0.109 C 
ATOM     12  C   UNL     1       2.720  -0.648   2.186  0.00  0.00    +0.039 C 
ATOM     13  C   UNL     1       4.009  -1.470   2.264  0.00  0.00    +0.079 C 
ATOM     14  C   UNL     1       4.622  -1.595   0.868  0.00  0.00    +0.039 C 
ATOM     15  C   UNL     1       3.637  -2.329  -0.054  0.00  0.00    +0.109 C 
ATOM     16  H   UNL     1       2.642   0.587  -1.518  0.00  0.00    +0.169 HD
ENDROOT
BRANCH   1  18
ATOM     17  C   UNL     1      -1.261  -3.093  -1.289  0.00  0.00    +0.030 C 
ATOM     18  C   UNL     1       0.249  -3.216  -1.505  0.00  0.00    +0.084 C 
ATOM     19  C   UNL     1       0.524  -4.220  -2.626  0.00  0.00    +0.030 C 
ENDBRANCH   1  18
BRANCH  13  20
ATOM     20  N   UNL     1       4.960  -0.802   3.157  0.00  0.00    -0.191 NA
ATOM     21  H   UNL     1       4.997   0.167   3.189  0.00  0.00    +0.148 HD
BRANCH  20  22
ATOM     22  S   UNL     1       5.971  -1.702   4.112  0.00  0.00    +0.034 S 
ATOM     23  O   UNL     1       6.721  -0.745   4.848  0.00  0.00    -0.158 OA
ATOM     24  O   UNL     1       5.117  -2.622   4.778  0.00  0.00    -0.158 OA
BRANCH  22  25
ATOM     25  C   UNL     1       7.051  -2.580   2.948  0.00  0.00    +0.220 C 
BRANCH  25  26
ATOM     26  C   UNL     1       8.022  -3.439   3.716  0.00  0.00    -0.025 A 
ATOM     27  C   UNL     1       9.243  -2.921   4.107  0.00  0.00    +0.005 A 
ATOM     28  C   UNL     1      10.134  -3.709   4.811  0.00  0.00    +0.000 A 
ATOM     29  C   UNL     1       9.805  -5.014   5.124  0.00  0.00    +0.000 A 
ATOM     30  C   UNL     1       8.584  -5.532   4.734  0.00  0.00    +0.000 A 
ATOM     31  C   UNL     1       7.691  -4.743   4.034  0.00  0.00    +0.005 A 
ENDBRANCH  25  26
ENDBRANCH  22  25
ENDBRANCH  20  22
ENDBRANCH  13  20
TORSDOF 5
