REMARK  Name = ZINC59795085
REMARK  11 active torsions:
REMARK  status: ('A' for Active; 'I' for Inactive)
REMARK    1  A    between atoms: C_1  and  C_2
REMARK    2  A    between atoms: C_2  and  C_3
REMARK    3  A    between atoms: C_3  and  C_4
REMARK    4  A    between atoms: C_4  and  S_5
REMARK    5  A    between atoms: S_5  and  C_6
REMARK    6  A    between atoms: C_11  and  N_15
REMARK    7  A    between atoms: C_16  and  C_18
REMARK    8  A    between atoms: C_18  and  S_19
REMARK    9  A    between atoms: S_19  and  C_20
REMARK   10  A    between atoms: C_23  and  C_26
REMARK   11  A    between atoms: N_24  and  N_25
REMARK                            x       y       z     vdW  Elec       q    Type
REMARK                         _______ _______ _______ _____ _____    ______ ____
ROOT
ATOM      1  N   UNL     1      -2.308 -10.696  -0.032  0.00  0.00    -0.285 N 
ATOM      2  C   UNL     1      -1.227 -11.493  -0.144  0.00  0.00    +0.227 C 
ATOM      3  O   UNL     1      -0.115 -11.010  -0.146  0.00  0.00    -0.275 OA
ATOM      4  H   UNL     1      -3.193 -11.086   0.037  0.00  0.00    +0.155 HD
ENDROOT
BRANCH   1  10
ATOM      5  C   UNL     1      -0.509  -4.718   0.683  0.00  0.00    +0.136 A 
ATOM      6  N   UNL     1      -1.588  -5.177   0.089  0.00  0.00    -0.233 NA
ATOM      7  C   UNL     1      -1.862  -6.498   0.001  0.00  0.00    +0.080 A 
ATOM      8  C   UNL     1      -2.979  -7.117  -0.605  0.00  0.00    +0.031 A 
ATOM      9  C   UNL     1      -3.109  -8.481  -0.608  0.00  0.00    +0.025 A 
ATOM     10  C   UNL     1      -2.153  -9.303  -0.018  0.00  0.00    +0.035 A 
ATOM     11  C   UNL     1      -1.044  -8.726   0.587  0.00  0.00    +0.040 A 
ATOM     12  C   UNL     1      -0.910  -7.361   0.591  0.00  0.00    +0.042 A 
ATOM     13  S   UNL     1       0.300  -6.220   1.217  0.00  0.00    -0.061 S 
BRANCH   5  14
ATOM     14  S   UNL     1       0.011  -3.048   0.892  0.00  0.00    -0.099 S 
BRANCH  14  15
ATOM     15  C   UNL     1      -1.300  -2.077   0.101  0.00  0.00    +0.076 C 
BRANCH  15  16
ATOM     16  C   UNL     1      -0.970  -0.587   0.212  0.00  0.00    +0.011 C 
BRANCH  16  18
ATOM     17  C   UNL     1      -1.746   1.722  -0.344  0.00  0.00    +0.004 C 
ATOM     18  C   UNL     1      -2.076   0.232  -0.455  0.00  0.00    -0.003 C 
ENDBRANCH  16  18
ENDBRANCH  15  16
ENDBRANCH  14  15
ENDBRANCH   5  14
ENDBRANCH   1  10
BRANCH   2  19
ATOM     19  C   UNL     1      -1.401 -12.985  -0.266  0.00  0.00    +0.173 C 
BRANCH  19  20
ATOM     20  S   UNL     1       0.227 -13.774  -0.398  0.00  0.00    -0.075 S 
BRANCH  20  21
ATOM     21  C   UNL     1      -0.141 -15.492  -0.532  0.00  0.00    +0.209 A 
ATOM     22  N   UNL     1      -1.339 -16.035  -0.537  0.00  0.00    -0.121 NA
ATOM     23  N   UNL     1      -1.244 -17.311  -0.650  0.00  0.00    -0.127 NA
ATOM     24  C   UNL     1       0.018 -17.663  -0.724  0.00  0.00    +0.182 A 
ATOM     25  N   UNL     1       0.763 -16.508  -0.655  0.00  0.00    -0.224 N 
BRANCH  24  26
ATOM     26  C   UNL     1       0.541 -19.039  -0.860  0.00  0.00    +0.021 A 
ATOM     27  C   UNL     1       1.888 -19.305  -0.609  0.00  0.00    +0.013 A 
ATOM     28  C   UNL     1       2.370 -20.591  -0.737  0.00  0.00    +0.021 A 
ATOM     29  C   UNL     1       1.520 -21.617  -1.114  0.00  0.00    +0.041 A 
ATOM     30  C   UNL     1       0.183 -21.359  -1.365  0.00  0.00    +0.021 A 
ATOM     31  C   UNL     1      -0.312 -20.078  -1.234  0.00  0.00    +0.013 A 
ATOM     32 CL   UNL     1       2.134 -23.233  -1.274  0.00  0.00    -0.084 Cl
ENDBRANCH  24  26
BRANCH  25  33
ATOM     33  N   UNL     1       2.124 -16.400  -0.700  0.00  0.00    -0.295 N 
ATOM     34  H   UNL     1       2.522 -16.453   0.227  0.00  0.00    +0.163 HD
ATOM     35  H   UNL     1       2.523 -17.102  -1.305  0.00  0.00    +0.163 HD
ENDBRANCH  25  33
ENDBRANCH  20  21
ENDBRANCH  19  20
ENDBRANCH   2  19
TORSDOF 10
