REMARK  Name = ZINC08921684
REMARK  11 active torsions:
REMARK  status: ('A' for Active; 'I' for Inactive)
REMARK    1  A    between atoms: C_1  and  C_2
REMARK    2  A    between atoms: C_2  and  O_3
REMARK    3  A    between atoms: O_3  and  C_4
REMARK    4  A    between atoms: C_6  and  C_18
REMARK    5  A    between atoms: C_9  and  O_10
REMARK    6  A    between atoms: O_10  and  C_11
REMARK    7  A    between atoms: C_11  and  C_12
REMARK    8  A    between atoms: C_30  and  O_32
REMARK    9  A    between atoms: O_32  and  C_33
REMARK   10  A    between atoms: C_33  and  C_34
REMARK   11  A    between atoms: C_35  and  O_37
REMARK                            x       y       z     vdW  Elec       q    Type
REMARK                         _______ _______ _______ _____ _____    ______ ____
ROOT
ATOM      1  C   UNL     1      -0.229  -4.969   0.477  0.00  0.00    +0.224 C 
ATOM      2  N   UNL     1      -0.620  -6.230  -0.178  0.00  0.00    -0.313 N 
ATOM      3  C   UNL     1      -1.854  -6.242  -0.789  0.00  0.00    +0.080 A 
ATOM      4  C   UNL     1      -2.884  -5.380  -0.395  0.00  0.00    +0.068 A 
ATOM      5  C   UNL     1      -4.125  -5.499  -1.140  0.00  0.00    -0.020 A 
ATOM      6  C   UNL     1      -4.104  -6.440  -2.112  0.00  0.00    +0.013 A 
ATOM      7  S   UNL     1      -2.481  -7.144  -2.031  0.00  0.00    -0.076 S 
ATOM      8  C   UNL     1      -5.223  -6.789  -3.045  0.00  0.00    +0.153 C 
ATOM      9  N   UNL     1      -6.429  -6.090  -2.559  0.00  0.00    -0.262 N 
ATOM     10  C   UNL     1      -6.273  -4.699  -2.106  0.00  0.00    +0.116 C 
ATOM     11  C   UNL     1      -5.366  -4.659  -0.874  0.00  0.00    +0.056 C 
ATOM     12  C   UNL     1      -7.629  -6.703  -2.531  0.00  0.00    +0.403 C 
ATOM     13  O   UNL     1      -8.607  -6.106  -2.126  0.00  0.00    -0.226 OA
ATOM     14  C   UNL     1      -2.607  -4.453   0.732  0.00  0.00    +0.220 C 
ATOM     15  N   UNL     1      -1.368  -4.321   1.116  0.00  0.00    -0.223 NA
ATOM     16  H   UNL     1      -0.040  -7.008  -0.179  0.00  0.00    +0.149 HD
ENDROOT
BRANCH   1  19
ATOM     17  C   UNL     1       0.777  -1.811  -1.336  0.00  0.00    +0.162 A 
ATOM     18  C   UNL     1       0.243  -2.669  -0.388  0.00  0.00    +0.056 A 
ATOM     19  C   UNL     1       0.352  -4.037  -0.555  0.00  0.00    -0.002 A 
ATOM     20  C   UNL     1       0.992  -4.552  -1.667  0.00  0.00    +0.011 A 
ATOM     21  C   UNL     1       1.526  -3.702  -2.616  0.00  0.00    +0.050 A 
ATOM     22  C   UNL     1       1.416  -2.330  -2.458  0.00  0.00    +0.162 A 
BRANCH  17  23
ATOM     23  O   UNL     1       0.671  -0.465  -1.174  0.00  0.00    -0.489 OA
BRANCH  23  25
ATOM     24  C   UNL     1      -0.019   1.526   0.010  0.00  0.00    +0.048 C 
ATOM     25  C   UNL     1       0.002  -0.004   0.002  0.00  0.00    +0.226 C 
ENDBRANCH  23  25
ENDBRANCH  17  23
BRANCH  22  26
ATOM     26  O   UNL     1       1.936  -1.492  -3.394  0.00  0.00    -0.484 OA
BRANCH  26  27
ATOM     27  C   UNL     1       2.578  -2.095  -4.520  0.00  0.00    +0.264 C 
BRANCH  27  28
ATOM     28  C   UNL     1       3.088  -1.019  -5.443  0.00  0.00    -0.010 A 
ATOM     29  C   UNL     1       2.278  -0.532  -6.452  0.00  0.00    +0.007 A 
ATOM     30  C   UNL     1       2.746   0.455  -7.299  0.00  0.00    +0.000 A 
ATOM     31  C   UNL     1       4.024   0.956  -7.137  0.00  0.00    +0.000 A 
ATOM     32  C   UNL     1       4.835   0.470  -6.128  0.00  0.00    +0.000 A 
ATOM     33  C   UNL     1       4.365  -0.514  -5.278  0.00  0.00    +0.007 A 
ENDBRANCH  27  28
ENDBRANCH  26  27
ENDBRANCH  22  26
ENDBRANCH   1  19
BRANCH  14  34
ATOM     34  O   UNL     1      -3.606  -3.770   1.339  0.00  0.00    -0.492 OA
ATOM     35  H   UNL     1      -3.309  -3.197   2.059  0.00  0.00    +0.294 HD
ENDBRANCH  14  34
BRANCH  12  36
ATOM     36  O   UNL     1      -7.744  -7.976  -2.952  0.00  0.00    -0.451 OA
BRANCH  36  37
ATOM     37  C   UNL     1      -9.046  -8.563  -2.895  0.00  0.00    +0.230 C 
ATOM     38  C   UNL     1      -8.979 -10.002  -3.410  0.00  0.00    +0.048 C 
ENDBRANCH  36  37
ENDBRANCH  12  36
TORSDOF 9
