REMARK  Name = ZINC36549081
REMARK  14 active torsions:
REMARK  status: ('A' for Active; 'I' for Inactive)
REMARK    1  A    between atoms: C_1  and  C_2
REMARK    2  A    between atoms: C_2  and  C_3
REMARK    3  A    between atoms: C_3  and  C_4
REMARK    4  A    between atoms: C_4  and  N_5
REMARK    5  A    between atoms: C_6  and  C_8
REMARK    6  A    between atoms: C_8  and  C_10
REMARK    7  A    between atoms: C_8  and  N_19
REMARK    8  A    between atoms: C_11  and  O_18
REMARK    9  A    between atoms: C_13  and  O_17
REMARK   10  A    between atoms: C_15  and  O_16
REMARK   11  A    between atoms: N_19  and  C_20
REMARK   12  A    between atoms: C_27  and  C_29
REMARK   13  A    between atoms: C_29  and  O_30
REMARK   14  A    between atoms: O_30  and  C_31
REMARK                            x       y       z     vdW  Elec       q    Type
REMARK                         _______ _______ _______ _____ _____    ______ ____
ROOT
ATOM      1  C   UNL     1       2.293  -4.472  -3.718  0.00  0.00    +0.204 C 
ENDROOT
BRANCH   1   2
ATOM      2  C   UNL     1       3.177  -4.002  -2.591  0.00  0.00    +0.065 A 
ATOM      3  C   UNL     1       3.045  -4.559  -1.328  0.00  0.00    +0.129 A 
ATOM      4  C   UNL     1       3.858  -4.127  -0.291  0.00  0.00    +0.091 A 
ATOM      5  C   UNL     1       4.804  -3.137  -0.518  0.00  0.00    +0.124 A 
ATOM      6  C   UNL     1       4.936  -2.581  -1.782  0.00  0.00    +0.091 A 
ATOM      7  C   UNL     1       4.125  -3.016  -2.819  0.00  0.00    +0.129 A 
BRANCH   7   8
ATOM      8  O   UNL     1       4.258  -2.474  -4.058  0.00  0.00    -0.506 OA
ATOM      9  H   UNL     1       3.702  -1.698  -4.209  0.00  0.00    +0.292 HD
ENDBRANCH   7   8
BRANCH   5  10
ATOM     10  O   UNL     1       5.600  -2.713   0.498  0.00  0.00    -0.507 OA
ATOM     11  H   UNL     1       6.427  -3.208   0.583  0.00  0.00    +0.292 HD
ENDBRANCH   5  10
BRANCH   3  12
ATOM     12  O   UNL     1       2.119  -5.529  -1.106  0.00  0.00    -0.506 OA
ATOM     13  H   UNL     1       2.432  -6.423  -1.298  0.00  0.00    +0.292 HD
ENDBRANCH   3  12
ENDBRANCH   1   2
BRANCH   1  15
ATOM     14  N   UNL     1       0.413  -3.492  -4.993  0.00  0.00    -0.313 N 
ATOM     15  C   UNL     1       1.100  -3.558  -3.835  0.00  0.00    +0.239 C 
ATOM     16  O   UNL     1       0.758  -2.882  -2.888  0.00  0.00    -0.273 OA
ATOM     17  H   UNL     1       0.687  -4.032  -5.751  0.00  0.00    +0.149 HD
BRANCH  14  18
ATOM     18  C   UNL     1      -0.746  -2.603  -5.107  0.00  0.00    +0.104 C 
BRANCH  18  19
ATOM     19  C   UNL     1      -1.339  -2.717  -6.513  0.00  0.00    +0.018 C 
BRANCH  19  21
ATOM     20  C   UNL     1      -3.143  -1.903  -8.038  0.00  0.00    +0.004 C 
ATOM     21  C   UNL     1      -2.550  -1.789  -6.632  0.00  0.00    -0.002 C 
ENDBRANCH  19  21
ENDBRANCH  18  19
ENDBRANCH  14  18
ENDBRANCH   1  15
BRANCH   1  22
ATOM     22  N   UNL     1       1.837  -5.837  -3.444  0.00  0.00    -0.252 N 
ATOM     23  C   UNL     1       0.813  -6.047  -2.593  0.00  0.00    +0.247 C 
ATOM     24  O   UNL     1       0.444  -7.178  -2.356  0.00  0.00    -0.273 OA
BRANCH  22  25
ATOM     25  C   UNL     1       2.465  -6.923  -4.066  0.00  0.00    +0.056 A 
ATOM     26  C   UNL     1       3.488  -7.600  -3.416  0.00  0.00    +0.025 A 
ATOM     27  C   UNL     1       4.106  -8.670  -4.032  0.00  0.00    +0.002 A 
ATOM     28  C   UNL     1       3.706  -9.069  -5.295  0.00  0.00    +0.002 A 
ATOM     29  C   UNL     1       2.688  -8.397  -5.945  0.00  0.00    +0.022 A 
ATOM     30  C   UNL     1       2.061  -7.329  -5.332  0.00  0.00    +0.062 A 
ATOM     31 CL   UNL     1       0.777  -6.490  -6.145  0.00  0.00    -0.082 Cl
ENDBRANCH  22  25
BRANCH  23  32
ATOM     32  C   UNL     1       0.126  -4.878  -1.937  0.00  0.00    +0.255 C 
BRANCH  32  33
ATOM     33  O   UNL     1      -0.801  -5.356  -0.961  0.00  0.00    -0.374 OA
ATOM     34  C   UNL     1      -1.510  -4.322  -0.276  0.00  0.00    +0.194 C 
ENDBRANCH  32  33
ENDBRANCH  23  32
ENDBRANCH   1  22
TORSDOF 12
