REMARK  Name = ZINC40370657
REMARK  7 active torsions:
REMARK  status: ('A' for Active; 'I' for Inactive)
REMARK    1  A    between atoms: C_1  and  C_2
REMARK    2  A    between atoms: C_2  and  C_3
REMARK    3  A    between atoms: C_3  and  C_4
REMARK    4  A    between atoms: C_4  and  C_6
REMARK    5  A    between atoms: C_4  and  N_10
REMARK    6  A    between atoms: N_7  and  O_8
REMARK    7  A    between atoms: C_11  and  C_13
REMARK                            x       y       z     vdW  Elec       q    Type
REMARK                         _______ _______ _______ _____ _____    ______ ____
ROOT
ATOM      1  N   UNL     1      -0.834  -2.537  -1.256  0.00  0.00    -0.301 N 
ATOM      2  C   UNL     1      -0.252  -3.751  -1.315  0.00  0.00    +0.251 C 
ATOM      3  O   UNL     1      -0.206  -4.454  -0.323  0.00  0.00    -0.270 OA
ATOM      4  H   UNL     1      -0.871  -1.977  -2.047  0.00  0.00    +0.150 HD
ENDROOT
BRANCH   2   5
ATOM      5  C   UNL     1       0.327  -4.225  -2.576  0.00  0.00    +0.074 A 
ATOM      6  C   UNL     1       0.957  -5.423  -2.850  0.00  0.00    +0.024 A 
ATOM      7  C   UNL     1       1.417  -5.612  -4.150  0.00  0.00    -0.036 A 
ATOM      8  C   UNL     1       1.202  -4.594  -5.024  0.00  0.00    -0.006 A 
ATOM      9  S   UNL     1       0.396  -3.409  -4.159  0.00  0.00    -0.088 S 
ATOM     10  C   UNL     1       1.594  -4.525  -6.470  0.00  0.00    +0.043 C 
ATOM     11  C   UNL     1       1.633  -5.940  -7.056  0.00  0.00    +0.005 C 
ATOM     12  C   UNL     1       3.033  -6.513  -6.854  0.00  0.00    +0.001 C 
ATOM     13  C   UNL     1       3.371  -6.590  -5.367  0.00  0.00    +0.005 C 
ATOM     14  C   UNL     1       2.121  -6.904  -4.552  0.00  0.00    +0.036 C 
ENDBRANCH   2   5
BRANCH   1  15
ATOM     15  C   UNL     1      -1.413  -2.063   0.004  0.00  0.00    +0.140 C 
BRANCH  15  16
ATOM     16  C   UNL     1      -2.820  -2.586   0.139  0.00  0.00    +0.152 C 
ATOM     17  N   UNL     1      -3.290  -3.408  -0.740  0.00  0.00    -0.075 NA
ATOM     18  N   UNL     1      -3.604  -2.187   1.198  0.00  0.00    -0.342 N 
ATOM     19  H   UNL     1      -3.251  -1.569   1.858  0.00  0.00    +0.144 HD
ATOM     20  H   UNL     1      -4.510  -2.523   1.285  0.00  0.00    +0.144 HD
BRANCH  17  21
ATOM     21  O   UNL     1      -4.613  -3.898  -0.613  0.00  0.00    -0.408 OA
ATOM     22  H   UNL     1      -4.875  -4.507  -1.317  0.00  0.00    +0.328 HD
ENDBRANCH  17  21
ENDBRANCH  15  16
BRANCH  15  23
ATOM     23  C   UNL     1      -1.433  -0.534   0.013  0.00  0.00    +0.030 C 
BRANCH  23  25
ATOM     24  C   UNL     1      -0.019   1.526   0.010  0.00  0.00    +0.004 C 
ATOM     25  C   UNL     1       0.002  -0.004   0.002  0.00  0.00    -0.001 C 
ENDBRANCH  23  25
ENDBRANCH  15  23
ENDBRANCH   1  15
TORSDOF 6
