REMARK  Name = ZINC15548534
REMARK  7 active torsions:
REMARK  status: ('A' for Active; 'I' for Inactive)
REMARK    1  A    between atoms: C_1  and  C_2
REMARK    2  A    between atoms: C_2  and  O_3
REMARK    3  A    between atoms: O_3  and  C_4
REMARK    4  A    between atoms: C_7  and  C_10
REMARK    5  A    between atoms: C_15  and  C_16
REMARK    6  A    between atoms: C_15  and  N_48
REMARK    7  A    between atoms: N_18  and  C_19
REMARK                            x       y       z     vdW  Elec       q    Type
REMARK                         _______ _______ _______ _____ _____    ______ ____
ROOT
ATOM      1  C   UNL     1       4.584   8.239  -0.183  0.00  0.00    -0.037 C 
ATOM      2  C   UNL     1       4.230   9.603  -0.814  0.00  0.00    -0.013 C 
ATOM      3  C   UNL     1       3.060   9.309  -1.774  0.00  0.00    -0.020 C 
ATOM      4  C   UNL     1       2.804   7.793  -1.643  0.00  0.00    -0.077 C 
ATOM      5  N   UNL     1       3.351   7.467  -0.321  0.00  0.00    +0.390 N 
ATOM      6  H   UNL     1       2.684   7.738   0.412  0.00  0.00    -0.080 HD
ENDROOT
BRANCH   1  10
ATOM      7  C   UNL     1       5.649   8.729   3.927  0.00  0.00    +0.121 A 
ATOM      8  C   UNL     1       6.633   8.493   2.977  0.00  0.00    +0.046 A 
ATOM      9  C   UNL     1       6.286   8.335   1.649  0.00  0.00    +0.005 A 
ATOM     10  C   UNL     1       4.959   8.412   1.266  0.00  0.00    -0.061 A 
ATOM     11  C   UNL     1       3.978   8.653   2.210  0.00  0.00    +0.005 A 
ATOM     12  C   UNL     1       4.319   8.807   3.540  0.00  0.00    +0.046 A 
BRANCH   7  13
ATOM     13  O   UNL     1       5.988   8.886   5.234  0.00  0.00    -0.492 OA
BRANCH  13  15
ATOM     14  C   UNL     1       5.494   9.274   7.567  0.00  0.00    +0.048 C 
ATOM     15  C   UNL     1       4.923   9.126   6.156  0.00  0.00    +0.225 C 
ENDBRANCH  13  15
ENDBRANCH   7  13
ENDBRANCH   1  10
BRANCH   5  16
ATOM     16  C   UNL     1       3.628   6.000  -0.216  0.00  0.00    +0.020 C 
BRANCH  16  17
ATOM     17  C   UNL     1       2.336   5.234  -0.094  0.00  0.00    +0.201 C 
ATOM     18  O   UNL     1       1.278   5.827  -0.082  0.00  0.00    -0.278 OA
ATOM     19  N   UNL     1       2.356   3.890   0.001  0.00  0.00    -0.286 N 
ATOM     20  H   UNL     1       3.203   3.420   0.057  0.00  0.00    +0.155 HD
BRANCH  19  21
ATOM     21  C   UNL     1       1.155   3.172   0.018  0.00  0.00    +0.047 A 
ATOM     22  C   UNL     1       0.033   3.708   0.636  0.00  0.00    +0.024 A 
ATOM     23  C   UNL     1      -1.151   2.996   0.652  0.00  0.00    +0.002 A 
ATOM     24  C   UNL     1      -1.222   1.754   0.049  0.00  0.00    +0.001 A 
ATOM     25  C   UNL     1      -0.105   1.215  -0.564  0.00  0.00    +0.016 A 
ATOM     26  C   UNL     1       1.082   1.922  -0.583  0.00  0.00    +0.035 A 
ATOM     27  I   UNL     1       2.772   1.108  -1.517  0.00  0.00    -0.042 I 
ENDBRANCH  19  21
ENDBRANCH  16  17
ENDBRANCH   5  16
TORSDOF 6
