REMARK  Name = ZINC40322032
REMARK  11 active torsions:
REMARK  status: ('A' for Active; 'I' for Inactive)
REMARK    1  A    between atoms: C_1  and  C_2
REMARK    2  A    between atoms: C_2  and  N_3
REMARK    3  A    between atoms: N_3  and  C_4
REMARK    4  A    between atoms: N_3  and  C_6
REMARK    5  A    between atoms: C_4  and  C_5
REMARK    6  A    between atoms: C_6  and  C_8
REMARK    7  A    between atoms: C_6  and  C_27
REMARK    8  A    between atoms: C_8  and  N_9
REMARK    9  A    between atoms: C_10  and  C_12
REMARK   10  A    between atoms: C_15  and  S_17
REMARK   11  A    between atoms: S_17  and  C_20
REMARK                            x       y       z     vdW  Elec       q    Type
REMARK                         _______ _______ _______ _____ _____    ______ ____
ROOT
ATOM      1  N   UNL     1      -1.677   0.880  -0.718  0.00  0.00    -0.310 N 
ATOM      2  C   UNL     1      -2.203   1.816  -1.533  0.00  0.00    +0.279 C 
ATOM      3  O   UNL     1      -3.407   1.868  -1.703  0.00  0.00    -0.267 OA
ATOM      4  H   UNL     1      -0.727   0.883  -0.526  0.00  0.00    +0.149 HD
ENDROOT
BRANCH   2   5
ATOM      5  C   UNL     1      -1.325   2.771  -2.216  0.00  0.00    +0.192 A 
ATOM      6  C   UNL     1      -1.728   3.824  -2.986  0.00  0.00    +0.056 A 
ATOM      7  C   UNL     1      -0.563   4.464  -3.437  0.00  0.00    +0.070 A 
ATOM      8  C   UNL     1       0.487   3.783  -2.929  0.00  0.00    +0.246 A 
ATOM      9  O   UNL     1       0.024   2.766  -2.190  0.00  0.00    -0.433 OA
BRANCH   8  10
ATOM     10  S   UNL     1       2.186   4.171  -3.191  0.00  0.00    +0.058 S 
ATOM     11  O   UNL     1       2.913   2.967  -2.988  0.00  0.00    -0.161 OA
ATOM     12  O   UNL     1       2.252   4.906  -4.405  0.00  0.00    -0.161 OA
BRANCH  10  13
ATOM     13  C   UNL     1       2.672   5.275  -1.906  0.00  0.00    +0.097 A 
ATOM     14  C   UNL     1       2.539   6.640  -2.082  0.00  0.00    +0.029 A 
ATOM     15  C   UNL     1       2.920   7.507  -1.075  0.00  0.00    +0.022 A 
ATOM     16  C   UNL     1       3.434   7.008   0.109  0.00  0.00    +0.041 A 
ATOM     17  C   UNL     1       3.567   5.642   0.284  0.00  0.00    +0.022 A 
ATOM     18  C   UNL     1       3.180   4.776  -0.722  0.00  0.00    +0.029 A 
ATOM     19 CL   UNL     1       3.913   8.096   1.374  0.00  0.00    -0.084 Cl
ENDBRANCH  10  13
ENDBRANCH   8  10
ENDBRANCH   2   5
BRANCH   1  20
ATOM     20  C   UNL     1      -2.542  -0.141  -0.121  0.00  0.00    +0.094 C 
BRANCH  20  21
ATOM     21  C   UNL     1      -1.726  -0.995   0.852  0.00  0.00    -0.020 C 
BRANCH  21  22
ATOM     22  C   UNL     1      -2.572  -2.141   1.345  0.00  0.00    -0.059 A 
ATOM     23  C   UNL     1      -3.624  -2.603   0.577  0.00  0.00    +0.003 A 
ATOM     24  C   UNL     1      -4.400  -3.654   1.029  0.00  0.00    +0.020 A 
ATOM     25  C   UNL     1      -4.123  -4.243   2.250  0.00  0.00    +0.041 A 
ATOM     26  C   UNL     1      -3.070  -3.780   3.018  0.00  0.00    +0.020 A 
ATOM     27  C   UNL     1      -2.291  -2.732   2.562  0.00  0.00    +0.003 A 
ATOM     28 CL   UNL     1      -5.097  -5.563   2.818  0.00  0.00    -0.084 Cl
ENDBRANCH  21  22
BRANCH  21  29
ATOM     29  N   UNL     1      -0.540  -1.522   0.164  0.00  0.00    +0.385 N 
ATOM     30  H   UNL     1      -0.016  -0.758  -0.236  0.00  0.00    -0.081 HD
BRANCH  29  32
ATOM     31  C   UNL     1       0.857  -1.256   2.158  0.00  0.00    -0.017 C 
ATOM     32  C   UNL     1       0.304  -2.242   1.127  0.00  0.00    -0.081 C 
ENDBRANCH  29  32
BRANCH  29  33
ATOM     33  C   UNL     1      -0.960  -2.441  -0.902  0.00  0.00    -0.081 C 
ATOM     34  C   UNL     1      -1.181  -1.654  -2.195  0.00  0.00    -0.017 C 
ENDBRANCH  29  33
ENDBRANCH  21  29
ENDBRANCH  20  21
ENDBRANCH   1  20
TORSDOF 9
