REMARK  Name = ZINC39326861
REMARK  9 active torsions:
REMARK  status: ('A' for Active; 'I' for Inactive)
REMARK    1  A    between atoms: C_1  and  C_2
REMARK    2  A    between atoms: C_2  and  O_3
REMARK    3  A    between atoms: O_3  and  C_4
REMARK    4  A    between atoms: C_4  and  C_6
REMARK    5  A    between atoms: C_7  and  C_24
REMARK    6  A    between atoms: C_10  and  C_21
REMARK    7  A    between atoms: C_11  and  C_13
REMARK    8  A    between atoms: C_16  and  O_19
REMARK    9  A    between atoms: O_19  and  C_20
REMARK                            x       y       z     vdW  Elec       q    Type
REMARK                         _______ _______ _______ _____ _____    ______ ____
ROOT
ATOM      1  C   UNL     1      -2.797  -2.420   0.179  0.00  0.00    +0.066 C 
ATOM      2  C   UNL     1      -2.936  -3.729  -0.087  0.00  0.00    +0.016 C 
ATOM      3  N   UNL     1      -4.174  -4.286  -0.256  0.00  0.00    -0.311 N 
ATOM      4  C   UNL     1      -5.263  -3.486  -0.518  0.00  0.00    +0.091 C 
ATOM      5  C   UNL     1      -5.215  -2.150  -0.265  0.00  0.00    +0.070 C 
ATOM      6  C   UNL     1      -3.985  -1.511   0.318  0.00  0.00    +0.100 C 
ATOM      7  S   UNL     1      -6.730  -4.197  -1.185  0.00  0.00    -0.034 SA
ATOM      8  C   UNL     1      -1.710  -4.598  -0.201  0.00  0.00    +0.061 C 
ATOM      9  H   UNL     1      -4.284  -5.248  -0.192  0.00  0.00    +0.152 HD
ENDROOT
BRANCH   6  10
ATOM     10  C   UNL     1      -4.217  -1.218   1.778  0.00  0.00    -0.034 A 
ATOM     11  C   UNL     1      -4.472  -2.253   2.658  0.00  0.00    +0.008 A 
ATOM     12  C   UNL     1      -4.686  -1.987   3.996  0.00  0.00    +0.046 A 
ATOM     13  C   UNL     1      -4.643  -0.679   4.457  0.00  0.00    +0.120 A 
ATOM     14  C   UNL     1      -4.386   0.358   3.572  0.00  0.00    +0.046 A 
ATOM     15  C   UNL     1      -4.168   0.086   2.236  0.00  0.00    +0.008 A 
BRANCH  13  16
ATOM     16  O   UNL     1      -4.853  -0.414   5.774  0.00  0.00    -0.495 OA
ATOM     17  C   UNL     1      -4.795   0.955   6.177  0.00  0.00    +0.277 C 
ENDBRANCH  13  16
ENDBRANCH   6  10
BRANCH   1  18
ATOM     18  C   UNL     1      -1.498  -1.884   0.339  0.00  0.00    +0.338 C 
ATOM     19  O   UNL     1      -1.012  -1.196  -0.539  0.00  0.00    -0.245 OA
BRANCH  18  20
ATOM     20  O   UNL     1      -0.798  -2.136   1.464  0.00  0.00    -0.462 OA
BRANCH  20  22
ATOM     21  C   UNL     1       1.142  -1.955   2.894  0.00  0.00    +0.048 C 
ATOM     22  C   UNL     1       0.508  -1.563   1.558  0.00  0.00    +0.229 C 
ENDBRANCH  20  22
ENDBRANCH  18  20
ENDBRANCH   1  18
BRANCH   5  23
ATOM     23  C   UNL     1      -6.359  -1.339  -0.555  0.00  0.00    +0.098 C 
ATOM     24  N   UNL     1      -7.266  -0.695  -0.785  0.00  0.00    -0.191 NA
ENDBRANCH   5  23
TORSDOF 6
