REMARK  Name = ZINC32876781
REMARK  8 active torsions:
REMARK  status: ('A' for Active; 'I' for Inactive)
REMARK    1  A    between atoms: C_1  and  C_2
REMARK    2  A    between atoms: C_7  and  C_10
REMARK    3  A    between atoms: C_11  and  C_13
REMARK    4  A    between atoms: C_13  and  S_14
REMARK    5  A    between atoms: S_14  and  C_15
REMARK    6  A    between atoms: C_18  and  C_27
REMARK    7  A    between atoms: N_19  and  C_20
REMARK    8  A    between atoms: C_20  and  C_21
REMARK                            x       y       z     vdW  Elec       q    Type
REMARK                         _______ _______ _______ _____ _____    ______ ____
ROOT
ATOM      1  C   UNL     1      -2.758  -6.895  -1.478  0.00  0.00    +0.192 A 
ATOM      2  N   UNL     1      -2.038  -7.321  -0.466  0.00  0.00    -0.122 NA
ATOM      3  N   UNL     1      -2.244  -8.575  -0.273  0.00  0.00    -0.128 NA
ATOM      4  C   UNL     1      -3.109  -9.028  -1.151  0.00  0.00    +0.167 A 
ATOM      5  N   UNL     1      -3.470  -7.965  -1.947  0.00  0.00    -0.300 N 
ENDROOT
BRANCH   4   6
ATOM      6  C   UNL     1      -3.604 -10.415  -1.261  0.00  0.00    +0.044 A 
ATOM      7  C   UNL     1      -4.897 -10.805  -1.405  0.00  0.00    +0.095 A 
ATOM      8  N   UNL     1      -4.962 -12.167  -1.471  0.00  0.00    -0.360 N 
ATOM      9  H   UNL     1      -5.779 -12.679  -1.574  0.00  0.00    +0.165 HD
ATOM     10  C   UNL     1      -3.698 -12.709  -1.371  0.00  0.00    +0.047 A 
ATOM     11  C   UNL     1      -2.792 -11.643  -1.241  0.00  0.00    +0.010 A 
ATOM     12  C   UNL     1      -1.427 -11.898  -1.126  0.00  0.00    +0.011 A 
ATOM     13  C   UNL     1      -0.972 -13.198  -1.143  0.00  0.00    +0.001 A 
ATOM     14  C   UNL     1      -1.866 -14.252  -1.275  0.00  0.00    +0.002 A 
ATOM     15  C   UNL     1      -3.219 -14.015  -1.382  0.00  0.00    +0.026 A 
ENDBRANCH   4   6
BRANCH   1  16
ATOM     16  S   UNL     1      -2.804  -5.251  -2.109  0.00  0.00    -0.077 S 
BRANCH  16  17
ATOM     17  C   UNL     1      -1.644  -4.342  -1.052  0.00  0.00    +0.173 C 
BRANCH  17  26
ATOM     18  C   UNL     1       0.877   1.267  -1.660  0.00  0.00    +0.039 C 
ATOM     19  C   UNL     1       0.761  -0.240  -1.424  0.00  0.00    +0.133 C 
ATOM     20  C   UNL     1      -0.715  -0.620  -1.254  0.00  0.00    +0.139 C 
ATOM     21  N   UNL     1      -0.786  -2.031  -0.844  0.00  0.00    -0.296 N 
ATOM     22  C   UNL     1       0.043  -2.465   0.291  0.00  0.00    +0.139 C 
ATOM     23  C   UNL     1       1.482  -1.995   0.046  0.00  0.00    +0.133 C 
ATOM     24  O   UNL     1       1.479  -0.594  -0.240  0.00  0.00    -0.371 OA
ATOM     25  C   UNL     1       2.326  -2.261   1.294  0.00  0.00    +0.039 C 
ATOM     26  C   UNL     1      -1.588  -2.901  -1.490  0.00  0.00    +0.226 C 
ATOM     27  O   UNL     1      -2.264  -2.525  -2.424  0.00  0.00    -0.275 OA
ENDBRANCH  17  26
ENDBRANCH  16  17
ENDBRANCH   1  16
BRANCH   5  28
ATOM     28  C   UNL     1      -4.417  -7.977  -3.065  0.00  0.00    +0.157 C 
BRANCH  28  29
ATOM     29  C   UNL     1      -3.654  -8.170  -4.377  0.00  0.00    +0.138 C 
ATOM     30  C   UNL     1      -4.629  -8.063  -5.570  0.00  0.00    +0.035 C 
ATOM     31  C   UNL     1      -4.104  -9.171  -6.524  0.00  0.00    +0.031 C 
ATOM     32  C   UNL     1      -3.617 -10.231  -5.505  0.00  0.00    +0.160 C 
ATOM     33  O   UNL     1      -3.067  -9.476  -4.411  0.00  0.00    -0.375 OA
ENDBRANCH  28  29
ENDBRANCH   5  28
TORSDOF 6
