REMARK  Name = ZINC11174368
REMARK  2 active torsions:
REMARK  status: ('A' for Active; 'I' for Inactive)
REMARK    1  A    between atoms: C_1  and  C_2
REMARK    2  A    between atoms: C_18  and  C_21
REMARK                            x       y       z     vdW  Elec       q    Type
REMARK                         _______ _______ _______ _____ _____    ______ ____
ROOT
ATOM      1  C   UNL     1       0.010   1.216  -0.028  0.00  0.00    +0.069 C 
ATOM      2  C   UNL     1      -0.703   1.660   1.224  0.00  0.00    +0.081 A 
ATOM      3  C   UNL     1      -2.060   1.943   1.324  0.00  0.00    +0.108 A 
ATOM      4  C   UNL     1      -2.318   2.313   2.637  0.00  0.00    +0.177 A 
ATOM      5  N   UNL     1      -3.460   2.678   3.248  0.00  0.00    -0.211 NA
ATOM      6  C   UNL     1      -3.497   3.003   4.522  0.00  0.00    +0.133 A 
ATOM      7  C   UNL     1      -2.252   2.967   5.302  0.00  0.00    +0.040 A 
ATOM      8  C   UNL     1      -2.223   3.302   6.656  0.00  0.00    +0.013 A 
ATOM      9  C   UNL     1      -1.040   3.251   7.340  0.00  0.00    +0.001 A 
ATOM     10  C   UNL     1       0.132   2.873   6.699  0.00  0.00    +0.002 A 
ATOM     11  C   UNL     1       0.125   2.540   5.360  0.00  0.00    +0.028 A 
ATOM     12  C   UNL     1      -1.067   2.584   4.649  0.00  0.00    +0.078 A 
ATOM     13  N   UNL     1      -1.125   2.259   3.304  0.00  0.00    -0.212 N 
ATOM     14  N   UNL     1      -0.143   1.849   2.394  0.00  0.00    -0.168 NA
ATOM     15  N   UNL     1      -4.687   3.374   5.117  0.00  0.00    -0.318 N 
ATOM     16  C   UNL     1      -5.663   2.276   5.071  0.00  0.00    +0.087 C 
ATOM     17  C   UNL     1      -6.936   2.698   5.809  0.00  0.00    -0.062 C 
ATOM     18  C   UNL     1      -6.506   5.008   5.231  0.00  0.00    +0.033 C 
ATOM     19  C   UNL     1      -5.233   4.587   4.493  0.00  0.00    +0.100 C 
ATOM     20 CL   UNL     1      -3.224   1.846   0.040  0.00  0.00    -0.078 Cl
ATOM     21  N   UNL     1      -7.491   3.911   5.181  0.00  0.00    +0.389 N 
ATOM     22  H   UNL     1      -8.340   4.195   5.684  0.00  0.00    -0.085 HD
ATOM     23  H   UNL     1      -7.724   3.709   4.202  0.00  0.00    -0.085 HD
ENDROOT
BRANCH  18  24
ATOM     24  C   UNL     1      -7.090   6.229   4.568  0.00  0.00    +0.198 C 
ATOM     25  O   UNL     1      -8.023   6.115   3.801  0.00  0.00    -0.278 OA
ATOM     26  N   UNL     1      -6.577   7.448   4.828  0.00  0.00    -0.331 N 
ATOM     27  H   UNL     1      -5.831   7.539   5.441  0.00  0.00    +0.145 HD
ATOM     28  H   UNL     1      -6.953   8.233   4.401  0.00  0.00    +0.145 HD
ENDBRANCH  18  24
TORSDOF 1
