REMARK  Name = ZINC05321001
REMARK  11 active torsions:
REMARK  status: ('A' for Active; 'I' for Inactive)
REMARK    1  A    between atoms: C_1  and  C_2
REMARK    2  A    between atoms: C_5  and  O_9
REMARK    3  A    between atoms: C_6  and  C_8
REMARK    4  A    between atoms: O_9  and  C_10
REMARK    5  A    between atoms: C_10  and  C_11
REMARK    6  A    between atoms: C_14  and  S_17
REMARK    7  A    between atoms: N_15  and  N_16
REMARK    8  A    between atoms: S_17  and  C_18
REMARK    9  A    between atoms: C_18  and  C_19
REMARK   10  A    between atoms: C_23  and  C_30
REMARK   11  A    between atoms: C_26  and  C_29
REMARK                            x       y       z     vdW  Elec       q    Type
REMARK                         _______ _______ _______ _____ _____    ______ ____
ROOT
ATOM      1  C   UNL     1      -4.304  -4.521   0.020  0.00  0.00    +0.189 A 
ATOM      2  N   UNL     1      -4.704  -3.281   0.031  0.00  0.00    -0.128 NA
ATOM      3  N   UNL     1      -3.690  -2.491   0.030  0.00  0.00    -0.121 NA
ATOM      4  C   UNL     1      -2.579  -3.190   0.010  0.00  0.00    +0.209 A 
ATOM      5  N   UNL     1      -2.937  -4.508   0.006  0.00  0.00    -0.225 N 
ENDROOT
BRANCH   5   6
ATOM      6  N   UNL     1      -2.102  -5.589  -0.009  0.00  0.00    -0.295 N 
ATOM      7  H   UNL     1      -1.872  -5.881   0.929  0.00  0.00    +0.163 HD
ATOM      8  H   UNL     1      -2.504  -6.350  -0.535  0.00  0.00    +0.163 HD
ENDBRANCH   5   6
BRANCH   1   9
ATOM      9  C   UNL     1      -5.186  -5.743   0.022  0.00  0.00    +0.306 C 
BRANCH   9  10
ATOM     10  O   UNL     1      -5.451  -6.137   1.370  0.00  0.00    -0.484 OA
BRANCH  10  15
ATOM     11  C   UNL     1      -8.709 -10.670   2.116  0.00  0.00    +0.044 C 
ATOM     12  C   UNL     1      -7.838  -9.457   1.916  0.00  0.00    -0.050 A 
ATOM     13  C   UNL     1      -7.543  -9.022   0.637  0.00  0.00    +0.007 A 
ATOM     14  C   UNL     1      -6.743  -7.911   0.452  0.00  0.00    +0.046 A 
ATOM     15  C   UNL     1      -6.237  -7.231   1.550  0.00  0.00    +0.124 A 
ATOM     16  C   UNL     1      -6.530  -7.672   2.832  0.00  0.00    -0.009 A 
ATOM     17  C   UNL     1      -7.334  -8.781   3.012  0.00  0.00    +0.010 A 
ATOM     18  C   UNL     1      -5.977  -6.939   4.027  0.00  0.00    +0.047 C 
ENDBRANCH  10  15
ENDBRANCH   9  10
ENDBRANCH   1   9
BRANCH   4  19
ATOM     19  S   UNL     1      -0.938  -2.550  -0.003  0.00  0.00    -0.075 S 
BRANCH  19  20
ATOM     20  C   UNL     1      -1.293  -0.775   0.010  0.00  0.00    +0.173 C 
BRANCH  20  21
ATOM     21  C   UNL     1       0.002  -0.004   0.002  0.00  0.00    +0.226 C 
ATOM     22  O   UNL     1       1.060  -0.596  -0.011  0.00  0.00    -0.275 OA
ATOM     23  N   UNL     1      -0.016   1.344   0.009  0.00  0.00    -0.300 N 
ATOM     24  C   UNL     1      -1.290   2.075   0.019  0.00  0.00    +0.111 C 
ATOM     25  C   UNL     1      -1.279   3.061   1.198  0.00  0.00    +0.004 C 
ATOM     26  C   UNL     1      -0.042   3.956   1.094  0.00  0.00    +0.009 C 
ATOM     27  C   UNL     1       1.221   3.095   1.174  0.00  0.00    +0.004 C 
ATOM     28  C   UNL     1       1.238   2.109   0.002  0.00  0.00    +0.111 C 
ATOM     29  C   UNL     1       1.227   2.319   2.493  0.00  0.00    +0.009 C 
ATOM     30  C   UNL     1      -2.540   3.925   1.150  0.00  0.00    +0.009 C 
ENDBRANCH  20  21
ENDBRANCH  19  20
ENDBRANCH   4  19
TORSDOF 7
