REMARK  Name = ZINC49545551
REMARK  6 active torsions:
REMARK  status: ('A' for Active; 'I' for Inactive)
REMARK    1  A    between atoms: C_3  and  C_12
REMARK    2  A    between atoms: C_5  and  O_7
REMARK    3  A    between atoms: O_7  and  C_8
REMARK    4  A    between atoms: C_8  and  C_9
REMARK    5  A    between atoms: N_20  and  C_26
REMARK    6  A    between atoms: C_22  and  C_23
REMARK                            x       y       z     vdW  Elec       q    Type
REMARK                         _______ _______ _______ _____ _____    ______ ____
ROOT
ATOM      1  C   UNL     1       3.671   2.190  -0.021  0.00  0.00    +0.077 C 
ATOM      2  C   UNL     1       3.725   3.087  -1.261  0.00  0.00    +0.110 C 
ATOM      3  C   UNL     1       2.839   4.291  -1.110  0.00  0.00    +0.218 C 
ATOM      4  O   UNL     1       2.244   4.709  -2.081  0.00  0.00    -0.275 OA
ATOM      5  N   UNL     1       2.685   4.921   0.076  0.00  0.00    -0.283 N 
ATOM      6  C   UNL     1       3.272   4.338   1.206  0.00  0.00    +0.070 A 
ATOM      7  C   UNL     1       3.748   3.061   1.208  0.00  0.00    +0.054 A 
ATOM      8  N   UNL     1       4.254   2.777   2.440  0.00  0.00    -0.317 N 
ATOM      9  C   UNL     1       4.126   3.844   3.257  0.00  0.00    +0.108 A 
ATOM     10  C   UNL     1       3.511   4.875   2.541  0.00  0.00    +0.102 A 
ATOM     11  H   UNL     1       2.184   5.749   0.142  0.00  0.00    +0.155 HD
ENDROOT
BRANCH   8  12
ATOM     12  C   UNL     1       4.826   1.552   2.807  0.00  0.00    +0.048 A 
ATOM     13  C   UNL     1       4.157   0.365   2.543  0.00  0.00    +0.026 A 
ATOM     14  C   UNL     1       4.723  -0.842   2.905  0.00  0.00    +0.003 A 
ATOM     15  C   UNL     1       5.955  -0.869   3.532  0.00  0.00    +0.020 A 
ATOM     16  C   UNL     1       6.625   0.313   3.797  0.00  0.00    +0.043 A 
ATOM     17  C   UNL     1       6.066   1.523   3.430  0.00  0.00    +0.046 A 
ATOM     18 CL   UNL     1       8.172   0.275   4.583  0.00  0.00    -0.083 Cl
ENDBRANCH   8  12
BRANCH   1  21
ATOM     19  C   UNL     1      -0.017   1.377   0.010  0.00  0.00    +0.004 A 
ATOM     20  C   UNL     1       1.171   2.086   0.002  0.00  0.00    +0.004 A 
ATOM     21  C   UNL     1       2.379   1.415  -0.013  0.00  0.00    -0.035 A 
ATOM     22  C   UNL     1       2.403   0.033  -0.021  0.00  0.00    +0.050 A 
ATOM     23  C   UNL     1       1.214  -0.680  -0.013  0.00  0.00    +0.121 A 
ATOM     24  C   UNL     1       0.002  -0.004   0.002  0.00  0.00    +0.045 A 
BRANCH  23  25
ATOM     25  O   UNL     1       1.235  -2.039  -0.021  0.00  0.00    -0.483 OA
BRANCH  25  26
ATOM     26  C   UNL     1      -0.028  -2.708  -0.013  0.00  0.00    +0.324 C 
BRANCH  26  27
ATOM     27  C   UNL     1       0.192  -4.198  -0.024  0.00  0.00    +0.248 C 
ATOM     28  O   UNL     1       1.320  -4.644  -0.037  0.00  0.00    -0.272 OA
ATOM     29  N   UNL     1      -0.864  -5.036  -0.018  0.00  0.00    -0.327 N 
ATOM     30  H   UNL     1      -1.766  -4.679  -0.007  0.00  0.00    +0.145 HD
ATOM     31  H   UNL     1      -0.722  -5.995  -0.025  0.00  0.00    +0.145 HD
ENDBRANCH  26  27
ENDBRANCH  25  26
ENDBRANCH  23  25
ENDBRANCH   1  21
BRANCH  10  32
ATOM     32  C   UNL     1       3.175   6.216   3.028  0.00  0.00    +0.390 C 
ATOM     33  O   UNL     1       3.436   6.532   4.182  0.00  0.00    -0.240 OA
ATOM     34  O   UNL     1       2.633   7.021   2.282  0.00  0.00    -0.240 OA
ENDBRANCH  10  32
TORSDOF 6
