REMARK  Name = ZINC12786243
REMARK  14 active torsions:
REMARK  status: ('A' for Active; 'I' for Inactive)
REMARK    1  A    between atoms: C_1  and  C_2
REMARK    2  A    between atoms: C_5  and  S_8
REMARK    3  A    between atoms: S_8  and  N_11
REMARK    4  A    between atoms: N_11  and  C_12
REMARK    5  A    between atoms: C_12  and  C_14
REMARK    6  A    between atoms: C_12  and  C_17
REMARK    7  A    between atoms: C_14  and  C_15
REMARK    8  A    between atoms: C_14  and  C_16
REMARK    9  A    between atoms: N_19  and  C_20
REMARK   10  A    between atoms: C_20  and  C_21
REMARK   11  A    between atoms: C_21  and  C_23
REMARK   12  A    between atoms: C_21  and  N_68
REMARK   13  A    between atoms: C_28  and  O_29
REMARK   14  A    between atoms: O_29  and  C_30
REMARK                            x       y       z     vdW  Elec       q    Type
REMARK                         _______ _______ _______ _____ _____    ______ ____
ROOT
ATOM      1  C   UNL     1      -0.250   0.081   0.589  0.00  0.00    +0.232 C 
ATOM      2  O   UNL     1      -1.135   0.852   0.896  0.00  0.00    -0.274 OA
ATOM      3  N   UNL     1       1.030   0.503   0.559  0.00  0.00    -0.315 N 
ATOM      4  H   UNL     1       1.728  -0.089   0.237  0.00  0.00    +0.149 HD
ENDROOT
BRANCH   1   5
ATOM      5  C   UNL     1      -0.582  -1.347   0.242  0.00  0.00    +0.165 C 
BRANCH   5   6
ATOM      6  C   UNL     1      -0.328  -1.582  -1.248  0.00  0.00    +0.010 C 
ATOM      7  C   UNL     1      -0.537  -3.062  -1.575  0.00  0.00    +0.009 C 
ATOM      8  C   UNL     1      -1.303  -0.736  -2.070  0.00  0.00    +0.009 C 
ENDBRANCH   5   6
BRANCH   5   9
ATOM      9  N   UNL     1      -1.991  -1.609   0.545  0.00  0.00    -0.178 NA
ATOM     10  H   UNL     1      -2.682  -1.048   0.161  0.00  0.00    +0.149 HD
BRANCH   9  11
ATOM     11  S   UNL     1      -2.404  -2.864   1.544  0.00  0.00    +0.059 S 
ATOM     12  O   UNL     1      -3.819  -2.833   1.671  0.00  0.00    -0.153 OA
ATOM     13  O   UNL     1      -1.706  -4.007   1.070  0.00  0.00    -0.153 OA
BRANCH  11  18
ATOM     14  C   UNL     1      -0.156  -1.613   7.002  0.00  0.00    +0.044 C 
ATOM     15  C   UNL     1      -0.717  -1.926   5.639  0.00  0.00    -0.050 A 
ATOM     16  C   UNL     1      -1.990  -1.504   5.303  0.00  0.00    +0.005 A 
ATOM     17  C   UNL     1      -2.505  -1.791   4.052  0.00  0.00    +0.029 A 
ATOM     18  C   UNL     1      -1.747  -2.498   3.138  0.00  0.00    +0.105 A 
ATOM     19  C   UNL     1      -0.476  -2.924   3.476  0.00  0.00    +0.029 A 
ATOM     20  C   UNL     1       0.041  -2.634   4.725  0.00  0.00    +0.005 A 
ENDBRANCH  11  18
ENDBRANCH   9  11
ENDBRANCH   5   9
ENDBRANCH   1   5
BRANCH   3  21
ATOM     21  C   UNL     1       1.367   1.855   1.011  0.00  0.00    +0.093 C 
BRANCH  21  22
ATOM     22  C   UNL     1       1.618   1.840   2.520  0.00  0.00    -0.017 C 
BRANCH  22  23
ATOM     23  C   UNL     1       1.968   3.230   2.985  0.00  0.00    -0.018 A 
ATOM     24  C   UNL     1       3.293   3.607   3.102  0.00  0.00    +0.005 A 
ATOM     25  C   UNL     1       3.615   4.882   3.528  0.00  0.00    +0.000 A 
ATOM     26  C   UNL     1       2.613   5.783   3.838  0.00  0.00    +0.004 A 
ATOM     27  C   UNL     1       1.288   5.412   3.723  0.00  0.00    +0.046 A 
ATOM     28  C   UNL     1       0.962   4.134   3.290  0.00  0.00    +0.122 A 
BRANCH  28  29
ATOM     29  O   UNL     1      -0.341   3.768   3.171  0.00  0.00    -0.495 OA
ATOM     30  C   UNL     1      -1.325   4.751   3.502  0.00  0.00    +0.277 C 
ENDBRANCH  28  29
ENDBRANCH  22  23
BRANCH  22  35
ATOM     31  C   UNL     1       3.084   0.982   4.264  0.00  0.00    -0.078 C 
ATOM     32  C   UNL     1       3.844  -0.349   4.492  0.00  0.00    -0.020 C 
ATOM     33  C   UNL     1       3.068  -1.347   3.602  0.00  0.00    -0.020 C 
ATOM     34  C   UNL     1       2.350  -0.476   2.553  0.00  0.00    -0.078 C 
ATOM     35  N   UNL     1       2.740   0.906   2.836  0.00  0.00    +0.385 N 
ATOM     36  H   UNL     1       3.558   1.158   2.268  0.00  0.00    -0.081 HD
ENDBRANCH  22  35
ENDBRANCH  21  22
ENDBRANCH   3  21
TORSDOF 10
