REMARK  Name = ZINC08763911
REMARK  8 active torsions:
REMARK  status: ('A' for Active; 'I' for Inactive)
REMARK    1  A    between atoms: C_4  and  C_7
REMARK    2  A    between atoms: C_7  and  C_9
REMARK    3  A    between atoms: C_10  and  O_34
REMARK    4  A    between atoms: N_13  and  C_25
REMARK    5  A    between atoms: C_14  and  C_16
REMARK    6  A    between atoms: C_19  and  N_22
REMARK    7  A    between atoms: C_28  and  O_33
REMARK    8  A    between atoms: C_29  and  C_31
REMARK                            x       y       z     vdW  Elec       q    Type
REMARK                         _______ _______ _______ _____ _____    ______ ____
ROOT
ATOM      1  C   UNL     1      -0.892   3.372  -0.085  0.00  0.00    +0.071 C 
ATOM      2  C   UNL     1      -0.855   2.051   0.212  0.00  0.00    +0.189 C 
ATOM      3  C   UNL     1       0.519   1.547   0.009  0.00  0.00    +0.287 C 
ATOM      4  O   UNL     1       0.876   0.400   0.196  0.00  0.00    -0.266 OA
ATOM      5  N   UNL     1       1.316   2.543  -0.417  0.00  0.00    -0.253 N 
ATOM      6  C   UNL     1       0.504   3.762  -0.511  0.00  0.00    +0.149 C 
ENDROOT
BRANCH   6   7
ATOM      7  C   UNL     1       0.492   4.268  -1.931  0.00  0.00    -0.022 A 
ATOM      8  C   UNL     1       0.352   3.379  -2.980  0.00  0.00    +0.008 A 
ATOM      9  C   UNL     1       0.335   3.843  -4.282  0.00  0.00    +0.033 A 
ATOM     10  C   UNL     1       0.469   5.196  -4.535  0.00  0.00    +0.126 A 
ATOM     11  C   UNL     1       0.615   6.084  -3.486  0.00  0.00    +0.033 A 
ATOM     12  C   UNL     1       0.626   5.620  -2.184  0.00  0.00    +0.008 A 
BRANCH  10  13
ATOM     13  N   UNL     1       0.456   5.692  -5.930  0.00  0.00    +0.056 N 
ATOM     14  O   UNL     1       0.574   6.884  -6.153  0.00  0.00    -0.126 OA
ATOM     15  O   UNL     1       0.328   4.909  -6.854  0.00  0.00    -0.126 OA
ENDBRANCH  10  13
ENDBRANCH   6   7
BRANCH   5  16
ATOM     16  C   UNL     1       2.679   2.437  -0.718  0.00  0.00    +0.039 A 
ATOM     17  C   UNL     1       3.382   3.554  -1.157  0.00  0.00    +0.027 A 
ATOM     18  C   UNL     1       4.727   3.460  -1.451  0.00  0.00    +0.048 A 
ATOM     19  C   UNL     1       5.386   2.246  -1.321  0.00  0.00    +0.131 A 
ATOM     20  C   UNL     1       4.683   1.114  -0.884  0.00  0.00    +0.106 A 
ATOM     21  C   UNL     1       3.322   1.219  -0.583  0.00  0.00    +0.042 A 
BRANCH  20  22
ATOM     22  C   UNL     1       5.376  -0.179  -0.743  0.00  0.00    +0.390 C 
ATOM     23  O   UNL     1       6.559  -0.266  -1.006  0.00  0.00    -0.240 OA
ATOM     24  O   UNL     1       4.697  -1.264  -0.322  0.00  0.00    -0.240 OA
ENDBRANCH  20  22
BRANCH  19  25
ATOM     25  O   UNL     1       6.707   2.154  -1.617  0.00  0.00    -0.506 OA
ATOM     26  H   UNL     1       6.889   1.929  -2.539  0.00  0.00    +0.292 HD
ENDBRANCH  19  25
ENDBRANCH   5  16
BRANCH   1  27
ATOM     27  C   UNL     1      -2.062   4.251  -0.014  0.00  0.00    +0.195 C 
ATOM     28  O   UNL     1      -3.017   4.053  -0.741  0.00  0.00    -0.287 OA
BRANCH  27  32
ATOM     29  C   UNL     1      -2.120   7.491   2.733  0.00  0.00    +0.000 A 
ATOM     30  C   UNL     1      -3.156   7.336   1.829  0.00  0.00    +0.001 A 
ATOM     31  C   UNL     1      -3.144   6.286   0.934  0.00  0.00    +0.012 A 
ATOM     32  C   UNL     1      -2.082   5.379   0.942  0.00  0.00    +0.022 A 
ATOM     33  C   UNL     1      -1.042   5.538   1.861  0.00  0.00    +0.012 A 
ATOM     34  C   UNL     1      -1.065   6.596   2.746  0.00  0.00    +0.001 A 
ENDBRANCH  27  32
ENDBRANCH   1  27
BRANCH   2  35
ATOM     35  O   UNL     1      -1.907   1.312   0.631  0.00  0.00    -0.502 OA
ATOM     36  H   UNL     1      -1.613   0.368   0.780  0.00  0.00    +0.292 HD
ENDBRANCH   2  35
TORSDOF 8
