REMARK  Name = ZINC36029141
REMARK  7 active torsions:
REMARK  status: ('A' for Active; 'I' for Inactive)
REMARK    1  A    between atoms: C_1  and  C_2
REMARK    2  A    between atoms: C_2  and  C_3
REMARK    3  A    between atoms: C_3  and  C_5
REMARK    4  A    between atoms: C_3  and  C_6
REMARK    5  A    between atoms: N_10  and  C_29
REMARK    6  A    between atoms: N_15  and  S_18
REMARK    7  A    between atoms: S_18  and  C_21
REMARK                            x       y       z     vdW  Elec       q    Type
REMARK                         _______ _______ _______ _____ _____    ______ ____
ROOT
ATOM      1  C   UNL     1       0.658  -2.051   1.285  0.00  0.00    +0.022 C 
ATOM      2  C   UNL     1      -0.780  -2.501   1.422  0.00  0.00    +0.201 C 
ATOM      3  O   UNL     1      -1.718  -2.081   0.778  0.00  0.00    -0.277 OA
ATOM      4  N   UNL     1      -0.843  -3.447   2.382  0.00  0.00    -0.311 N 
ATOM      5  C   UNL     1       0.498  -3.686   2.922  0.00  0.00    +0.006 C 
ATOM      6  N   UNL     1       1.325  -2.526   2.521  0.00  0.00    +0.401 N 
ATOM      7  C   UNL     1       1.087  -4.965   2.329  0.00  0.00    +0.023 C 
ATOM      8  C   UNL     1       0.203  -6.156   2.714  0.00  0.00    +0.109 C 
ATOM      9  N   UNL     1       0.045  -6.174   4.175  0.00  0.00    -0.177 NA
ATOM     10  C   UNL     1      -0.444  -4.963   4.849  0.00  0.00    +0.109 C 
ATOM     11  C   UNL     1       0.445  -3.782   4.445  0.00  0.00    +0.023 C 
ATOM     12  H   UNL     1       2.273  -2.812   2.328  0.00  0.00    -0.082 HD
ATOM     13  H   UNL     1       1.305  -1.812   3.234  0.00  0.00    -0.082 HD
ENDROOT
BRANCH   9  14
ATOM     14  S   UNL     1       0.410  -7.534   5.046  0.00  0.00    +0.061 S 
ATOM     15  O   UNL     1      -0.337  -7.457   6.252  0.00  0.00    -0.153 OA
ATOM     16  O   UNL     1       0.300  -8.632   4.150  0.00  0.00    -0.153 OA
BRANCH  14  17
ATOM     17  C   UNL     1       2.110  -7.422   5.498  0.00  0.00    +0.107 A 
ATOM     18  C   UNL     1       3.083  -7.938   4.662  0.00  0.00    +0.030 A 
ATOM     19  C   UNL     1       4.416  -7.852   5.016  0.00  0.00    +0.023 A 
ATOM     20  C   UNL     1       4.778  -7.248   6.207  0.00  0.00    +0.059 A 
ATOM     21  C   UNL     1       3.804  -6.731   7.043  0.00  0.00    +0.061 A 
ATOM     22  C   UNL     1       2.470  -6.814   6.686  0.00  0.00    +0.050 A 
ATOM     23 CL   UNL     1       4.256  -5.973   8.539  0.00  0.00    -0.082 Cl
ATOM     24 CL   UNL     1       6.452  -7.139   6.652  0.00  0.00    -0.082 Cl
ENDBRANCH  14  17
ENDBRANCH   9  14
BRANCH   4  25
ATOM     25  C   UNL     1      -2.063  -4.131   2.817  0.00  0.00    +0.075 C 
ATOM     26  C   UNL     1      -3.367  -3.776   2.098  0.00  0.00    +0.024 C 
ATOM     27  C   UNL     1      -3.127  -3.293   3.530  0.00  0.00    +0.024 C 
ENDBRANCH   4  25
BRANCH   1  28
ATOM     28  C   UNL     1       0.733  -0.526   1.192  0.00  0.00    -0.020 C 
ATOM     29  C   UNL     1       2.198  -0.089   1.128  0.00  0.00    +0.006 C 
BRANCH  28  31
ATOM     30  C   UNL     1      -0.029   1.474  -0.099  0.00  0.00    +0.004 C 
ATOM     31  C   UNL     1       0.005  -0.056  -0.070  0.00  0.00    -0.001 C 
ENDBRANCH  28  31
ENDBRANCH   1  28
TORSDOF 5
