REMARK  Name = ZINC38925925
REMARK  8 active torsions:
REMARK  status: ('A' for Active; 'I' for Inactive)
REMARK    1  A    between atoms: C_1  and  C_2
REMARK    2  A    between atoms: C_2  and  C_3
REMARK    3  A    between atoms: C_6  and  C_9
REMARK    4  A    between atoms: C_9  and  C_11
REMARK    5  A    between atoms: C_12  and  N_13
REMARK    6  A    between atoms: N_13  and  C_14
REMARK    7  A    between atoms: C_17  and  S_20
REMARK    8  A    between atoms: S_20  and  N_23
REMARK                            x       y       z     vdW  Elec       q    Type
REMARK                         _______ _______ _______ _____ _____    ______ ____
ROOT
ATOM      1  C   UNL     1       4.698  -3.571   7.934  0.00  0.00    +0.031 A 
ATOM      2  C   UNL     1       3.962  -4.020   9.024  0.00  0.00    +0.025 A 
ATOM      3  C   UNL     1       4.598  -4.668  10.064  0.00  0.00    +0.031 A 
ATOM      4  C   UNL     1       5.965  -4.871  10.023  0.00  0.00    +0.113 A 
ATOM      5  C   UNL     1       6.701  -4.425   8.940  0.00  0.00    +0.031 A 
ATOM      6  C   UNL     1       6.071  -3.781   7.893  0.00  0.00    +0.025 A 
ENDROOT
BRANCH   4   7
ATOM      7  S   UNL     1       6.772  -5.698  11.353  0.00  0.00    +0.100 S 
ATOM      8  O   UNL     1       8.130  -5.280  11.327  0.00  0.00    -0.146 OA
ATOM      9  O   UNL     1       5.945  -5.532  12.496  0.00  0.00    -0.146 OA
BRANCH   7  10
ATOM     10  N   UNL     1       6.769  -7.316  10.997  0.00  0.00    -0.112 NA
ATOM     11  C   UNL     1       7.308  -8.164  11.822  0.00  0.00    +0.170 C 
ATOM     12  C   UNL     1       7.936  -7.686  13.112  0.00  0.00    +0.191 C 
ATOM     13  N   UNL     1       8.528  -8.696  14.003  0.00  0.00    -0.376 N 
ATOM     14  C   UNL     1       8.485  -9.948  13.641  0.00  0.00    +0.061 A 
ATOM     15  C   UNL     1       9.063 -10.995  14.495  0.00  0.00    +0.027 A 
ATOM     16  C   UNL     1       8.998 -12.281  14.086  0.00  0.00    +0.002 A 
ATOM     17  C   UNL     1       8.394 -12.640  12.869  0.00  0.00    +0.002 A 
ATOM     18  C   UNL     1       7.843 -11.734  12.032  0.00  0.00    +0.030 A 
ATOM     19  C   UNL     1       7.854 -10.355  12.361  0.00  0.00    +0.089 A 
ATOM     20  N   UNL     1       7.310  -9.477  11.544  0.00  0.00    -0.227 NA
ATOM     21  H   UNL     1       8.943  -8.436  14.841  0.00  0.00    +0.160 HD
ENDBRANCH   7  10
ENDBRANCH   4   7
BRANCH   1  22
ATOM     22  N   UNL     1       4.058  -2.916   6.879  0.00  0.00    -0.320 N 
ATOM     23  H   UNL     1       4.572  -2.606   6.117  0.00  0.00    +0.152 HD
BRANCH  22  25
ATOM     24  C   UNL     1       2.106  -1.976   5.958  0.00  0.00    +0.066 C 
ATOM     25  C   UNL     1       2.709  -2.710   6.921  0.00  0.00    +0.076 C 
BRANCH  24  26
ATOM     26  C   UNL     1       2.886  -1.278   5.010  0.00  0.00    +0.187 C 
ATOM     27  O   UNL     1       4.098  -1.244   5.126  0.00  0.00    -0.287 OA
BRANCH  26  31
ATOM     28  C   UNL     1       1.006   0.702   1.755  0.00  0.00    -0.048 A 
ATOM     29  C   UNL     1       2.383   0.743   1.883  0.00  0.00    +0.004 A 
ATOM     30  C   UNL     1       2.999   0.102   2.938  0.00  0.00    +0.012 A 
ATOM     31  C   UNL     1       2.231  -0.588   3.877  0.00  0.00    +0.022 A 
ATOM     32  C   UNL     1       0.843  -0.626   3.741  0.00  0.00    +0.012 A 
ATOM     33  C   UNL     1       0.238   0.024   2.685  0.00  0.00    +0.004 A 
BRANCH  28  35
ATOM     34  C   UNL     1       0.009   2.844   1.001  0.00  0.00    +0.009 C 
ATOM     35  C   UNL     1       0.339   1.405   0.601  0.00  0.00    +0.032 C 
ENDBRANCH  28  35
ENDBRANCH  26  31
ENDBRANCH  24  26
ENDBRANCH  22  25
ENDBRANCH   1  22
TORSDOF 7
