REMARK  Name = ZINC09359094
REMARK  4 active torsions:
REMARK  status: ('A' for Active; 'I' for Inactive)
REMARK    1  A    between atoms: C_15  and  C_17
REMARK    2  A    between atoms: C_17  and  C_19
REMARK    3  A    between atoms: C_23  and  N_25
REMARK    4  A    between atoms: N_30  and  C_33
REMARK                            x       y       z     vdW  Elec       q    Type
REMARK                         _______ _______ _______ _____ _____    ______ ____
ROOT
ATOM      1  C   UNL     1       3.703   0.523  -3.054  0.00  0.00    +0.001 A 
ATOM      2  C   UNL     1       3.821   1.861  -2.722  0.00  0.00    +0.000 A 
ATOM      3  C   UNL     1       3.023   2.409  -1.732  0.00  0.00    +0.006 A 
ATOM      4  C   UNL     1       2.108   1.621  -1.073  0.00  0.00    -0.021 A 
ATOM      5  C   UNL     1       1.981   0.265  -1.399  0.00  0.00    -0.019 A 
ATOM      6  C   UNL     1       2.789  -0.278  -2.400  0.00  0.00    +0.008 A 
ATOM      7  C   UNL     1       1.003  -0.584  -0.690  0.00  0.00    +0.022 C 
ATOM      8  C   UNL     1       0.002  -0.004   0.002  0.00  0.00    +0.054 C 
ATOM      9  C   UNL     1       1.219   2.189   0.002  0.00  0.00    +0.100 C 
ATOM     10  C   UNL     1       0.827   3.635  -0.288  0.00  0.00    +0.113 C 
ATOM     11  C   UNL     1      -0.674   3.715   0.129  0.00  0.00    +0.116 C 
ATOM     12  C   UNL     1      -1.177   2.267  -0.043  0.00  0.00    +0.141 C 
ATOM     13  C   UNL     1      -1.248   4.549  -1.021  0.00  0.00    +0.232 C 
ATOM     14  O   UNL     1      -2.293   5.164  -0.993  0.00  0.00    -0.274 OA
ATOM     15  N   UNL     1      -0.397   4.494  -2.057  0.00  0.00    -0.208 N 
ATOM     16  C   UNL     1       0.770   3.892  -1.778  0.00  0.00    +0.232 C 
ATOM     17  O   UNL     1       1.630   3.603  -2.582  0.00  0.00    -0.274 OA
ATOM     18  N   UNL     1       0.021   1.466   0.353  0.00  0.00    -0.384 NA
ATOM     19  H   UNL     1       0.010   1.468   1.380  0.00  0.00    +0.127 HD
ENDROOT
BRANCH  15  20
ATOM     20  C   UNL     1      -0.700   5.020  -3.321  0.00  0.00    +0.062 A 
ATOM     21  C   UNL     1      -1.312   4.223  -4.279  0.00  0.00    +0.025 A 
ATOM     22  C   UNL     1      -1.613   4.745  -5.521  0.00  0.00    +0.002 A 
ATOM     23  C   UNL     1      -1.297   6.058  -5.817  0.00  0.00    +0.002 A 
ATOM     24  C   UNL     1      -0.683   6.854  -4.868  0.00  0.00    +0.022 A 
ATOM     25  C   UNL     1      -0.383   6.339  -3.620  0.00  0.00    +0.063 A 
ATOM     26 CL   UNL     1       0.389   7.339  -2.430  0.00  0.00    -0.082 Cl
ENDBRANCH  15  20
BRANCH  12  27
ATOM     27  C   UNL     1      -1.869   2.121  -1.373  0.00  0.00    +0.183 C 
ATOM     28  O   UNL     1      -1.314   1.550  -2.287  0.00  0.00    -0.290 OA
BRANCH  27  29
ATOM     29  C   UNL     1      -3.221   2.673  -1.563  0.00  0.00    +0.021 A 
ATOM     30  C   UNL     1      -3.867   3.328  -0.510  0.00  0.00    +0.011 A 
ATOM     31  C   UNL     1      -5.131   3.846  -0.697  0.00  0.00    +0.003 A 
ATOM     32  C   UNL     1      -5.764   3.710  -1.921  0.00  0.00    +0.033 A 
ATOM     33  C   UNL     1      -5.133   3.059  -2.966  0.00  0.00    +0.127 A 
ATOM     34  C   UNL     1      -3.867   2.540  -2.796  0.00  0.00    +0.044 A 
BRANCH  33  35
ATOM     35  N   UNL     1      -5.819   2.919  -4.270  0.00  0.00    +0.056 N 
ATOM     36  O   UNL     1      -5.265   2.346  -5.191  0.00  0.00    -0.126 OA
ATOM     37  O   UNL     1      -6.938   3.377  -4.422  0.00  0.00    -0.126 OA
ENDBRANCH  33  35
ENDBRANCH  27  29
ENDBRANCH  12  27
TORSDOF 4
