REMARK  Name = ZINC12674068
REMARK  6 active torsions:
REMARK  status: ('A' for Active; 'I' for Inactive)
REMARK    1  A    between atoms: C_1  and  C_2
REMARK    2  A    between atoms: C_2  and  C_3
REMARK    3  A    between atoms: C_4  and  C_25
REMARK    4  A    between atoms: C_6  and  C_8
REMARK    5  A    between atoms: N_10  and  N_11
REMARK    6  A    between atoms: C_12  and  C_14
REMARK                            x       y       z     vdW  Elec       q    Type
REMARK                         _______ _______ _______ _____ _____    ______ ____
ROOT
ATOM      1  N   UNL     1      -4.931   1.652   0.033  0.00  0.00    -0.230 N 
ATOM      2  C   UNL     1      -5.967   2.514   0.043  0.00  0.00    +0.260 C 
ATOM      3  O   UNL     1      -5.761   3.713   0.048  0.00  0.00    -0.269 OA
ATOM      4  H   UNL     1      -5.095   0.697   0.028  0.00  0.00    +0.173 HD
ENDROOT
BRANCH   2   5
ATOM      5  C   UNL     1      -7.350   2.004   0.046  0.00  0.00    +0.040 A 
ATOM      6  C   UNL     1      -7.585   0.626   0.033  0.00  0.00    +0.014 A 
ATOM      7  C   UNL     1      -8.879   0.152   0.043  0.00  0.00    +0.017 A 
ATOM      8  C   UNL     1      -9.945   1.041   0.055  0.00  0.00    +0.030 A 
ATOM      9  C   UNL     1      -9.725   2.423   0.059  0.00  0.00    +0.048 A 
ATOM     10  C   UNL     1      -8.423   2.898   0.056  0.00  0.00    +0.037 A 
ATOM     11  N   UNL     1     -10.783   3.329   0.060  0.00  0.00    -0.284 N 
ATOM     12  C   UNL     1     -12.028   3.084   0.458  0.00  0.00    +0.227 C 
ATOM     13  O   UNL     1     -12.835   3.989   0.406  0.00  0.00    -0.275 OA
ATOM     14  C   UNL     1     -12.492   1.747   0.968  0.00  0.00    +0.170 C 
ATOM     15  S   UNL     1     -11.604   0.438   0.071  0.00  0.00    -0.114 S 
ATOM     16  H   UNL     1     -10.593   4.225  -0.260  0.00  0.00    +0.155 HD
ENDBRANCH   2   5
BRANCH   1  19
ATOM     17  C   UNL     1      -2.580   1.276   0.020  0.00  0.00    +0.267 C 
ATOM     18  O   UNL     1      -2.786   0.076   0.015  0.00  0.00    -0.268 OA
ATOM     19  N   UNL     1      -3.616   2.137   0.030  0.00  0.00    -0.230 N 
ATOM     20  H   UNL     1      -3.452   3.093   0.035  0.00  0.00    +0.173 HD
BRANCH  17  24
ATOM     21  C   UNL     1       1.077   3.165   0.008  0.00  0.00    -0.007 A 
ATOM     22  C   UNL     1       1.149   1.808   0.001  0.00  0.00    -0.040 A 
ATOM     23  C   UNL     1      -0.013   1.076   0.008  0.00  0.00    +0.024 A 
ATOM     24  C   UNL     1      -1.205   1.783   0.017  0.00  0.00    +0.076 A 
ATOM     25  S   UNL     1      -0.629   3.472   0.026  0.00  0.00    -0.088 S 
ATOM     26  C   UNL     1       2.487   1.115  -0.015  0.00  0.00    +0.044 C 
BRANCH  21  28
ATOM     27  C   UNL     1       2.576   4.506  -1.442  0.00  0.00    +0.009 C 
ATOM     28  C   UNL     1       2.207   4.162   0.003  0.00  0.00    +0.039 C 
ENDBRANCH  21  28
ENDBRANCH  17  24
ENDBRANCH   1  19
TORSDOF 4
