REMARK  Name = ZINC27137407
REMARK  10 active torsions:
REMARK  status: ('A' for Active; 'I' for Inactive)
REMARK    1  A    between atoms: C_1  and  C_2
REMARK    2  A    between atoms: C_2  and  C_3
REMARK    3  A    between atoms: C_2  and  C_4
REMARK    4  A    between atoms: C_7  and  N_13
REMARK    5  A    between atoms: C_8  and  C_10
REMARK    6  A    between atoms: C_10  and  C_11
REMARK    7  A    between atoms: C_10  and  C_12
REMARK    8  A    between atoms: C_14  and  C_16
REMARK    9  A    between atoms: C_18  and  S_22
REMARK   10  A    between atoms: S_22  and  N_25
REMARK                            x       y       z     vdW  Elec       q    Type
REMARK                         _______ _______ _______ _____ _____    ______ ____
ROOT
ATOM      1  N   UNL     1      -2.040   0.127   3.200  0.00  0.00    -0.280 N 
ATOM      2  C   UNL     1      -2.765  -0.486   4.157  0.00  0.00    +0.265 C 
ATOM      3  O   UNL     1      -2.260  -0.743   5.234  0.00  0.00    -0.268 OA
ATOM      4  H   UNL     1      -2.514   0.416   2.251  0.00  0.00    +0.155 HD
ENDROOT
BRANCH   1   8
ATOM      5  C   UNL     1       1.997   0.932   3.840  0.00  0.00    -0.044 A 
ATOM      6  C   UNL     1       1.138   0.814   4.917  0.00  0.00    +0.006 A 
ATOM      7  C   UNL     1      -0.200   0.543   4.709  0.00  0.00    +0.024 A 
ATOM      8  C   UNL     1      -0.684   0.395   3.415  0.00  0.00    +0.037 A 
ATOM      9  C   UNL     1       0.182   0.508   2.336  0.00  0.00    -0.023 A 
ATOM     10  C   UNL     1       1.520   0.779   2.551  0.00  0.00    +0.009 A 
BRANCH   5  12
ATOM     11  C   UNL     1       3.596   2.564   4.804  0.00  0.00    +0.012 C 
ATOM     12  C   UNL     1       3.456   1.228   4.071  0.00  0.00    +0.013 C 
ATOM     13  C   UNL     1       4.074   0.115   4.919  0.00  0.00    +0.012 C 
ENDBRANCH   5  12
BRANCH   9  14
ATOM     14  C   UNL     1      -0.337   0.341   0.931  0.00  0.00    +0.015 C 
ATOM     15  C   UNL     1       0.475  -0.739   0.212  0.00  0.00    +0.012 C 
ATOM     16  C   UNL     1      -0.203   1.666   0.177  0.00  0.00    +0.012 C 
ENDBRANCH   9  14
ENDBRANCH   1   8
BRANCH   2  17
ATOM     17  C   UNL     1      -4.163  -0.845   3.899  0.00  0.00    +0.104 A 
ATOM     18  C   UNL     1      -5.020  -1.471   4.780  0.00  0.00    +0.061 A 
ATOM     19  C   UNL     1      -6.247  -1.618   4.126  0.00  0.00    +0.123 A 
ATOM     20  C   UNL     1      -6.122  -1.090   2.885  0.00  0.00    +0.112 A 
ATOM     21  N   UNL     1      -4.862  -0.612   2.736  0.00  0.00    -0.355 N 
ATOM     22  H   UNL     1      -4.370  -0.110   1.890  0.00  0.00    +0.166 HD
BRANCH  19  23
ATOM     23  S   UNL     1      -7.698  -2.358   4.797  0.00  0.00    +0.062 S 
ATOM     24  O   UNL     1      -8.477  -2.799   3.693  0.00  0.00    -0.153 OA
ATOM     25  O   UNL     1      -7.266  -3.239   5.825  0.00  0.00    -0.153 OA
BRANCH  23  26
ATOM     26  N   UNL     1      -8.564  -1.156   5.537  0.00  0.00    -0.172 NA
ATOM     27  C   UNL     1      -8.351  -0.833   6.957  0.00  0.00    +0.137 C 
ATOM     28  C   UNL     1      -8.136   0.684   7.076  0.00  0.00    +0.177 C 
ATOM     29  O   UNL     1      -9.212   1.363   6.425  0.00  0.00    -0.377 OA
ATOM     30  C   UNL     1      -9.302   1.109   5.021  0.00  0.00    +0.177 C 
ATOM     31  C   UNL     1      -9.573  -0.383   4.795  0.00  0.00    +0.137 C 
ENDBRANCH  23  26
ENDBRANCH  19  23
ENDBRANCH   2  17
TORSDOF 6
