REMARK  Name = ZINC13206998
REMARK  12 active torsions:
REMARK  status: ('A' for Active; 'I' for Inactive)
REMARK    1  A    between atoms: C_1  and  C_2
REMARK    2  A    between atoms: C_2  and  N_63
REMARK    3  A    between atoms: C_3  and  C_4
REMARK    4  A    between atoms: C_3  and  N_63
REMARK    5  A    between atoms: C_5  and  C_6
REMARK    6  A    between atoms: C_5  and  N_63
REMARK    7  A    between atoms: C_6  and  N_7
REMARK    8  A    between atoms: C_14  and  C_18
REMARK    9  A    between atoms: C_18  and  C_19
REMARK   10  A    between atoms: C_18  and  C_20
REMARK   11  A    between atoms: C_23  and  C_25
REMARK   12  A    between atoms: C_23  and  C_26
REMARK                            x       y       z     vdW  Elec       q    Type
REMARK                         _______ _______ _______ _____ _____    ______ ____
ROOT
ATOM      1  N   UNL     1      -7.852   0.022  -2.578  0.00  0.00    -0.328 N 
ATOM      2  C   UNL     1      -7.589  -0.847  -1.530  0.00  0.00    +0.165 A 
ATOM      3  C   UNL     1      -6.273  -1.094  -1.122  0.00  0.00    +0.196 A 
ATOM      4  C   UNL     1      -6.075  -1.981  -0.058  0.00  0.00    +0.124 A 
ATOM      5  C   UNL     1      -4.618  -2.039   0.142  0.00  0.00    +0.070 A 
ATOM      6  C   UNL     1      -3.780  -2.720   1.022  0.00  0.00    -0.023 A 
ATOM      7  C   UNL     1      -2.419  -2.531   0.909  0.00  0.00    +0.004 A 
ATOM      8  C   UNL     1      -1.937  -1.663  -0.060  0.00  0.00    +0.053 A 
ATOM      9  N   UNL     1      -2.748  -1.029  -0.881  0.00  0.00    -0.216 NA
ATOM     10  C   UNL     1      -4.064  -1.181  -0.822  0.00  0.00    +0.231 A 
ATOM     11  O   UNL     1      -5.072  -0.647  -1.544  0.00  0.00    -0.432 OA
ATOM     12  C   UNL     1      -1.450  -3.234   1.820  0.00  0.00    +0.197 C 
ATOM     13  O   UNL     1      -2.134  -3.765   2.955  0.00  0.00    -0.369 OA
ATOM     14  C   UNL     1      -3.273  -4.561   2.607  0.00  0.00    +0.068 C 
ATOM     15  C   UNL     1      -4.364  -3.637   2.062  0.00  0.00    +0.070 C 
ATOM     16  C   UNL     1      -3.789  -5.290   3.849  0.00  0.00    +0.041 C 
ATOM     17  C   UNL     1      -2.883  -5.583   1.537  0.00  0.00    +0.041 C 
ATOM     18  N   UNL     1      -7.127  -2.552   0.524  0.00  0.00    -0.231 NA
ATOM     19  C   UNL     1      -8.347  -2.289   0.105  0.00  0.00    +0.224 A 
ATOM     20  N   UNL     1      -8.582  -1.460  -0.894  0.00  0.00    -0.217 NA
ATOM     21  H   UNL     1      -7.120   0.465  -3.036  0.00  0.00    +0.147 HD
ENDROOT
BRANCH   8  22
ATOM     22  C   UNL     1      -0.451  -1.446  -0.181  0.00  0.00    +0.032 C 
ATOM     23  C   UNL     1       0.015  -1.866  -1.576  0.00  0.00    +0.014 C 
ATOM     24  C   UNL     1      -0.133   0.035   0.038  0.00  0.00    +0.014 C 
ENDBRANCH   8  22
BRANCH   1  25
ATOM     25  C   UNL     1      -9.234   0.272  -2.994  0.00  0.00    +0.084 C 
BRANCH  25  26
ATOM     26  C   UNL     1      -9.245   1.261  -4.161  0.00  0.00    -0.060 C 
BRANCH  26  27
ATOM     27  N   UNL     1     -10.644   1.486  -4.583  0.00  0.00    +0.380 N 
ATOM     28  H   UNL     1     -11.094   0.577  -4.742  0.00  0.00    -0.082 HD
BRANCH  27  30
ATOM     29  C   UNL     1     -10.724   3.559  -3.238  0.00  0.00    -0.017 C 
ATOM     30  C   UNL     1     -11.381   2.207  -3.524  0.00  0.00    -0.082 C 
ENDBRANCH  27  30
BRANCH  27  31
ATOM     31  C   UNL     1     -10.674   2.264  -5.839  0.00  0.00    -0.082 C 
ATOM     32  C   UNL     1     -12.077   2.171  -6.441  0.00  0.00    -0.017 C 
ENDBRANCH  27  31
ENDBRANCH  26  27
ENDBRANCH  25  26
ENDBRANCH   1  25
TORSDOF 6
