REMARK  Name = ZINC48896151
REMARK  6 active torsions:
REMARK  status: ('A' for Active; 'I' for Inactive)
REMARK    1  A    between atoms: C_1  and  C_2
REMARK    2  A    between atoms: C_2  and  C_4
REMARK    3  A    between atoms: C_2  and  N_16
REMARK    4  A    between atoms: N_6  and  C_7
REMARK    5  A    between atoms: C_12  and  C_13
REMARK    6  A    between atoms: C_13  and  N_15
REMARK                            x       y       z     vdW  Elec       q    Type
REMARK                         _______ _______ _______ _____ _____    ______ ____
ROOT
ATOM      1  C   UNL     1      -1.434  -0.138   0.232  0.00  0.00    +0.203 C 
ATOM      2  O   UNL     1      -1.585  -1.116  -0.471  0.00  0.00    -0.277 OA
ATOM      3  N   UNL     1      -2.430   0.267   1.044  0.00  0.00    -0.286 N 
ATOM      4  H   UNL     1      -2.284   1.002   1.660  0.00  0.00    +0.155 HD
ENDROOT
BRANCH   3   5
ATOM      5  C   UNL     1      -3.669  -0.369   0.999  0.00  0.00    +0.043 A 
ATOM      6  C   UNL     1      -4.291  -0.598  -0.221  0.00  0.00    +0.024 A 
ATOM      7  C   UNL     1      -5.519  -1.228  -0.264  0.00  0.00    +0.002 A 
ATOM      8  C   UNL     1      -6.139  -1.636   0.906  0.00  0.00    +0.001 A 
ATOM      9  C   UNL     1      -5.537  -1.416   2.126  0.00  0.00    +0.012 A 
ATOM     10  C   UNL     1      -4.292  -0.786   2.185  0.00  0.00    +0.024 A 
BRANCH  10  11
ATOM     11  C   UNL     1      -3.639  -0.553   3.486  0.00  0.00    +0.079 C 
ATOM     12  S   UNL     1      -2.040   0.053   3.545  0.00  0.00    -0.035 S 
BRANCH  11  13
ATOM     13  N   UNL     1      -4.302  -0.819   4.629  0.00  0.00    -0.352 N 
ATOM     14  H   UNL     1      -5.208  -1.163   4.595  0.00  0.00    +0.143 HD
ATOM     15  H   UNL     1      -3.873  -0.666   5.485  0.00  0.00    +0.143 HD
ENDBRANCH  11  13
ENDBRANCH  10  11
ENDBRANCH   3   5
BRANCH   1  17
ATOM     16  C   UNL     1      -0.400   2.066  -0.237  0.00  0.00    -0.004 C 
ATOM     17  C   UNL     1      -0.134   0.623   0.196  0.00  0.00    +0.016 C 
BRANCH  17  18
ATOM     18  N   UNL     1       0.780  -0.015  -0.761  0.00  0.00    +0.388 N 
ATOM     19  C   UNL     1       2.076   0.660  -0.747  0.00  0.00    -0.077 C 
ATOM     20  C   UNL     1       2.529   0.868  -2.194  0.00  0.00    -0.008 C 
ATOM     21  C   UNL     1       2.273  -0.315  -3.139  0.00  0.00    +0.067 C 
ATOM     22  S   UNL     1       2.705  -1.909  -2.412  0.00  0.00    -0.163 S 
ATOM     23  C   UNL     1       1.205  -2.364  -1.451  0.00  0.00    +0.050 C 
ATOM     24  C   UNL     1       1.045  -1.401  -0.360  0.00  0.00    -0.067 C 
ATOM     25  H   UNL     1       0.384   0.008  -1.689  0.00  0.00    -0.081 HD
ENDBRANCH  17  18
ENDBRANCH   1  17
TORSDOF 5
