REMARK  Name = ZINC67396258
REMARK  6 active torsions:
REMARK  status: ('A' for Active; 'I' for Inactive)
REMARK    1  A    between atoms: C_1  and  C_2
REMARK    2  A    between atoms: C_2  and  C_4
REMARK    3  A    between atoms: C_2  and  N_12
REMARK    4  A    between atoms: C_4  and  C_5
REMARK    5  A    between atoms: C_8  and  O_11
REMARK    6  A    between atoms: C_13  and  C_15
REMARK                            x       y       z     vdW  Elec       q    Type
REMARK                         _______ _______ _______ _____ _____    ______ ____
ROOT
ATOM      1  N   UNL     1      -1.329  -0.613  -0.015  0.00  0.00    -0.305 N 
ATOM      2  C   UNL     1      -2.009  -0.777  -1.167  0.00  0.00    +0.300 C 
ATOM      3  O   UNL     1      -1.448  -0.614  -2.231  0.00  0.00    -0.265 OA
ATOM      4  H   UNL     1      -1.777  -0.744   0.836  0.00  0.00    +0.149 HD
ENDROOT
BRANCH   2   5
ATOM      5  C   UNL     1      -3.452  -1.160  -1.134  0.00  0.00    +0.306 C 
ATOM      6  O   UNL     1      -3.983  -1.437  -0.078  0.00  0.00    -0.265 OA
ATOM      7  N   UNL     1      -4.165  -1.197  -2.277  0.00  0.00    -0.263 N 
ATOM      8  C   UNL     1      -3.541  -0.841  -3.559  0.00  0.00    +0.114 C 
ATOM      9  C   UNL     1      -4.515   0.070  -4.317  0.00  0.00    +0.024 C 
ATOM     10  C   UNL     1      -5.792  -0.714  -4.619  0.00  0.00    +0.038 C 
ATOM     11  C   UNL     1      -6.324  -1.357  -3.366  0.00  0.00    -0.026 A 
ATOM     12  C   UNL     1      -5.511  -1.580  -2.263  0.00  0.00    +0.040 A 
ATOM     13  C   UNL     1      -6.032  -2.185  -1.125  0.00  0.00    +0.024 A 
ATOM     14  C   UNL     1      -7.358  -2.568  -1.090  0.00  0.00    +0.002 A 
ATOM     15  C   UNL     1      -8.168  -2.349  -2.189  0.00  0.00    +0.000 A 
ATOM     16  C   UNL     1      -7.654  -1.737  -3.321  0.00  0.00    +0.005 A 
ENDBRANCH   2   5
BRANCH   1  18
ATOM     17  C   UNL     1       0.209   1.283  -0.164  0.00  0.00    +0.028 C 
ATOM     18  C   UNL     1       0.087  -0.238  -0.046  0.00  0.00    +0.075 C 
BRANCH  18  19
ATOM     19  C   UNL     1       0.768  -0.706   1.241  0.00  0.00    +0.057 C 
BRANCH  19  20
ATOM     20  C   UNL     1       0.756  -2.212   1.297  0.00  0.00    -0.045 A 
ATOM     21  C   UNL     1      -0.307  -2.873   1.885  0.00  0.00    +0.007 A 
ATOM     22  C   UNL     1      -0.320  -4.253   1.938  0.00  0.00    +0.045 A 
ATOM     23  C   UNL     1       0.734  -4.977   1.399  0.00  0.00    +0.117 A 
ATOM     24  C   UNL     1       1.798  -4.312   0.808  0.00  0.00    +0.045 A 
ATOM     25  C   UNL     1       1.805  -2.931   0.754  0.00  0.00    +0.007 A 
BRANCH  23  26
ATOM     26  O   UNL     1       0.723  -6.335   1.450  0.00  0.00    -0.507 OA
ATOM     27  H   UNL     1       0.304  -6.754   0.686  0.00  0.00    +0.292 HD
ENDBRANCH  23  26
ENDBRANCH  19  20
ENDBRANCH  18  19
ENDBRANCH   1  18
TORSDOF 5
