REMARK  Name = ZINC39531016
REMARK  10 active torsions:
REMARK  status: ('A' for Active; 'I' for Inactive)
REMARK    1  A    between atoms: C_4  and  C_7
REMARK    2  A    between atoms: C_7  and  C_8
REMARK    3  A    between atoms: C_11  and  C_14
REMARK    4  A    between atoms: C_14  and  C_16
REMARK    5  A    between atoms: C_14  and  N_25
REMARK    6  A    between atoms: C_16  and  N_17
REMARK    7  A    between atoms: N_17  and  C_18
REMARK    8  A    between atoms: C_23  and  O_24
REMARK    9  A    between atoms: C_29  and  C_32
REMARK   10  A    between atoms: C_37  and  O_38
REMARK                            x       y       z     vdW  Elec       q    Type
REMARK                         _______ _______ _______ _____ _____    ______ ____
ROOT
ATOM      1  C   UNL     1       5.466  -1.672   5.335  0.00  0.00    -0.021 C 
ENDROOT
BRANCH   1   2
ATOM      2  N   UNL     1       5.721  -3.118   5.376  0.00  0.00    +0.383 N 
ATOM      3  C   UNL     1       6.015  -3.525   6.756  0.00  0.00    -0.097 C 
ATOM      4  C   UNL     1       6.280  -5.031   6.799  0.00  0.00    -0.101 C 
ATOM      5  N   UNL     1       7.427  -5.351   5.939  0.00  0.00    +0.381 N 
ATOM      6  C   UNL     1       7.133  -4.944   4.559  0.00  0.00    -0.054 C 
ATOM      7  C   UNL     1       6.869  -3.438   4.516  0.00  0.00    -0.089 C 
ATOM      8  H   UNL     1       8.243  -4.857   6.269  0.00  0.00    -0.085 HD
ATOM      9  H   UNL     1       7.602  -6.345   5.968  0.00  0.00    -0.085 HD
ATOM     10  H   UNL     1       4.905  -3.613   5.046  0.00  0.00    -0.081 HD
BRANCH   6  11
ATOM     11  C   UNL     1       8.311  -5.272   3.677  0.00  0.00    -0.022 A 
ATOM     12  C   UNL     1       9.558  -5.476   4.236  0.00  0.00    +0.005 A 
ATOM     13  C   UNL     1      10.639  -5.776   3.428  0.00  0.00    +0.000 A 
ATOM     14  C   UNL     1      10.474  -5.874   2.058  0.00  0.00    +0.004 A 
ATOM     15  C   UNL     1       9.230  -5.673   1.495  0.00  0.00    +0.045 A 
ATOM     16  C   UNL     1       8.142  -5.376   2.304  0.00  0.00    +0.118 A 
BRANCH  16  17
ATOM     17  O   UNL     1       6.916  -5.183   1.752  0.00  0.00    -0.507 OA
ATOM     18  H   UNL     1       6.735  -4.265   1.506  0.00  0.00    +0.292 HD
ENDBRANCH  16  17
ENDBRANCH   6  11
ENDBRANCH   1   2
BRANCH   1  22
ATOM     19  C   UNL     1       4.723  -0.472   1.303  0.00  0.00    -0.043 A 
ATOM     20  C   UNL     1       5.482   0.330   2.134  0.00  0.00    +0.004 A 
ATOM     21  C   UNL     1       5.723  -0.058   3.439  0.00  0.00    +0.002 A 
ATOM     22  C   UNL     1       5.203  -1.248   3.913  0.00  0.00    -0.059 A 
ATOM     23  C   UNL     1       4.443  -2.050   3.082  0.00  0.00    +0.002 A 
ATOM     24  C   UNL     1       4.199  -1.660   1.779  0.00  0.00    +0.004 A 
BRANCH  19  25
ATOM     25  C   UNL     1       4.461  -0.049  -0.119  0.00  0.00    +0.070 C 
BRANCH  25  29
ATOM     26  C   UNL     1       0.891   2.293  -0.275  0.00  0.00    +0.000 A 
ATOM     27  C   UNL     1       2.112   2.907  -0.072  0.00  0.00    +0.000 A 
ATOM     28  C   UNL     1       3.268   2.150  -0.021  0.00  0.00    +0.004 A 
ATOM     29  C   UNL     1       3.201   0.777  -0.173  0.00  0.00    -0.043 A 
ATOM     30  C   UNL     1       1.980   0.163  -0.376  0.00  0.00    +0.004 A 
ATOM     31  C   UNL     1       0.825   0.920  -0.428  0.00  0.00    +0.000 A 
ENDBRANCH  25  29
ENDBRANCH  19  25
ENDBRANCH   1  22
BRANCH   1  32
ATOM     32  C   UNL     1       4.247  -1.344   6.199  0.00  0.00    +0.091 C 
BRANCH  32  33
ATOM     33  N   UNL     1       4.043   0.106   6.225  0.00  0.00    -0.342 N 
ATOM     34  H   UNL     1       4.608   0.685   5.690  0.00  0.00    +0.146 HD
BRANCH  33  35
ATOM     35  C   UNL     1       3.032   0.656   7.022  0.00  0.00    +0.069 A 
ATOM     36  C   UNL     1       2.226  -0.170   7.792  0.00  0.00    +0.026 A 
ATOM     37  C   UNL     1       1.229   0.376   8.578  0.00  0.00    +0.002 A 
ATOM     38  C   UNL     1       1.032   1.744   8.600  0.00  0.00    +0.004 A 
ATOM     39  C   UNL     1       1.832   2.574   7.835  0.00  0.00    +0.047 A 
ATOM     40  C   UNL     1       2.836   2.035   7.048  0.00  0.00    +0.138 A 
BRANCH  40  41
ATOM     41  O   UNL     1       3.627   2.851   6.299  0.00  0.00    -0.505 OA
ATOM     42  H   UNL     1       3.287   3.019   5.409  0.00  0.00    +0.292 HD
ENDBRANCH  40  41
ENDBRANCH  33  35
ENDBRANCH  32  33
ENDBRANCH   1  32
TORSDOF 10
