REMARK  Name = ZINC09608104
REMARK  7 active torsions:
REMARK  status: ('A' for Active; 'I' for Inactive)
REMARK    1  A    between atoms: C_1  and  C_2
REMARK    2  A    between atoms: C_8  and  N_10
REMARK    3  A    between atoms: C_11  and  C_13
REMARK    4  A    between atoms: C_16  and  C_19
REMARK    5  A    between atoms: C_19  and  N_20
REMARK    6  A    between atoms: N_20  and  S_21
REMARK    7  A    between atoms: S_21  and  C_24
REMARK                            x       y       z     vdW  Elec       q    Type
REMARK                         _______ _______ _______ _____ _____    ______ ____
ROOT
ATOM      1  C   UNL     1       5.377   7.021   4.050  0.00  0.00    +0.075 C 
ATOM      2  C   UNL     1       5.468   5.546   4.444  0.00  0.00    +0.013 C 
ATOM      3  C   UNL     1       5.025   4.675   3.267  0.00  0.00    +0.005 C 
ATOM      4  C   UNL     1       3.580   5.015   2.897  0.00  0.00    +0.005 C 
ATOM      5  C   UNL     1       3.488   6.491   2.503  0.00  0.00    +0.005 C 
ATOM      6  C   UNL     1       3.932   7.362   3.680  0.00  0.00    +0.013 C 
ENDROOT
BRANCH   1   8
ATOM      7  N   UNL     1       5.816   9.222   5.092  0.00  0.00    -0.312 N 
ATOM      8  C   UNL     1       5.814   7.879   5.210  0.00  0.00    +0.216 C 
ATOM      9  O   UNL     1       6.164   7.361   6.249  0.00  0.00    -0.276 OA
ATOM     10  H   UNL     1       5.535   9.636   4.261  0.00  0.00    +0.149 HD
BRANCH   7  17
ATOM     11  C   UNL     1       4.073  11.295   6.119  0.00  0.00    +0.009 C 
ATOM     12  C   UNL     1       5.596  11.438   6.102  0.00  0.00    +0.006 C 
ATOM     13  C   UNL     1       6.032  12.094   4.790  0.00  0.00    +0.005 C 
ATOM     14  C   UNL     1       7.556  12.237   4.773  0.00  0.00    +0.000 C 
ATOM     15  C   UNL     1       8.199  10.854   4.890  0.00  0.00    +0.002 C 
ATOM     16  C   UNL     1       7.763  10.198   6.202  0.00  0.00    +0.022 C 
ATOM     17  C   UNL     1       6.240  10.055   6.220  0.00  0.00    +0.076 C 
ENDBRANCH   7  17
ENDBRANCH   1   8
BRANCH   4  18
ATOM     18  C   UNL     1       3.136   4.145   1.720  0.00  0.00    +0.109 C 
BRANCH  18  19
ATOM     19  N   UNL     1       1.718   4.385   1.442  0.00  0.00    -0.190 NA
ATOM     20  H   UNL     1       1.166   4.841   2.096  0.00  0.00    +0.148 HD
BRANCH  19  21
ATOM     21  S   UNL     1       1.056   3.875   0.012  0.00  0.00    +0.061 S 
ATOM     22  O   UNL     1       1.925   4.323  -1.019  0.00  0.00    -0.153 OA
ATOM     23  O   UNL     1      -0.320   4.226   0.054  0.00  0.00    -0.153 OA
BRANCH  21  24
ATOM     24  C   UNL     1       1.128   2.115   0.003  0.00  0.00    +0.133 A 
ATOM     25  C   UNL     1      -0.017   1.391   0.010  0.00  0.00    +0.031 A 
ATOM     26  C   UNL     1       0.002  -0.004   0.002  0.00  0.00    +0.004 A 
ATOM     27  C   UNL     1       1.166  -0.697  -0.013  0.00  0.00    +0.031 A 
ATOM     28  C   UNL     1       2.404  -0.004  -0.021  0.00  0.00    +0.102 A 
ATOM     29  C   UNL     1       2.385   1.456  -0.013  0.00  0.00    +0.126 A 
ATOM     30  N   UNL     1       3.612   1.973  -0.022  0.00  0.00    -0.189 NA
ATOM     31  S   UNL     1       4.599   0.756  -0.039  0.00  0.00    +0.117 S 
ATOM     32  N   UNL     1       3.645  -0.487  -0.036  0.00  0.00    -0.191 NA
ENDBRANCH  21  24
ENDBRANCH  19  21
ENDBRANCH  18  19
ENDBRANCH   4  18
TORSDOF 6
