REMARK  Name = ZINC16041345
REMARK  7 active torsions:
REMARK  status: ('A' for Active; 'I' for Inactive)
REMARK    1  A    between atoms: C_1  and  C_2
REMARK    2  A    between atoms: C_5  and  C_8
REMARK    3  A    between atoms: N_10  and  C_11
REMARK    4  A    between atoms: C_11  and  C_13
REMARK    5  A    between atoms: C_11  and  O_17
REMARK    6  A    between atoms: O_17  and  C_18
REMARK    7  A    between atoms: C_18  and  C_19
REMARK                            x       y       z     vdW  Elec       q    Type
REMARK                         _______ _______ _______ _____ _____    ______ ____
ROOT
ATOM      1  C   UNL     1      -1.295   2.059   0.019  0.00  0.00    +0.257 C 
ENDROOT
BRANCH   1   4
ATOM      2  C   UNL     1       0.002  -0.004   0.002  0.00  0.00    +0.246 C 
ATOM      3  O   UNL     1      -1.042  -0.626   0.009  0.00  0.00    -0.270 OA
ATOM      4  N   UNL     1      -0.016   1.344   0.009  0.00  0.00    -0.283 N 
ATOM      5  H   UNL     1       0.817   1.840   0.004  0.00  0.00    +0.152 HD
BRANCH   2  10
ATOM      6  C   UNL     1       5.024  -2.813  -0.061  0.00  0.00    +0.044 C 
ATOM      7  C   UNL     1       3.709  -2.078  -0.045  0.00  0.00    -0.050 A 
ATOM      8  C   UNL     1       2.522  -2.789  -0.037  0.00  0.00    +0.004 A 
ATOM      9  C   UNL     1       1.315  -2.121  -0.022  0.00  0.00    +0.013 A 
ATOM     10  C   UNL     1       1.292  -0.726  -0.014  0.00  0.00    +0.037 A 
ATOM     11  C   UNL     1       2.493  -0.015  -0.028  0.00  0.00    +0.013 A 
ATOM     12  C   UNL     1       3.694  -0.694  -0.037  0.00  0.00    +0.004 A 
ENDBRANCH   2  10
ENDBRANCH   1   4
BRANCH   1  13
ATOM     13  C   UNL     1      -1.159   3.334   0.853  0.00  0.00    +0.233 C 
ATOM     14 CL   UNL     1      -2.732   4.215   0.865  0.00  0.00    -0.079 Cl
ATOM     15 CL   UNL     1      -0.699   2.902   2.542  0.00  0.00    -0.079 Cl
ATOM     16 CL   UNL     1       0.114   4.389   0.134  0.00  0.00    -0.079 Cl
ENDBRANCH   1  13
BRANCH   1  17
ATOM     17  O   UNL     1      -1.659   2.401  -1.319  0.00  0.00    -0.354 OA
BRANCH  17  18
ATOM     18  C   UNL     1      -2.139   1.298  -2.091  0.00  0.00    +0.164 C 
BRANCH  18  19
ATOM     19  C   UNL     1      -2.498   1.778  -3.499  0.00  0.00    +0.001 C 
ATOM     20  C   UNL     1      -1.231   2.255  -4.211  0.00  0.00    +0.002 C 
ATOM     21  C   UNL     1      -0.266   1.073  -4.340  0.00  0.00    -0.018 C 
ATOM     22  C   UNL     1      -0.955  -0.043  -5.125  0.00  0.00    -0.078 C 
ATOM     23  C   UNL     1      -3.132   0.625  -4.284  0.00  0.00    -0.063 C 
ATOM     24  C   UNL     1      -4.370   0.151  -3.513  0.00  0.00    -0.015 C 
ATOM     25  C   UNL     1      -5.012  -1.032  -4.239  0.00  0.00    -0.003 C 
ATOM     26  C   UNL     1      -3.974  -2.151  -4.369  0.00  0.00    -0.019 C 
ATOM     27  C   UNL     1      -2.766  -1.618  -5.139  0.00  0.00    -0.078 C 
ATOM     28  N   UNL     1      -2.160  -0.490  -4.407  0.00  0.00    +0.382 N 
ATOM     29  H   UNL     1      -1.895  -0.803  -3.466  0.00  0.00    -0.081 HD
ENDBRANCH  18  19
ENDBRANCH  17  18
ENDBRANCH   1  17
TORSDOF 6
