REMARK  Name = ZINC02886297
REMARK  7 active torsions:
REMARK  status: ('A' for Active; 'I' for Inactive)
REMARK    1  A    between atoms: C_1  and  S_2
REMARK    2  A    between atoms: S_2  and  C_3
REMARK    3  A    between atoms: C_7  and  C_9
REMARK    4  A    between atoms: N_11  and  C_12
REMARK    5  A    between atoms: C_13  and  C_20
REMARK    6  A    between atoms: N_22  and  C_23
REMARK    7  A    between atoms: C_23  and  C_24
REMARK                            x       y       z     vdW  Elec       q    Type
REMARK                         _______ _______ _______ _____ _____    ______ ____
ROOT
ATOM      1  C   UNL     1      -4.817  -2.739   0.034  0.00  0.00    +0.085 A 
ATOM      2  C   UNL     1      -6.102  -2.225   0.055  0.00  0.00    +0.069 A 
ATOM      3  C   UNL     1      -7.212  -3.176   0.057  0.00  0.00    -0.023 A 
ATOM      4  C   UNL     1      -6.853  -4.473   0.046  0.00  0.00    -0.004 A 
ATOM      5  S   UNL     1      -5.077  -4.450   0.029  0.00  0.00    -0.077 S 
ATOM      6  C   UNL     1      -8.047  -5.388   0.051  0.00  0.00    +0.043 C 
ATOM      7  C   UNL     1      -9.230  -4.488  -0.370  0.00  0.00    +0.010 C 
ATOM      8  C   UNL     1      -8.739  -3.096   0.075  0.00  0.00    +0.037 C 
ENDROOT
BRANCH   1  11
ATOM      9  C   UNL     1      -2.450  -2.731   0.011  0.00  0.00    +0.269 C 
ATOM     10  O   UNL     1      -2.455  -3.946   0.005  0.00  0.00    -0.268 OA
ATOM     11  N   UNL     1      -3.614  -2.052   0.026  0.00  0.00    -0.274 N 
ATOM     12  H   UNL     1      -3.610  -1.082   0.031  0.00  0.00    +0.156 HD
BRANCH   9  17
ATOM     13  C   UNL     1       0.002  -0.004   0.002  0.00  0.00    +0.189 A 
ATOM     14  N   UNL     1       1.170  -0.634  -0.013  0.00  0.00    -0.229 NA
ATOM     15  C   UNL     1       1.230  -1.953  -0.020  0.00  0.00    +0.136 A 
ATOM     16  C   UNL     1       0.050  -2.687  -0.013  0.00  0.00    +0.090 A 
ATOM     17  C   UNL     1      -1.162  -1.995   0.002  0.00  0.00    +0.148 A 
ATOM     18  N   UNL     1      -1.145  -0.663   0.015  0.00  0.00    -0.216 NA
ATOM     19 CL   UNL     1       0.083  -4.423  -0.023  0.00  0.00    -0.080 Cl
BRANCH  13  21
ATOM     20  C   UNL     1       1.756   2.096  -0.004  0.00  0.00    +0.093 C 
ATOM     21  S   UNL     1      -0.022   1.758   0.012  0.00  0.00    -0.089 S 
ENDBRANCH  13  21
ENDBRANCH   9  17
ENDBRANCH   1  11
BRANCH   2  22
ATOM     22  C   UNL     1      -6.341  -0.778   0.071  0.00  0.00    +0.247 C 
ATOM     23  O   UNL     1      -6.454  -0.168  -0.976  0.00  0.00    -0.270 OA
ATOM     24  N   UNL     1      -6.436  -0.124   1.245  0.00  0.00    -0.304 N 
ATOM     25  H   UNL     1      -6.346  -0.610   2.080  0.00  0.00    +0.149 HD
BRANCH  24  26
ATOM     26  C   UNL     1      -6.675   1.322   1.261  0.00  0.00    +0.179 C 
BRANCH  26  27
ATOM     27  C   UNL     1      -6.738   1.805   2.687  0.00  0.00    +0.122 A 
ATOM     28  C   UNL     1      -5.695   2.235   3.419  0.00  0.00    +0.046 A 
ATOM     29  C   UNL     1      -6.204   2.588   4.690  0.00  0.00    +0.041 A 
ATOM     30  C   UNL     1      -7.528   2.353   4.659  0.00  0.00    +0.195 A 
ATOM     31  O   UNL     1      -7.847   1.884   3.441  0.00  0.00    -0.466 OA
ENDBRANCH  26  27
ENDBRANCH  24  26
ENDBRANCH   2  22
TORSDOF 6
