REMARK  Name = ZINC11567777
REMARK  9 active torsions:
REMARK  status: ('A' for Active; 'I' for Inactive)
REMARK    1  A    between atoms: C_1  and  C_2
REMARK    2  A    between atoms: C_5  and  C_8
REMARK    3  A    between atoms: C_8  and  C_9
REMARK    4  A    between atoms: C_10  and  C_26
REMARK    5  A    between atoms: C_12  and  C_25
REMARK    6  A    between atoms: N_14  and  C_24
REMARK    7  A    between atoms: N_16  and  C_19
REMARK    8  A    between atoms: C_19  and  C_21
REMARK    9  A    between atoms: C_19  and  C_22
REMARK                            x       y       z     vdW  Elec       q    Type
REMARK                         _______ _______ _______ _____ _____    ______ ____
ROOT
ATOM      1  C   UNL     1       1.457   2.562   4.054  0.00  0.00    +0.025 A 
ATOM      2  C   UNL     1       1.154   2.047   2.833  0.00  0.00    -0.029 A 
ATOM      3  C   UNL     1      -0.200   1.811   2.502  0.00  0.00    +0.043 A 
ATOM      4  C   UNL     1      -0.843   1.300   1.351  0.00  0.00    +0.069 A 
ATOM      5  N   UNL     1      -2.128   1.297   1.572  0.00  0.00    -0.174 NA
ATOM      6  N   UNL     1      -2.378   1.789   2.858  0.00  0.00    -0.251 N 
ATOM      7  C   UNL     1      -1.198   2.110   3.432  0.00  0.00    +0.143 A 
ATOM      8  N   UNL     1      -0.861   2.626   4.654  0.00  0.00    -0.279 N 
ATOM      9  C   UNL     1       0.429   2.851   4.970  0.00  0.00    +0.257 A 
ATOM     10  O   UNL     1       0.709   3.312   6.064  0.00  0.00    -0.267 OA
ATOM     11  C   UNL     1      -3.699   1.937   3.476  0.00  0.00    +0.174 C 
ATOM     12  C   UNL     1      -0.163   0.843   0.087  0.00  0.00    +0.068 C 
ATOM     13  C   UNL     1       2.248   1.734   1.845  0.00  0.00    +0.045 C 
ENDROOT
BRANCH   8  14
ATOM     14  C   UNL     1      -1.911   2.937   5.626  0.00  0.00    +0.202 C 
ATOM     15  C   UNL     1      -1.772   2.016   6.840  0.00  0.00    +0.043 C 
BRANCH  14  16
ATOM     16  C   UNL     1      -1.780   4.372   6.067  0.00  0.00    +0.378 C 
ATOM     17  O   UNL     1      -0.898   5.064   5.615  0.00  0.00    -0.244 OA
ATOM     18  O   UNL     1      -2.641   4.881   6.961  0.00  0.00    -0.244 OA
ENDBRANCH  14  16
ENDBRANCH   8  14
BRANCH   1  19
ATOM     19  C   UNL     1       2.893   2.821   4.428  0.00  0.00    +0.076 C 
BRANCH  19  24
ATOM     20  C   UNL     1       4.259   8.290   3.154  0.00  0.00    +0.044 C 
ATOM     21  C   UNL     1       3.903   6.864   3.486  0.00  0.00    -0.050 A 
ATOM     22  C   UNL     1       3.393   6.551   4.732  0.00  0.00    +0.003 A 
ATOM     23  C   UNL     1       3.066   5.243   5.037  0.00  0.00    +0.004 A 
ATOM     24  C   UNL     1       3.249   4.247   4.096  0.00  0.00    -0.043 A 
ATOM     25  C   UNL     1       3.764   4.559   2.851  0.00  0.00    +0.004 A 
ATOM     26  C   UNL     1       4.087   5.868   2.545  0.00  0.00    +0.003 A 
ENDBRANCH  19  24
ENDBRANCH   1  19
TORSDOF 4
