REMARK  Name = ZINC12097924
REMARK  13 active torsions:
REMARK  status: ('A' for Active; 'I' for Inactive)
REMARK    1  A    between atoms: C_1  and  O_2
REMARK    2  A    between atoms: O_2  and  C_3
REMARK    3  A    between atoms: C_6  and  C_9
REMARK    4  A    between atoms: C_10  and  C_21
REMARK    5  A    between atoms: C_15  and  S_19
REMARK    6  A    between atoms: S_19  and  C_20
REMARK    7  A    between atoms: C_21  and  N_60
REMARK    8  A    between atoms: C_22  and  C_23
REMARK    9  A    between atoms: C_22  and  N_60
REMARK   10  A    between atoms: C_27  and  O_31
REMARK   11  A    between atoms: C_28  and  O_29
REMARK   12  A    between atoms: O_29  and  C_30
REMARK   13  A    between atoms: O_31  and  C_32
REMARK                            x       y       z     vdW  Elec       q    Type
REMARK                         _______ _______ _______ _____ _____    ______ ____
ROOT
ATOM      1  C   UNL     1      -6.855   0.634   2.983  0.00  0.00    +0.073 A 
ATOM      2  C   UNL     1      -7.279  -0.112   1.873  0.00  0.00    -0.038 A 
ATOM      3  C   UNL     1      -6.361  -0.596   0.989  0.00  0.00    +0.013 A 
ATOM      4  C   UNL     1      -4.999  -0.327   1.225  0.00  0.00    +0.001 A 
ATOM      5  C   UNL     1      -4.005  -0.798   0.351  0.00  0.00    +0.011 A 
ATOM      6  C   UNL     1      -2.697  -0.520   0.599  0.00  0.00    +0.015 A 
ATOM      7  C   UNL     1      -2.324   0.224   1.726  0.00  0.00    +0.010 A 
ATOM      8  C   UNL     1      -3.275   0.702   2.602  0.00  0.00    +0.043 A 
ATOM      9  C   UNL     1      -4.633   0.433   2.365  0.00  0.00    +0.073 A 
ATOM     10  N   UNL     1      -5.576   0.883   3.198  0.00  0.00    -0.246 NA
ENDROOT
BRANCH   1  14
ATOM     11  C   UNL     1      -9.750   2.126   5.717  0.00  0.00    +0.120 A 
ATOM     12  C   UNL     1      -9.773   0.788   5.345  0.00  0.00    +0.046 A 
ATOM     13  C   UNL     1      -8.836   0.301   4.458  0.00  0.00    +0.013 A 
ATOM     14  C   UNL     1      -7.864   1.154   3.936  0.00  0.00    +0.001 A 
ATOM     15  C   UNL     1      -7.841   2.496   4.315  0.00  0.00    +0.013 A 
ATOM     16  C   UNL     1      -8.784   2.978   5.198  0.00  0.00    +0.046 A 
BRANCH  11  18
ATOM     17  C   UNL     1     -10.593   3.988   6.930  0.00  0.00    +0.277 C 
ATOM     18  O   UNL     1     -10.675   2.602   6.591  0.00  0.00    -0.495 OA
ENDBRANCH  11  18
ENDBRANCH   1  14
BRANCH   7  19
ATOM     19  S   UNL     1      -0.620   0.561   2.022  0.00  0.00    -0.129 S 
ATOM     20  C   UNL     1       0.234  -0.247   0.640  0.00  0.00    +0.090 C 
ENDBRANCH   7  19
BRANCH   2  21
ATOM     21  C   UNL     1      -8.747  -0.378   1.658  0.00  0.00    -0.044 C 
BRANCH  21  22
ATOM     22  N   UNL     1      -9.404   0.867   1.218  0.00  0.00    +0.385 N 
ATOM     23  H   UNL     1      -8.975   1.184   0.340  0.00  0.00    -0.085 HD
ATOM     24  H   UNL     1      -9.282   1.588   1.938  0.00  0.00    -0.085 HD
BRANCH  22  25
ATOM     25  C   UNL     1     -10.845   0.636   0.999  0.00  0.00    -0.043 C 
BRANCH  25  26
ATOM     26  C   UNL     1     -11.489   1.923   0.551  0.00  0.00    -0.019 A 
ATOM     27  C   UNL     1     -12.184   2.701   1.458  0.00  0.00    +0.005 A 
ATOM     28  C   UNL     1     -12.776   3.881   1.049  0.00  0.00    +0.004 A 
ATOM     29  C   UNL     1     -12.676   4.289  -0.268  0.00  0.00    +0.049 A 
ATOM     30  C   UNL     1     -11.981   3.514  -1.182  0.00  0.00    +0.162 A 
ATOM     31  C   UNL     1     -11.379   2.329  -0.769  0.00  0.00    +0.163 A 
BRANCH  31  32
ATOM     32  O   UNL     1     -10.691   1.567  -1.661  0.00  0.00    -0.491 OA
ATOM     33  C   UNL     1     -11.430   0.571  -2.370  0.00  0.00    +0.277 C 
ENDBRANCH  31  32
BRANCH  30  34
ATOM     34  O   UNL     1     -11.881   3.914  -2.478  0.00  0.00    -0.491 OA
ATOM     35  C   UNL     1     -12.518   5.144  -2.829  0.00  0.00    +0.277 C 
ENDBRANCH  30  34
ENDBRANCH  25  26
ENDBRANCH  22  25
ENDBRANCH  21  22
ENDBRANCH   2  21
TORSDOF 9
