REMARK  Name = ZINC08893123
REMARK  5 active torsions:
REMARK  status: ('A' for Active; 'I' for Inactive)
REMARK    1  A    between atoms: C_6  and  N_7
REMARK    2  A    between atoms: C_8  and  C_10
REMARK    3  A    between atoms: C_10  and  S_11
REMARK    4  A    between atoms: S_11  and  C_12
REMARK    5  A    between atoms: N_25  and  C_26
REMARK                            x       y       z     vdW  Elec       q    Type
REMARK                         _______ _______ _______ _____ _____    ______ ____
ROOT
ATOM      1  C   UNL     1      -5.258   0.691   0.259  0.00  0.00    +0.173 A 
ATOM      2  N   UNL     1      -4.942  -0.585   0.339  0.00  0.00    -0.216 NA
ATOM      3  C   UNL     1      -5.884  -1.514   0.454  0.00  0.00    +0.117 A 
ATOM      4  C   UNL     1      -7.250  -1.190   0.496  0.00  0.00    +0.076 A 
ATOM      5  C   UNL     1      -8.172  -2.321   0.625  0.00  0.00    -0.023 A 
ATOM      6  C   UNL     1      -7.624  -3.552   0.689  0.00  0.00    -0.004 A 
ATOM      7  S   UNL     1      -5.875  -3.284   0.585  0.00  0.00    -0.073 S 
ATOM      8  C   UNL     1      -8.344  -4.859   0.820  0.00  0.00    +0.043 C 
ATOM      9  C   UNL     1      -9.792  -4.575   1.244  0.00  0.00    +0.005 C 
ATOM     10  C   UNL     1     -10.358  -3.469   0.349  0.00  0.00    +0.005 C 
ATOM     11  C   UNL     1      -9.685  -2.136   0.683  0.00  0.00    +0.037 C 
ATOM     12  C   UNL     1      -7.565   0.203   0.408  0.00  0.00    +0.263 A 
ATOM     13  O   UNL     1      -8.724   0.578   0.437  0.00  0.00    -0.267 OA
ATOM     14  N   UNL     1      -6.562   1.094   0.297  0.00  0.00    -0.284 N 
ENDROOT
BRANCH  14  15
ATOM     15  C   UNL     1      -6.876   2.522   0.212  0.00  0.00    +0.093 C 
ATOM     16  C   UNL     1      -7.586   2.985   1.500  0.00  0.00    +0.025 C 
ATOM     17  C   UNL     1      -8.636   4.012   1.006  0.00  0.00    +0.002 C 
ATOM     18  C   UNL     1      -9.127   3.388  -0.323  0.00  0.00    +0.002 C 
ATOM     19  C   UNL     1      -7.855   2.778  -0.947  0.00  0.00    +0.025 C 
ENDBRANCH  14  15
BRANCH   1  20
ATOM     20  S   UNL     1      -3.981   1.896   0.107  0.00  0.00    -0.078 S 
BRANCH  20  21
ATOM     21  C   UNL     1      -2.528   0.816   0.118  0.00  0.00    +0.173 C 
BRANCH  21  23
ATOM     22  N   UNL     1      -0.070   1.059  -0.019  0.00  0.00    -0.285 N 
ATOM     23  C   UNL     1      -1.280   1.652  -0.005  0.00  0.00    +0.227 C 
ATOM     24  O   UNL     1      -1.365   2.859  -0.091  0.00  0.00    -0.275 OA
ATOM     25  H   UNL     1      -0.005   0.091  -0.017  0.00  0.00    +0.155 HD
BRANCH  22  31
ATOM     26  C   UNL     1       2.226   1.416   0.641  0.00  0.00    +0.025 A 
ATOM     27  C   UNL     1       3.377   2.178   0.617  0.00  0.00    +0.029 A 
ATOM     28  C   UNL     1       3.400   3.375  -0.082  0.00  0.00    +0.067 A 
ATOM     29  C   UNL     1       2.260   3.807  -0.765  0.00  0.00    +0.069 A 
ATOM     30  C   UNL     1       1.108   3.037  -0.743  0.00  0.00    +0.051 A 
ATOM     31  C   UNL     1       1.092   1.839  -0.043  0.00  0.00    +0.035 A 
ATOM     32  N   UNL     1       2.584   5.023  -1.361  0.00  0.00    -0.306 N 
ATOM     33  H   UNL     1       1.991   5.565  -1.904  0.00  0.00    +0.170 HD
ATOM     34  C   UNL     1       3.862   5.319  -1.056  0.00  0.00    +0.325 A 
ATOM     35  O   UNL     1       4.456   6.316  -1.421  0.00  0.00    -0.247 OA
ATOM     36  N   UNL     1       4.381   4.345  -0.285  0.00  0.00    -0.306 N 
ATOM     37  H   UNL     1       5.284   4.321   0.068  0.00  0.00    +0.170 HD
ENDBRANCH  22  31
ENDBRANCH  21  23
ENDBRANCH  20  21
ENDBRANCH   1  20
TORSDOF 5
