REMARK  Name = ZINC35982250
REMARK  6 active torsions:
REMARK  status: ('A' for Active; 'I' for Inactive)
REMARK    1  A    between atoms: C_1  and  C_2
REMARK    2  A    between atoms: C_5  and  O_37
REMARK    3  A    between atoms: C_18  and  C_36
REMARK    4  A    between atoms: C_23  and  C_24
REMARK    5  A    between atoms: C_27  and  O_30
REMARK    6  A    between atoms: O_30  and  C_31
REMARK                            x       y       z     vdW  Elec       q    Type
REMARK                         _______ _______ _______ _____ _____    ______ ____
ROOT
ATOM      1  C   UNL     1      -0.791   1.999   1.497  0.00  0.00    +0.012 C 
ATOM      2  C   UNL     1      -0.565   0.493   1.294  0.00  0.00    -0.026 C 
ATOM      3  C   UNL     1       0.343   0.265   0.092  0.00  0.00    +0.010 C 
ATOM      4  C   UNL     1       1.697   0.938   0.315  0.00  0.00    +0.032 C 
ATOM      5  C   UNL     1       2.365   0.395   1.573  0.00  0.00    +0.115 C 
ATOM      6  C   UNL     1       1.461   0.515   2.791  0.00  0.00    +0.035 C 
ATOM      7  C   UNL     1       0.076  -0.080   2.559  0.00  0.00    -0.002 C 
ATOM      8  C   UNL     1       0.153  -1.602   2.545  0.00  0.00    +0.004 C 
ATOM      9  C   UNL     1      -1.240  -2.213   2.315  0.00  0.00    +0.004 C 
ATOM     10  C   UNL     1      -1.722  -1.689   0.970  0.00  0.00    -0.003 C 
ATOM     11  C   UNL     1      -1.924  -0.173   1.080  0.00  0.00    -0.001 C 
ATOM     12  C   UNL     1      -2.669   0.322  -0.151  0.00  0.00    +0.005 C 
ATOM     13  C   UNL     1      -4.121  -0.194  -0.142  0.00  0.00    +0.015 C 
ATOM     14  C   UNL     1      -4.214  -1.517   0.572  0.00  0.00    +0.034 C 
ATOM     15  C   UNL     1      -2.924  -2.345   0.385  0.00  0.00    +0.010 C 
ATOM     16  C   UNL     1      -3.395  -3.684   0.974  0.00  0.00    +0.043 C 
ATOM     17  C   UNL     1      -4.794  -3.795   0.360  0.00  0.00    -0.004 C 
ATOM     18  C   UNL     1      -5.479  -4.946   0.161  0.00  0.00    +0.015 C 
ATOM     19  C   UNL     1      -5.249  -2.486   0.036  0.00  0.00    +0.165 C 
ATOM     20  O   UNL     1      -6.262  -2.185  -0.553  0.00  0.00    -0.292 OA
ATOM     21  C   UNL     1      -4.560  -1.304   2.049  0.00  0.00    +0.020 C 
ENDROOT
BRANCH  18  22
ATOM     22  C   UNL     1      -4.953  -6.213   0.683  0.00  0.00    -0.024 A 
ATOM     23  C   UNL     1      -4.055  -6.212   1.758  0.00  0.00    +0.011 A 
ATOM     24  C   UNL     1      -3.565  -7.403   2.243  0.00  0.00    +0.046 A 
ATOM     25  C   UNL     1      -3.960  -8.606   1.668  0.00  0.00    +0.127 A 
ATOM     26  C   UNL     1      -4.851  -8.613   0.600  0.00  0.00    +0.046 A 
ATOM     27  C   UNL     1      -5.352  -7.428   0.111  0.00  0.00    +0.011 A 
BRANCH  25  28
ATOM     28  O   UNL     1      -3.473  -9.777   2.150  0.00  0.00    -0.434 OA
BRANCH  28  29
ATOM     29  C   UNL     1      -3.920 -10.976   1.513  0.00  0.00    +0.541 C 
ATOM     30  F   UNL     1      -5.311 -11.073   1.625  0.00  0.00    -0.166 F 
ATOM     31  F   UNL     1      -3.561 -10.948   0.161  0.00  0.00    -0.166 F 
ENDBRANCH  28  29
ENDBRANCH  25  28
ENDBRANCH  18  22
BRANCH   5  32
ATOM     32  O   UNL     1       2.763  -0.962   1.372  0.00  0.00    -0.392 OA
ATOM     33  H   UNL     1       3.391  -1.084   0.646  0.00  0.00    +0.210 HD
ENDBRANCH   5  32
TORSDOF 4
