REMARK  Name = ZINC11971714
REMARK  7 active torsions:
REMARK  status: ('A' for Active; 'I' for Inactive)
REMARK    1  A    between atoms: C_1  and  C_2
REMARK    2  A    between atoms: C_10  and  C_13
REMARK    3  A    between atoms: C_13  and  N_72
REMARK    4  A    between atoms: C_20  and  C_22
REMARK    5  A    between atoms: N_24  and  C_25
REMARK    6  A    between atoms: C_25  and  C_26
REMARK    7  A    between atoms: C_26  and  C_31
REMARK                            x       y       z     vdW  Elec       q    Type
REMARK                         _______ _______ _______ _____ _____    ______ ____
ROOT
ATOM      1  C   UNL     1      -1.849  -3.027  -5.024  0.00  0.00    -0.078 C 
ATOM      2  C   UNL     1      -1.598  -3.929  -3.811  0.00  0.00    -0.011 C 
ATOM      3  C   UNL     1      -0.213  -3.607  -3.239  0.00  0.00    -0.021 C 
ATOM      4  C   UNL     1       0.924  -3.621  -4.266  0.00  0.00    -0.011 C 
ATOM      5  C   UNL     1       0.524  -2.737  -5.452  0.00  0.00    -0.078 C 
ATOM      6  C   UNL     1       0.100  -4.078  -1.821  0.00  0.00    +0.020 C 
ATOM      7  C   UNL     1      -0.132  -2.592  -2.100  0.00  0.00    +0.082 C 
ATOM      8  N   UNL     1      -0.758  -3.230  -6.003  0.00  0.00    +0.383 N 
ATOM      9  H   UNL     1      -0.671  -4.234  -6.200  0.00  0.00    -0.081 HD
ENDROOT
BRANCH   7  10
ATOM     10  C   UNL     1       1.069  -1.681  -2.064  0.00  0.00    +0.217 C 
ATOM     11  O   UNL     1       2.170  -2.138  -1.839  0.00  0.00    -0.275 OA
ATOM     12  N   UNL     1       0.919  -0.360  -2.283  0.00  0.00    -0.314 N 
ATOM     13  H   UNL     1       0.039   0.005  -2.464  0.00  0.00    +0.149 HD
BRANCH  12  14
ATOM     14  C   UNL     1       2.086   0.525  -2.248  0.00  0.00    +0.115 C 
BRANCH  14  15
ATOM     15  C   UNL     1       1.627   1.979  -2.379  0.00  0.00    +0.011 C 
ATOM     16  C   UNL     1       0.609   2.315  -1.270  0.00  0.00    +0.013 C 
ATOM     17  C   UNL     1       1.464   2.969  -0.155  0.00  0.00    +0.001 C 
ATOM     18  C   UNL     1       2.488   3.808  -0.959  0.00  0.00    +0.001 C 
ATOM     19  C   UNL     1       2.822   2.929  -2.181  0.00  0.00    +0.013 C 
BRANCH  15  20
ATOM     20  C   UNL     1       1.007   2.205  -3.734  0.00  0.00    -0.040 A 
ATOM     21  C   UNL     1       0.429   3.424  -4.035  0.00  0.00    +0.004 A 
ATOM     22  C   UNL     1      -0.144   3.629  -5.276  0.00  0.00    +0.000 A 
ATOM     23  C   UNL     1      -0.131   2.618  -6.219  0.00  0.00    +0.000 A 
ATOM     24  C   UNL     1       0.448   1.399  -5.918  0.00  0.00    +0.000 A 
ATOM     25  C   UNL     1       1.017   1.193  -4.676  0.00  0.00    +0.004 A 
ENDBRANCH  15  20
ENDBRANCH  14  15
ENDBRANCH  12  14
ENDBRANCH   7  10
BRANCH   8  26
ATOM     26  C   UNL     1      -1.071  -2.520  -7.260  0.00  0.00    -0.036 C 
BRANCH  26  36
ATOM     27  C   UNL     1       1.763  -7.223 -12.421  0.00  0.00    +0.044 C 
ATOM     28  C   UNL     1       1.792  -5.934 -11.641  0.00  0.00    -0.050 A 
ATOM     29  C   UNL     1       2.805  -5.013 -11.866  0.00  0.00    +0.007 A 
ATOM     30  C   UNL     1       2.849  -3.829 -11.163  0.00  0.00    +0.047 A 
ATOM     31  C   UNL     1       1.870  -3.548 -10.217  0.00  0.00    +0.138 A 
ATOM     32  C   UNL     1       0.845  -4.481  -9.991  0.00  0.00    +0.064 A 
ATOM     33  C   UNL     1       0.812  -5.675 -10.709  0.00  0.00    +0.018 A 
ATOM     34  C   UNL     1      -0.180  -4.161  -8.978  0.00  0.00    +0.194 A 
ATOM     35  O   UNL     1      -1.092  -4.932  -8.732  0.00  0.00    -0.287 OA
ATOM     36  C   UNL     1      -0.060  -2.917  -8.304  0.00  0.00    +0.018 A 
ATOM     37  C   UNL     1       0.965  -2.097  -8.600  0.00  0.00    +0.201 A 
ATOM     38  O   UNL     1       1.891  -2.396  -9.516  0.00  0.00    -0.462 OA
ENDBRANCH  26  36
ENDBRANCH   8  26
TORSDOF 6
