REMARK  Name = ZINC22226838
REMARK  6 active torsions:
REMARK  status: ('A' for Active; 'I' for Inactive)
REMARK    1  A    between atoms: C_1  and  C_2
REMARK    2  A    between atoms: C_2  and  C_17
REMARK    3  A    between atoms: N_3  and  N_4
REMARK    4  A    between atoms: C_5  and  C_7
REMARK    5  A    between atoms: C_9  and  N_15
REMARK    6  A    between atoms: C_20  and  O_23
REMARK                            x       y       z     vdW  Elec       q    Type
REMARK                         _______ _______ _______ _____ _____    ______ ____
ROOT
ATOM      1  N   UNL     1      -2.355   1.420   0.021  0.00  0.00    -0.201 N 
ATOM      2  C   UNL     1      -3.531   2.078   0.030  0.00  0.00    +0.283 C 
ATOM      3  O   UNL     1      -3.548   3.293   0.037  0.00  0.00    -0.267 OA
ATOM      4  H   UNL     1      -2.340   0.320   0.015  0.00  0.00    +0.178 HD
ENDROOT
BRANCH   2   5
ATOM      5  C   UNL     1      -4.802   1.320   0.032  0.00  0.00    +0.149 A 
ATOM      6  C   UNL     1      -6.014   2.007   0.047  0.00  0.00    +0.094 A 
ATOM      7  C   UNL     1      -7.204   1.278   0.043  0.00  0.00    +0.067 A 
ATOM      8  C   UNL     1      -7.127  -0.114   0.035  0.00  0.00    +0.100 A 
ATOM      9  C   UNL     1      -5.883  -0.724   0.026  0.00  0.00    +0.150 A 
ATOM     10  N   UNL     1      -4.777  -0.009   0.025  0.00  0.00    -0.228 NA
ATOM     11 CL   UNL     1      -5.780  -2.457   0.015  0.00  0.00    -0.060 Cl
ATOM     12 CL   UNL     1      -8.574  -1.072   0.037  0.00  0.00    -0.078 Cl
ATOM     13 CL   UNL     1      -6.043   3.742   0.064  0.00  0.00    -0.079 Cl
BRANCH   7  14
ATOM     14  N   UNL     1      -8.437   1.925   0.053  0.00  0.00    -0.356 N 
ATOM     15  H   UNL     1      -9.367   1.337   0.050  0.00  0.00    +0.142 HD
ATOM     16  H   UNL     1      -8.482   3.024   0.064  0.00  0.00    +0.142 HD
ENDBRANCH   7  14
ENDBRANCH   2   5
BRANCH   1  19
ATOM     17  C   UNL     1       0.002  -0.004   0.002  0.00  0.00    +0.068 C 
ATOM     18  C   UNL     1      -0.018   1.503   0.010  0.00  0.00    +0.063 C 
ATOM     19  N   UNL     1      -1.151   2.136   0.019  0.00  0.00    -0.184 NA
BRANCH  18  20
ATOM     20  C   UNL     1       1.248   2.257   0.002  0.00  0.00    -0.002 A 
ATOM     21  C   UNL     1       2.469   1.577  -0.007  0.00  0.00    +0.013 A 
ATOM     22  C   UNL     1       3.650   2.286  -0.020  0.00  0.00    +0.046 A 
ATOM     23  C   UNL     1       3.629   3.675  -0.012  0.00  0.00    +0.117 A 
ATOM     24  C   UNL     1       2.418   4.355   0.003  0.00  0.00    +0.046 A 
ATOM     25  C   UNL     1       1.232   3.655   0.010  0.00  0.00    +0.013 A 
BRANCH  23  26
ATOM     26  O   UNL     1       4.796   4.370  -0.020  0.00  0.00    -0.507 OA
ATOM     27  H   UNL     1       4.781   5.470  -0.014  0.00  0.00    +0.292 HD
ENDBRANCH  23  26
ENDBRANCH  18  20
ENDBRANCH   1  19
TORSDOF 5
