REMARK  Name = ZINC09719930
REMARK  11 active torsions:
REMARK  status: ('A' for Active; 'I' for Inactive)
REMARK    1  A    between atoms: C_1  and  C_2
REMARK    2  A    between atoms: C_2  and  C_3
REMARK    3  A    between atoms: C_7  and  C_32
REMARK    4  A    between atoms: C_8  and  N_9
REMARK    5  A    between atoms: C_10  and  C_12
REMARK    6  A    between atoms: C_12  and  O_13
REMARK    7  A    between atoms: O_13  and  C_14
REMARK    8  A    between atoms: C_14  and  C_16
REMARK    9  A    between atoms: C_18  and  N_29
REMARK   10  A    between atoms: C_21  and  N_22
REMARK   11  A    between atoms: C_25  and  C_28
REMARK                            x       y       z     vdW  Elec       q    Type
REMARK                         _______ _______ _______ _____ _____    ______ ____
ROOT
ATOM      1  C   UNL     1       3.251   3.724   1.063  0.00  0.00    +0.342 C 
ATOM      2  O   UNL     1       4.081   3.186   0.357  0.00  0.00    -0.245 OA
ENDROOT
BRANCH   1   3
ATOM      3  C   UNL     1       2.407   2.913   1.957  0.00  0.00    +0.082 A 
ATOM      4  C   UNL     1       1.377   3.513   2.687  0.00  0.00    +0.049 A 
ATOM      5  C   UNL     1       0.592   2.749   3.522  0.00  0.00    +0.127 A 
ATOM      6  C   UNL     1       0.814   1.386   3.639  0.00  0.00    +0.034 A 
ATOM      7  C   UNL     1       1.830   0.780   2.930  0.00  0.00    +0.026 A 
ATOM      8  C   UNL     1       2.633   1.533   2.082  0.00  0.00    +0.044 A 
BRANCH   8   9
ATOM      9  N   UNL     1       3.653   0.925   1.364  0.00  0.00    -0.329 N 
ATOM     10  C   UNL     1       4.622   0.286   2.264  0.00  0.00    +0.105 C 
ATOM     11  C   UNL     1       5.803  -0.246   1.449  0.00  0.00    +0.022 C 
ATOM     12  C   UNL     1       5.292  -1.257   0.419  0.00  0.00    -0.011 C 
ATOM     13  C   UNL     1       4.249  -0.580  -0.475  0.00  0.00    +0.022 C 
ATOM     14  C   UNL     1       3.113  -0.038   0.396  0.00  0.00    +0.105 C 
ATOM     15  C   UNL     1       6.460  -1.747  -0.440  0.00  0.00    +0.007 C 
ENDBRANCH   8   9
BRANCH   5  16
ATOM     16  N   UNL     1      -0.499   3.386   4.293  0.00  0.00    +0.056 N 
ATOM     17  O   UNL     1      -0.701   4.583   4.188  0.00  0.00    -0.126 OA
ATOM     18  O   UNL     1      -1.196   2.714   5.032  0.00  0.00    -0.126 OA
ENDBRANCH   5  16
ENDBRANCH   1   3
BRANCH   1  19
ATOM     19  O   UNL     1       3.103   5.063   1.027  0.00  0.00    -0.452 OA
BRANCH  19  20
ATOM     20  C   UNL     1       3.969   5.798   0.122  0.00  0.00    +0.328 C 
BRANCH  20  22
ATOM     21  N   UNL     1       4.346   8.152  -0.537  0.00  0.00    -0.282 N 
ATOM     22  C   UNL     1       3.661   7.270   0.218  0.00  0.00    +0.255 C 
ATOM     23  O   UNL     1       2.797   7.661   0.974  0.00  0.00    -0.272 OA
ATOM     24  H   UNL     1       4.979   7.835  -1.200  0.00  0.00    +0.155 HD
BRANCH  21  30
ATOM     25  C   UNL     1       5.218  10.356  -0.070  0.00  0.00    -0.026 A 
ATOM     26  C   UNL     1       5.015  11.711   0.100  0.00  0.00    +0.005 A 
ATOM     27  C   UNL     1       3.744  12.242  -0.022  0.00  0.00    +0.001 A 
ATOM     28  C   UNL     1       2.672  11.419  -0.315  0.00  0.00    +0.005 A 
ATOM     29  C   UNL     1       2.869  10.064  -0.492  0.00  0.00    -0.029 A 
ATOM     30  C   UNL     1       4.144   9.526  -0.364  0.00  0.00    +0.040 A 
ATOM     31  C   UNL     1       1.702   9.168  -0.818  0.00  0.00    +0.045 C 
BRANCH  25  33
ATOM     32  C   UNL     1       7.249   9.676  -1.319  0.00  0.00    +0.009 C 
ATOM     33  C   UNL     1       6.603   9.777   0.064  0.00  0.00    +0.033 C 
ENDBRANCH  25  33
ENDBRANCH  21  30
ENDBRANCH  20  22
ENDBRANCH  19  20
ENDBRANCH   1  19
TORSDOF 8
