REMARK  Name = ZINC13639050
REMARK  9 active torsions:
REMARK  status: ('A' for Active; 'I' for Inactive)
REMARK    1  A    between atoms: C_1  and  C_2
REMARK    2  A    between atoms: C_4  and  C_29
REMARK    3  A    between atoms: C_6  and  N_8
REMARK    4  A    between atoms: C_9  and  C_11
REMARK    5  A    between atoms: C_12  and  C_28
REMARK    6  A    between atoms: C_16  and  C_18
REMARK    7  A    between atoms: C_21  and  O_26
REMARK    8  A    between atoms: C_22  and  O_24
REMARK    9  A    between atoms: O_24  and  C_25
REMARK                            x       y       z     vdW  Elec       q    Type
REMARK                         _______ _______ _______ _____ _____    ______ ____
ROOT
ATOM      1  C   UNL     1      -0.011  -3.210   4.841  0.00  0.00    +0.056 C 
ATOM      2  C   UNL     1      -0.107  -2.726   6.097  0.00  0.00    +0.017 C 
ATOM      3  N   UNL     1      -0.148  -3.564   7.175  0.00  0.00    -0.300 N 
ATOM      4  C   UNL     1      -0.097  -4.899   7.079  0.00  0.00    +0.135 C 
ATOM      5  N   UNL     1      -0.000  -5.530   5.892  0.00  0.00    -0.315 N 
ATOM      6  C   UNL     1       0.044  -4.715   4.667  0.00  0.00    +0.139 C 
ATOM      7  S   UNL     1      -0.157  -5.834   8.512  0.00  0.00    -0.019 S 
ATOM      8  C   UNL     1      -0.171  -1.236   6.314  0.00  0.00    +0.061 C 
ATOM      9  H   UNL     1      -0.218  -3.171   8.058  0.00  0.00    +0.154 HD
ATOM     10  H   UNL     1       0.035  -6.498   5.846  0.00  0.00    +0.149 HD
ENDROOT
BRANCH   6  11
ATOM     11  C   UNL     1      -1.110  -5.123   3.788  0.00  0.00    -0.019 A 
ATOM     12  C   UNL     1      -2.396  -5.128   4.296  0.00  0.00    +0.009 A 
ATOM     13  C   UNL     1      -3.458  -5.502   3.495  0.00  0.00    +0.049 A 
ATOM     14  C   UNL     1      -3.235  -5.873   2.178  0.00  0.00    +0.158 A 
ATOM     15  C   UNL     1      -1.941  -5.868   1.667  0.00  0.00    +0.162 A 
ATOM     16  C   UNL     1      -0.881  -5.487   2.474  0.00  0.00    +0.055 A 
BRANCH  15  17
ATOM     17  O   UNL     1      -1.717  -6.231   0.375  0.00  0.00    -0.491 OA
ATOM     18  C   UNL     1      -0.356  -6.286  -0.057  0.00  0.00    +0.277 C 
ENDBRANCH  15  17
BRANCH  14  19
ATOM     19  O   UNL     1      -4.279  -6.242   1.388  0.00  0.00    -0.503 OA
ATOM     20  H   UNL     1      -4.685  -5.509   0.905  0.00  0.00    +0.292 HD
ENDBRANCH  14  19
ENDBRANCH   6  11
BRANCH   1  22
ATOM     21  N   UNL     1      -1.109  -1.817   3.234  0.00  0.00    -0.282 N 
ATOM     22  C   UNL     1       0.032  -2.342   3.723  0.00  0.00    +0.248 C 
ATOM     23  O   UNL     1       1.099  -2.070   3.204  0.00  0.00    -0.270 OA
ATOM     24  H   UNL     1      -1.941  -1.926   3.721  0.00  0.00    +0.155 HD
BRANCH  21  30
ATOM     25  C   UNL     1       1.359   0.837  -0.087  0.00  0.00    +0.044 C 
ATOM     26  C   UNL     1       0.089   0.181   0.390  0.00  0.00    -0.048 A 
ATOM     27  C   UNL     1      -1.063   0.273  -0.369  0.00  0.00    +0.006 A 
ATOM     28  C   UNL     1      -2.231  -0.327   0.066  0.00  0.00    -0.048 A 
ATOM     29  C   UNL     1      -2.250  -1.021   1.260  0.00  0.00    +0.026 A 
ATOM     30  C   UNL     1      -1.094  -1.115   2.024  0.00  0.00    +0.034 A 
ATOM     31  C   UNL     1       0.079  -0.516   1.582  0.00  0.00    +0.026 A 
ATOM     32  C   UNL     1      -3.484  -0.224  -0.765  0.00  0.00    +0.044 C 
ENDBRANCH  21  30
ENDBRANCH   1  22
TORSDOF 5
