REMARK  Name = ZINC19280740
REMARK  4 active torsions:
REMARK  status: ('A' for Active; 'I' for Inactive)
REMARK    1  A    between atoms: C_1  and  C_2
REMARK    2  A    between atoms: C_12  and  C_14
REMARK    3  A    between atoms: C_14  and  C_15
REMARK    4  A    between atoms: C_20  and  N_21
REMARK                            x       y       z     vdW  Elec       q    Type
REMARK                         _______ _______ _______ _____ _____    ______ ____
ROOT
ATOM      1  C   UNL     1       2.667   0.453  -1.277  0.00  0.00    +0.029 C 
ATOM      2  C   UNL     1       2.480   1.297  -0.015  0.00  0.00    +0.083 C 
ATOM      3  C   UNL     1       3.456   2.484  -0.018  0.00  0.00    +0.059 C 
ATOM      4  C   UNL     1       2.568   3.708  -0.003  0.00  0.00    -0.024 A 
ATOM      5  C   UNL     1       2.880   5.054   0.002  0.00  0.00    +0.005 A 
ATOM      6  C   UNL     1       1.873   6.000   0.016  0.00  0.00    +0.000 A 
ATOM      7  C   UNL     1       0.550   5.596   0.027  0.00  0.00    +0.002 A 
ATOM      8  C   UNL     1       0.234   4.255   0.023  0.00  0.00    +0.024 A 
ATOM      9  C   UNL     1       1.246   3.293   0.002  0.00  0.00    +0.040 A 
ATOM     10  N   UNL     1       1.143   1.898   0.001  0.00  0.00    -0.268 N 
ATOM     11  C   UNL     1      -0.014   1.209   0.009  0.00  0.00    +0.224 C 
ATOM     12  O   UNL     1       0.002  -0.004   0.002  0.00  0.00    -0.275 OA
ENDROOT
BRANCH  11  13
ATOM     13  C   UNL     1      -1.330   1.944   0.019  0.00  0.00    +0.133 C 
BRANCH  13  14
ATOM     14  C   UNL     1      -2.462   0.950   0.019  0.00  0.00    -0.018 A 
ATOM     15  C   UNL     1      -3.059   0.582  -1.171  0.00  0.00    +0.006 A 
ATOM     16  C   UNL     1      -4.095  -0.334  -1.172  0.00  0.00    +0.000 A 
ATOM     17  C   UNL     1      -4.543  -0.878   0.018  0.00  0.00    +0.002 A 
ATOM     18  C   UNL     1      -3.953  -0.511   1.211  0.00  0.00    +0.023 A 
ATOM     19  C   UNL     1      -2.909   0.405   1.216  0.00  0.00    +0.028 A 
BRANCH  19  20
ATOM     20  N   UNL     1      -2.310   0.778   2.421  0.00  0.00    -0.358 N 
ATOM     21  H   UNL     1      -2.666   0.346   3.369  0.00  0.00    +0.142 HD
ATOM     22  H   UNL     1      -1.483   1.504   2.424  0.00  0.00    +0.142 HD
ENDBRANCH  19  20
ENDBRANCH  13  14
ENDBRANCH  11  13
TORSDOF 3
