REMARK  Name = ZINC46569164
REMARK  14 active torsions:
REMARK  status: ('A' for Active; 'I' for Inactive)
REMARK    1  A    between atoms: C_1  and  C_2
REMARK    2  A    between atoms: C_3  and  C_37
REMARK    3  A    between atoms: N_4  and  C_31
REMARK    4  A    between atoms: C_5  and  N_9
REMARK    5  A    between atoms: C_6  and  C_7
REMARK    6  A    between atoms: C_10  and  C_12
REMARK    7  A    between atoms: C_12  and  N_13
REMARK    8  A    between atoms: N_13  and  C_14
REMARK    9  A    between atoms: N_13  and  C_25
REMARK   10  A    between atoms: C_14  and  C_15
REMARK   11  A    between atoms: C_18  and  C_21
REMARK   12  A    between atoms: N_23  and  C_24
REMARK   13  A    between atoms: C_25  and  C_26
REMARK   14  A    between atoms: C_31  and  C_32
REMARK                            x       y       z     vdW  Elec       q    Type
REMARK                         _______ _______ _______ _____ _____    ______ ____
ROOT
ATOM      1  C   UNL     1      -1.583  -5.469   1.006  0.00  0.00    +0.020 C 
ENDROOT
BRANCH   1   3
ATOM      2  N   UNL     1      -0.727  -3.181   0.618  0.00  0.00    -0.272 N 
ATOM      3  C   UNL     1      -0.466  -4.499   0.720  0.00  0.00    +0.202 C 
ATOM      4  O   UNL     1       0.669  -4.905   0.583  0.00  0.00    -0.278 OA
ATOM      5  H   UNL     1      -1.644  -2.866   0.638  0.00  0.00    +0.156 HD
BRANCH   2  10
ATOM      6  C   UNL     1       2.211   0.913   0.997  0.00  0.00    +0.047 C 
ATOM      7  C   UNL     1       1.665  -0.443   0.632  0.00  0.00    -0.011 A 
ATOM      8  C   UNL     1       2.255  -1.361  -0.151  0.00  0.00    +0.022 A 
ATOM      9  N   UNL     1       1.447  -2.463  -0.244  0.00  0.00    -0.324 N 
ATOM     10  C   UNL     1       0.315  -2.276   0.482  0.00  0.00    +0.124 A 
ATOM     11  C   UNL     1       0.387  -1.020   1.068  0.00  0.00    +0.095 A 
ATOM     12  C   UNL     1       3.594  -1.203  -0.823  0.00  0.00    +0.064 C 
BRANCH  11  13
ATOM     13  C   UNL     1      -0.587  -0.410   1.923  0.00  0.00    +0.103 C 
ATOM     14  N   UNL     1      -1.359   0.074   2.601  0.00  0.00    -0.191 NA
ENDBRANCH  11  13
BRANCH   9  15
ATOM     15  C   UNL     1       1.759  -3.670  -1.015  0.00  0.00    +0.197 C 
BRANCH  15  16
ATOM     16  C   UNL     1       3.049  -4.267  -0.512  0.00  0.00    +0.124 A 
ATOM     17  C   UNL     1       3.162  -5.186   0.463  0.00  0.00    +0.046 A 
ATOM     18  C   UNL     1       4.541  -5.461   0.609  0.00  0.00    +0.041 A 
ATOM     19  C   UNL     1       5.188  -4.693  -0.287  0.00  0.00    +0.195 A 
ATOM     20  O   UNL     1       4.278  -3.977  -0.967  0.00  0.00    -0.466 OA
ENDBRANCH  15  16
ENDBRANCH   9  15
ENDBRANCH   2  10
ENDBRANCH   1   3
BRANCH   1  21
ATOM     21  N   UNL     1      -1.354  -6.713   0.259  0.00  0.00    +0.393 N 
ATOM     22  H   UNL     1      -0.371  -6.939   0.275  0.00  0.00    -0.080 HD
BRANCH  21  23
ATOM     23  C   UNL     1      -2.118  -7.804   0.879  0.00  0.00    -0.042 C 
BRANCH  23  24
ATOM     24  C   UNL     1      -1.788  -9.103   0.190  0.00  0.00    -0.064 A 
ATOM     25  C   UNL     1      -2.530  -9.509  -0.906  0.00  0.00    +0.002 A 
ATOM     26  C   UNL     1      -2.234 -10.697  -1.541  0.00  0.00    +0.013 A 
ATOM     27  C   UNL     1      -1.183 -11.490  -1.077  0.00  0.00    +0.037 A 
ATOM     28  C   UNL     1      -0.439 -11.075   0.028  0.00  0.00    +0.013 A 
ATOM     29  C   UNL     1      -0.742  -9.882   0.651  0.00  0.00    +0.002 A 
BRANCH  27  30
ATOM     30  C   UNL     1      -0.860 -12.765  -1.754  0.00  0.00    +0.244 C 
ATOM     31  O   UNL     1      -1.510 -13.124  -2.716  0.00  0.00    -0.270 OA
ATOM     32  N   UNL     1       0.155 -13.528  -1.303  0.00  0.00    -0.314 N 
ATOM     33  C   UNL     1       0.475 -14.791  -1.973  0.00  0.00    +0.128 C 
ATOM     34  H   UNL     1       0.674 -13.242  -0.535  0.00  0.00    +0.149 HD
ENDBRANCH  27  30
ENDBRANCH  23  24
ENDBRANCH  21  23
BRANCH  21  35
ATOM     35  C   UNL     1      -1.794  -6.538  -1.132  0.00  0.00    -0.002 C 
BRANCH  35  36
ATOM     36  C   UNL     1      -0.982  -5.447  -1.781  0.00  0.00    +0.089 A 
ATOM     37  C   UNL     1       0.042  -5.630  -2.635  0.00  0.00    +0.042 A 
ATOM     38  C   UNL     1       0.510  -4.346  -2.994  0.00  0.00    +0.041 A 
ATOM     39  C   UNL     1      -0.255  -3.454  -2.340  0.00  0.00    +0.195 A 
ATOM     40  O   UNL     1      -1.161  -4.127  -1.611  0.00  0.00    -0.470 OA
ENDBRANCH  35  36
ENDBRANCH  21  35
ENDBRANCH   1  21
TORSDOF 11
