REMARK  Name = ZINC39494692
REMARK  11 active torsions:
REMARK  status: ('A' for Active; 'I' for Inactive)
REMARK    1  A    between atoms: C_1  and  C_2
REMARK    2  A    between atoms: C_2  and  C_4
REMARK    3  A    between atoms: C_2  and  C_25
REMARK    4  A    between atoms: C_4  and  C_6
REMARK    5  A    between atoms: C_4  and  N_12
REMARK    6  A    between atoms: C_13  and  S_15
REMARK    7  A    between atoms: S_15  and  O_18
REMARK    8  A    between atoms: O_18  and  C_19
REMARK    9  A    between atoms: C_25  and  S_27
REMARK   10  A    between atoms: S_27  and  O_30
REMARK   11  A    between atoms: O_30  and  C_31
REMARK                            x       y       z     vdW  Elec       q    Type
REMARK                         _______ _______ _______ _____ _____    ______ ____
ROOT
ATOM      1  C   UNL     1       0.718  -0.497  -1.257  0.00  0.00    +0.117 C 
ENDROOT
BRANCH   1   2
ATOM      2  C   UNL     1       2.132   0.024  -1.268  0.00  0.00    -0.026 A 
ATOM      3  C   UNL     1       2.387   1.323  -1.667  0.00  0.00    +0.005 A 
ATOM      4  C   UNL     1       3.683   1.801  -1.677  0.00  0.00    +0.000 A 
ATOM      5  C   UNL     1       4.726   0.981  -1.287  0.00  0.00    +0.000 A 
ATOM      6  C   UNL     1       4.471  -0.317  -0.886  0.00  0.00    +0.000 A 
ATOM      7  C   UNL     1       3.174  -0.794  -0.872  0.00  0.00    +0.005 A 
ENDBRANCH   1   2
BRANCH   1   8
ATOM      8  N   UNL     1       0.010  -0.012  -2.444  0.00  0.00    -0.286 N 
ATOM      9  C   UNL     1       0.111  -0.681  -3.609  0.00  0.00    +0.391 C 
ATOM     10  O   UNL     1       0.788  -1.685  -3.676  0.00  0.00    -0.246 OA
ATOM     11  H   UNL     1      -0.532   0.791  -2.391  0.00  0.00    +0.151 HD
BRANCH   9  12
ATOM     12  S   UNL     1      -0.742  -0.098  -5.037  0.00  0.00    +0.203 S 
ATOM     13  O   UNL     1      -0.613  -1.108  -6.028  0.00  0.00    -0.127 OA
ATOM     14  O   UNL     1      -2.005   0.375  -4.590  0.00  0.00    -0.127 OA
BRANCH  12  15
ATOM     15  O   UNL     1       0.020   1.116  -5.551  0.00  0.00    -0.339 OA
BRANCH  15  16
ATOM     16  C   UNL     1       1.179   0.810  -6.191  0.00  0.00    +0.157 A 
ATOM     17  C   UNL     1       2.364   0.718  -5.475  0.00  0.00    +0.048 A 
ATOM     18  C   UNL     1       3.541   0.407  -6.128  0.00  0.00    +0.004 A 
ATOM     19  C   UNL     1       3.539   0.188  -7.493  0.00  0.00    +0.000 A 
ATOM     20  C   UNL     1       2.360   0.281  -8.209  0.00  0.00    +0.004 A 
ATOM     21  C   UNL     1       1.179   0.585  -7.559  0.00  0.00    +0.048 A 
ENDBRANCH  15  16
ENDBRANCH  12  15
ENDBRANCH   9  12
ENDBRANCH   1   8
BRANCH   1  23
ATOM     22  C   UNL     1      -0.019   1.526   0.010  0.00  0.00    +0.019 C 
ATOM     23  C   UNL     1       0.002  -0.004   0.002  0.00  0.00    +0.104 C 
BRANCH  23  24
ATOM     24  C   UNL     1       0.731  -0.503   1.223  0.00  0.00    +0.311 C 
ATOM     25  O   UNL     1       1.721  -1.183   1.099  0.00  0.00    -0.268 OA
BRANCH  24  26
ATOM     26  S   UNL     1       0.139  -0.095   2.831  0.00  0.00    +0.185 S 
ATOM     27  O   UNL     1       1.133  -0.522   3.751  0.00  0.00    -0.128 OA
ATOM     28  O   UNL     1      -0.312   1.252   2.768  0.00  0.00    -0.128 OA
BRANCH  26  29
ATOM     29  O   UNL     1      -1.091  -0.953   3.090  0.00  0.00    -0.340 OA
BRANCH  29  30
ATOM     30  C   UNL     1      -0.809  -2.253   3.367  0.00  0.00    +0.157 A 
ATOM     31  C   UNL     1      -0.721  -3.180   2.338  0.00  0.00    +0.048 A 
ATOM     32  C   UNL     1      -0.434  -4.501   2.622  0.00  0.00    +0.004 A 
ATOM     33  C   UNL     1      -0.234  -4.900   3.931  0.00  0.00    +0.000 A 
ATOM     34  C   UNL     1      -0.321  -3.979   4.958  0.00  0.00    +0.004 A 
ATOM     35  C   UNL     1      -0.603  -2.655   4.678  0.00  0.00    +0.048 A 
ENDBRANCH  29  30
ENDBRANCH  26  29
ENDBRANCH  24  26
ENDBRANCH  23  24
ENDBRANCH   1  23
TORSDOF 10
