REMARK  Name = ZINC08432834
REMARK  8 active torsions:
REMARK  status: ('A' for Active; 'I' for Inactive)
REMARK    1  A    between atoms: C_1  and  C_2
REMARK    2  A    between atoms: C_5  and  S_8
REMARK    3  A    between atoms: S_8  and  N_11
REMARK    4  A    between atoms: C_16  and  C_17
REMARK    5  A    between atoms: C_16  and  N_59
REMARK    6  A    between atoms: N_19  and  N_20
REMARK    7  A    between atoms: C_21  and  C_22
REMARK    8  A    between atoms: C_31  and  O_32
REMARK                            x       y       z     vdW  Elec       q    Type
REMARK                         _______ _______ _______ _____ _____    ______ ____
ROOT
ATOM      1  C   UNL     1      -1.521   3.730  -2.329  0.00  0.00    +0.020 C 
ENDROOT
BRANCH   1   7
ATOM      2  N   UNL     1      -0.627   1.577   1.165  0.00  0.00    -0.180 NA
ATOM      3  C   UNL     1       0.124   1.225  -0.051  0.00  0.00    +0.091 C 
ATOM      4  C   UNL     1      -0.651   1.733  -1.271  0.00  0.00    -0.061 C 
ATOM      5  C   UNL     1      -1.796   3.411   0.056  0.00  0.00    -0.061 C 
ATOM      6  C   UNL     1      -1.067   2.971   1.330  0.00  0.00    +0.091 C 
ATOM      7  N   UNL     1      -0.905   3.181  -1.103  0.00  0.00    +0.387 N 
ATOM      8  H   UNL     1      -0.012   3.658  -0.936  0.00  0.00    -0.081 HD
BRANCH   2   9
ATOM      9  S   UNL     1      -0.971   0.433   2.312  0.00  0.00    +0.061 S 
ATOM     10  O   UNL     1      -2.114   0.898   3.018  0.00  0.00    -0.153 OA
ATOM     11  O   UNL     1      -0.943  -0.825   1.652  0.00  0.00    -0.153 OA
BRANCH   9  16
ATOM     12  C   UNL     1       3.601   0.419   6.249  0.00  0.00    +0.044 C 
ATOM     13  C   UNL     1       2.459   0.423   5.265  0.00  0.00    -0.050 A 
ATOM     14  C   UNL     1       1.373   1.253   5.470  0.00  0.00    +0.005 A 
ATOM     15  C   UNL     1       0.325   1.256   4.569  0.00  0.00    +0.029 A 
ATOM     16  C   UNL     1       0.364   0.429   3.461  0.00  0.00    +0.105 A 
ATOM     17  C   UNL     1       1.448  -0.404   3.259  0.00  0.00    +0.029 A 
ATOM     18  C   UNL     1       2.497  -0.404   4.158  0.00  0.00    +0.005 A 
ENDBRANCH   9  16
ENDBRANCH   2   9
ENDBRANCH   1   7
BRANCH   1  19
ATOM     19  C   UNL     1      -2.855   3.079  -2.589  0.00  0.00    +0.216 C 
ATOM     20  O   UNL     1      -3.276   2.232  -1.829  0.00  0.00    -0.276 OA
ATOM     21  N   UNL     1      -3.581   3.438  -3.667  0.00  0.00    -0.209 N 
ATOM     22  H   UNL     1      -3.244   4.115  -4.275  0.00  0.00    +0.177 HD
BRANCH  21  23
ATOM     23  N   UNL     1      -4.821   2.833  -3.909  0.00  0.00    -0.188 NA
ATOM     24  C   UNL     1      -5.473   3.101  -5.001  0.00  0.00    +0.142 C 
BRANCH  24  25
ATOM     25  C   UNL     1      -4.848   3.924  -6.047  0.00  0.00    +0.044 A 
ATOM     26  C   UNL     1      -5.501   5.137  -6.533  0.00  0.00    -0.006 A 
ATOM     27  C   UNL     1      -6.736   5.556  -6.023  0.00  0.00    +0.009 A 
ATOM     28  C   UNL     1      -7.312   6.694  -6.503  0.00  0.00    +0.001 A 
ATOM     29  C   UNL     1      -6.689   7.448  -7.494  0.00  0.00    +0.001 A 
ATOM     30  C   UNL     1      -5.487   7.070  -8.012  0.00  0.00    +0.008 A 
ATOM     31  C   UNL     1      -4.865   5.901  -7.541  0.00  0.00    -0.017 A 
ATOM     32  C   UNL     1      -3.624   5.479  -8.051  0.00  0.00    +0.012 A 
ATOM     33  C   UNL     1      -3.030   4.348  -7.588  0.00  0.00    +0.046 A 
ATOM     34  C   UNL     1      -3.615   3.566  -6.593  0.00  0.00    +0.126 A 
BRANCH  34  35
ATOM     35  O   UNL     1      -2.984   2.446  -6.157  0.00  0.00    -0.506 OA
ATOM     36  H   UNL     1      -3.154   1.662  -6.697  0.00  0.00    +0.292 HD
ENDBRANCH  34  35
ENDBRANCH  24  25
ENDBRANCH  21  23
ENDBRANCH   1  19
TORSDOF 7
