REMARK  Name = ZINC08922847
REMARK  9 active torsions:
REMARK  status: ('A' for Active; 'I' for Inactive)
REMARK    1  A    between atoms: C_1  and  C_2
REMARK    2  A    between atoms: C_2  and  O_3
REMARK    3  A    between atoms: O_3  and  C_4
REMARK    4  A    between atoms: C_8  and  C_11
REMARK    5  A    between atoms: C_9  and  O_10
REMARK    6  A    between atoms: C_22  and  C_23
REMARK    7  A    between atoms: C_22  and  C_24
REMARK    8  A    between atoms: C_22  and  N_52
REMARK    9  A    between atoms: C_25  and  O_27
REMARK                            x       y       z     vdW  Elec       q    Type
REMARK                         _______ _______ _______ _____ _____    ______ ____
ROOT
ATOM      1  C   UNL     1      -0.103  -6.827   1.720  0.00  0.00    +0.227 C 
ATOM      2  N   UNL     1       1.089  -5.960   1.769  0.00  0.00    -0.313 N 
ATOM      3  C   UNL     1       0.885  -4.628   1.503  0.00  0.00    +0.080 A 
ATOM      4  C   UNL     1      -0.201  -4.171   0.743  0.00  0.00    +0.067 A 
ATOM      5  C   UNL     1      -0.272  -2.737   0.543  0.00  0.00    -0.027 A 
ATOM      6  C   UNL     1       0.717  -2.013   1.120  0.00  0.00    -0.021 A 
ATOM      7  S   UNL     1       1.746  -3.210   1.925  0.00  0.00    -0.080 S 
ATOM      8  C   UNL     1       0.878  -0.527   1.068  0.00  0.00    -0.035 C 
ATOM      9  C   UNL     1      -1.356  -0.550   0.132  0.00  0.00    -0.073 C 
ATOM     10  C   UNL     1      -1.366  -2.032  -0.252  0.00  0.00    +0.018 C 
ATOM     11  C   UNL     1      -1.139  -5.196   0.217  0.00  0.00    +0.220 C 
ATOM     12  N   UNL     1      -1.024  -6.415   0.668  0.00  0.00    -0.223 NA
ATOM     13  H   UNL     1       1.969  -6.311   1.978  0.00  0.00    +0.149 HD
ATOM     14  N   UNL     1       0.012  -0.013  -0.021  0.00  0.00    +0.384 N 
ATOM     15  H   UNL     1       0.392  -0.321  -0.924  0.00  0.00    -0.081 HD
ENDROOT
BRANCH   1  20
ATOM     16  C   UNL     1      -2.823  -6.974   4.349  0.00  0.00    +0.163 A 
ATOM     17  C   UNL     1      -2.114  -6.643   5.492  0.00  0.00    +0.064 A 
ATOM     18  C   UNL     1      -0.759  -6.372   5.412  0.00  0.00    +0.022 A 
ATOM     19  C   UNL     1      -0.111  -6.432   4.191  0.00  0.00    +0.026 A 
ATOM     20  C   UNL     1      -0.813  -6.763   3.048  0.00  0.00    +0.041 A 
ATOM     21  C   UNL     1      -2.171  -7.029   3.121  0.00  0.00    +0.165 A 
ATOM     22 BR   UNL     1       0.207  -5.921   6.973  0.00  0.00    -0.050 Br
BRANCH  21  23
ATOM     23  O   UNL     1      -2.864  -7.349   1.995  0.00  0.00    -0.503 OA
ATOM     24  H   UNL     1      -2.889  -8.297   1.805  0.00  0.00    +0.292 HD
ENDBRANCH  21  23
BRANCH  16  25
ATOM     25  O   UNL     1      -4.154  -7.240   4.426  0.00  0.00    -0.489 OA
BRANCH  25  27
ATOM     26  C   UNL     1      -6.248  -7.489   5.607  0.00  0.00    +0.048 C 
ATOM     27  C   UNL     1      -4.758  -7.159   5.719  0.00  0.00    +0.226 C 
ENDBRANCH  25  27
ENDBRANCH  16  25
ENDBRANCH   1  20
BRANCH  14  28
ATOM     28  C   UNL     1      -0.018   1.465   0.010  0.00  0.00    -0.074 C 
ATOM     29  C   UNL     1       1.417   1.994  -0.001  0.00  0.00    -0.014 C 
ATOM     30  C   UNL     1      -0.758   1.972  -1.229  0.00  0.00    -0.014 C 
ENDBRANCH  14  28
BRANCH  11  31
ATOM     31  O   UNL     1      -2.082  -4.876  -0.699  0.00  0.00    -0.492 OA
ATOM     32  H   UNL     1      -2.636  -5.620  -0.970  0.00  0.00    +0.294 HD
ENDBRANCH  11  31
TORSDOF 6
