REMARK  Name = ZINC39709260
REMARK  8 active torsions:
REMARK  status: ('A' for Active; 'I' for Inactive)
REMARK    1  A    between atoms: C_1  and  C_2
REMARK    2  A    between atoms: C_9  and  C_14
REMARK    3  A    between atoms: C_14  and  N_15
REMARK    4  A    between atoms: N_15  and  C_16
REMARK    5  A    between atoms: N_15  and  C_22
REMARK    6  A    between atoms: C_22  and  N_24
REMARK    7  A    between atoms: N_24  and  C_25
REMARK    8  A    between atoms: C_25  and  C_26
REMARK                            x       y       z     vdW  Elec       q    Type
REMARK                         _______ _______ _______ _____ _____    ______ ____
ROOT
ATOM      1  N   UNL     1      -1.016  -6.311   3.138  0.00  0.00    -0.309 N 
ENDROOT
BRANCH   1   2
ATOM      2  C   UNL     1      -0.453  -6.791   4.403  0.00  0.00    +0.075 C 
ATOM      3  C   UNL     1      -1.193  -6.137   5.572  0.00  0.00    +0.022 C 
ATOM      4  C   UNL     1      -0.605  -6.639   6.892  0.00  0.00    +0.002 C 
ATOM      5  C   UNL     1       0.879  -6.275   6.960  0.00  0.00    +0.000 C 
ATOM      6  C   UNL     1       1.619  -6.929   5.791  0.00  0.00    +0.002 C 
ATOM      7  C   UNL     1       1.031  -6.427   4.471  0.00  0.00    +0.022 C 
ENDBRANCH   1   2
BRANCH   1   8
ATOM      8  C   UNL     1      -1.507  -7.190   2.242  0.00  0.00    +0.133 C 
ATOM      9  S   UNL     1      -2.154  -6.629   0.759  0.00  0.00    -0.019 S 
BRANCH   8  10
ATOM     10  N   UNL     1      -1.487  -8.510   2.512  0.00  0.00    -0.322 N 
ATOM     11  H   UNL     1      -1.183  -8.823   3.378  0.00  0.00    +0.148 HD
BRANCH  10  12
ATOM     12  C   UNL     1      -1.927  -9.472   1.499  0.00  0.00    +0.138 C 
BRANCH  12  13
ATOM     13  C   UNL     1      -1.808 -10.870   2.048  0.00  0.00    -0.030 A 
ATOM     14  C   UNL     1      -0.632 -11.579   1.886  0.00  0.00    +0.005 A 
ATOM     15  C   UNL     1      -0.523 -12.861   2.390  0.00  0.00    +0.000 A 
ATOM     16  C   UNL     1      -1.590 -13.435   3.056  0.00  0.00    +0.000 A 
ATOM     17  C   UNL     1      -2.765 -12.726   3.219  0.00  0.00    +0.000 A 
ATOM     18  C   UNL     1      -2.873 -11.442   2.719  0.00  0.00    +0.005 A 
ENDBRANCH  12  13
ENDBRANCH  10  12
ENDBRANCH   8  10
ENDBRANCH   1   8
BRANCH   1  19
ATOM     19  C   UNL     1      -1.047  -4.875   2.849  0.00  0.00    +0.124 C 
BRANCH  19  28
ATOM     20  C   UNL     1       0.649   1.198  -0.506  0.00  0.00    +0.044 C 
ATOM     21  C   UNL     1       0.567  -0.303  -0.399  0.00  0.00    -0.050 A 
ATOM     22  C   UNL     1       0.578  -1.073  -1.563  0.00  0.00    +0.005 A 
ATOM     23  C   UNL     1       0.507  -2.429  -1.545  0.00  0.00    +0.024 A 
ATOM     24  C   UNL     1       0.419  -3.124  -0.325  0.00  0.00    +0.040 A 
ATOM     25  N   UNL     1       0.351  -4.455  -0.320  0.00  0.00    -0.284 N 
ATOM     26  C   UNL     1       0.266  -5.170   0.790  0.00  0.00    +0.226 C 
ATOM     27  O   UNL     1       0.207  -6.383   0.732  0.00  0.00    -0.275 OA
ATOM     28  C   UNL     1       0.244  -4.472   2.132  0.00  0.00    +0.116 C 
ATOM     29  C   UNL     1       0.321  -2.958   2.131  0.00  0.00    -0.003 C 
ATOM     30  C   UNL     1       0.406  -2.337   0.920  0.00  0.00    -0.007 A 
ATOM     31  C   UNL     1       0.490  -0.879   0.829  0.00  0.00    +0.012 A 
ATOM     32  H   UNL     1       0.364  -4.922  -1.170  0.00  0.00    +0.155 HD
ENDBRANCH  19  28
ENDBRANCH   1  19
TORSDOF 7
