REMARK  Name = ZINC58019544
REMARK  7 active torsions:
REMARK  status: ('A' for Active; 'I' for Inactive)
REMARK    1  A    between atoms: C_1  and  C_2
REMARK    2  A    between atoms: C_7  and  C_9
REMARK    3  A    between atoms: C_7  and  C_10
REMARK    4  A    between atoms: N_11  and  C_13
REMARK    5  A    between atoms: C_13  and  C_14
REMARK    6  A    between atoms: C_17  and  C_21
REMARK    7  A    between atoms: C_19  and  N_20
REMARK                            x       y       z     vdW  Elec       q    Type
REMARK                         _______ _______ _______ _____ _____    ______ ____
ROOT
ATOM      1  C   UNL     1      -3.573  -2.518  -0.495  0.00  0.00    -0.043 A 
ATOM      2  C   UNL     1      -4.128  -2.207   0.733  0.00  0.00    +0.004 A 
ATOM      3  C   UNL     1      -5.465  -1.878   0.827  0.00  0.00    +0.013 A 
ATOM      4  C   UNL     1      -6.262  -1.859  -0.320  0.00  0.00    +0.038 A 
ATOM      5  C   UNL     1      -5.701  -2.172  -1.558  0.00  0.00    +0.036 A 
ATOM      6  C   UNL     1      -4.356  -2.496  -1.643  0.00  0.00    +0.027 A 
ENDROOT
BRANCH   4   7
ATOM      7  C   UNL     1      -7.695  -1.507  -0.222  0.00  0.00    +0.242 C 
ATOM      8  O   UNL     1      -8.386  -1.491  -1.221  0.00  0.00    -0.270 OA
ATOM      9  N   UNL     1      -8.234  -1.205   0.976  0.00  0.00    -0.325 N 
ATOM     10  H   UNL     1      -7.682  -1.218   1.774  0.00  0.00    +0.145 HD
ATOM     11  H   UNL     1      -9.174  -0.975   1.040  0.00  0.00    +0.145 HD
ENDBRANCH   4   7
BRANCH   6  12
ATOM     12  N   UNL     1      -3.788  -2.805  -2.881  0.00  0.00    -0.358 N 
ATOM     13  H   UNL     1      -2.848  -3.035  -2.940  0.00  0.00    +0.142 HD
ATOM     14  H   UNL     1      -4.335  -2.789  -3.683  0.00  0.00    +0.142 HD
ENDBRANCH   6  12
BRANCH   1  15
ATOM     15  C   UNL     1      -2.112  -2.876  -0.589  0.00  0.00    -0.041 C 
BRANCH  15  25
ATOM     16  C   UNL     1      -0.019   1.532   0.011  0.00  0.00    +0.009 C 
ATOM     17  C   UNL     1       0.002  -0.004   0.002  0.00  0.00    -0.048 C 
ATOM     18  C   UNL     1       0.709  -0.579  -1.256  0.00  0.00    -0.011 C 
ATOM     19  C   UNL     1       0.075  -1.998  -1.275  0.00  0.00    -0.067 C 
ATOM     20  C   UNL     1       0.699  -2.799  -0.149  0.00  0.00    -0.009 C 
ATOM     21  C   UNL     1       0.880  -2.099   1.179  0.00  0.00    -0.036 C 
ATOM     22  C   UNL     1       0.727  -0.591   1.213  0.00  0.00    +0.011 C 
ATOM     23  C   UNL     1       2.317  -2.418   1.669  0.00  0.00    +0.011 C 
ATOM     24  C   UNL     1      -0.069  -2.724   2.219  0.00  0.00    +0.011 C 
ATOM     25  N   UNL     1      -1.355  -1.714  -1.040  0.00  0.00    +0.385 N 
ATOM     26  C   UNL     1      -1.418  -0.611  -0.062  0.00  0.00    -0.071 C 
ATOM     27  H   UNL     1      -1.763  -1.380  -1.915  0.00  0.00    -0.081 HD
ENDBRANCH  15  25
ENDBRANCH   1  15
TORSDOF 4
