REMARK  Name = ZINC13779317
REMARK  8 active torsions:
REMARK  status: ('A' for Active; 'I' for Inactive)
REMARK    1  A    between atoms: C_1  and  C_2
REMARK    2  A    between atoms: C_9  and  O_23
REMARK    3  A    between atoms: C_10  and  C_13
REMARK    4  A    between atoms: C_14  and  C_15
REMARK    5  A    between atoms: C_14  and  C_17
REMARK    6  A    between atoms: N_19  and  C_20
REMARK    7  A    between atoms: C_20  and  C_21
REMARK    8  A    between atoms: O_23  and  C_24
REMARK                            x       y       z     vdW  Elec       q    Type
REMARK                         _______ _______ _______ _____ _____    ______ ____
ROOT
ATOM      1  C   UNL     1      -1.328   2.114   0.522  0.00  0.00    +0.047 C 
ATOM      2  C   UNL     1      -0.013   1.410   0.306  0.00  0.00    -0.007 A 
ATOM      3  C   UNL     1       0.021   0.056   0.139  0.00  0.00    +0.008 A 
ATOM      4  C   UNL     1       1.251  -0.583  -0.066  0.00  0.00    +0.019 A 
ATOM      5  C   UNL     1       2.393   0.140  -0.098  0.00  0.00    +0.096 A 
ATOM      6  N   UNL     1       2.369   1.492   0.068  0.00  0.00    -0.267 N 
ATOM      7  C   UNL     1       1.185   2.144   0.270  0.00  0.00    +0.147 A 
ATOM      8  N   UNL     1       1.140   3.467   0.435  0.00  0.00    -0.194 NA
ATOM      9  C   UNL     1       2.234   4.209   0.410  0.00  0.00    +0.235 A 
ATOM     10  C   UNL     1       3.492   3.591   0.205  0.00  0.00    +0.103 A 
ATOM     11  C   UNL     1       3.529   2.183   0.031  0.00  0.00    +0.269 A 
ATOM     12  O   UNL     1       4.587   1.607  -0.149  0.00  0.00    -0.266 OA
ENDROOT
BRANCH  10  13
ATOM     13  C   UNL     1       4.674   4.353   0.174  0.00  0.00    +0.042 C 
ATOM     14  C   UNL     1       4.800   5.403  -0.725  0.00  0.00    +0.114 C 
BRANCH  14  15
ATOM     15  C   UNL     1       5.977   6.276  -0.673  0.00  0.00    +0.255 C 
ATOM     16  O   UNL     1       6.843   6.081   0.160  0.00  0.00    -0.269 OA
ATOM     17  N   UNL     1       6.099   7.296  -1.546  0.00  0.00    -0.307 N 
ATOM     18  H   UNL     1       5.408   7.452  -2.209  0.00  0.00    +0.149 HD
BRANCH  17  19
ATOM     19  C   UNL     1       7.274   8.168  -1.493  0.00  0.00    +0.131 C 
BRANCH  19  20
ATOM     20  C   UNL     1       7.168   9.220  -2.568  0.00  0.00    -0.016 C 
ATOM     21  C   UNL     1       7.249  10.489  -2.253  0.00  0.00    +0.005 C 
ENDBRANCH  19  20
ENDBRANCH  17  19
ENDBRANCH  14  15
BRANCH  14  22
ATOM     22  C   UNL     1       3.780   5.633  -1.704  0.00  0.00    +0.104 C 
ATOM     23  N   UNL     1       2.972   5.816  -2.481  0.00  0.00    -0.191 NA
ENDBRANCH  14  22
ENDBRANCH  10  13
BRANCH   9  24
ATOM     24  O   UNL     1       2.153   5.547   0.581  0.00  0.00    -0.436 OA
BRANCH  24  25
ATOM     25  C   UNL     1       0.920   6.097   0.741  0.00  0.00    +0.149 A 
ATOM     26  C   UNL     1       0.237   6.601  -0.356  0.00  0.00    +0.048 A 
ATOM     27  C   UNL     1      -1.018   7.154  -0.193  0.00  0.00    +0.004 A 
ATOM     28  C   UNL     1      -1.590   7.215   1.065  0.00  0.00    +0.002 A 
ATOM     29  C   UNL     1      -0.910   6.719   2.161  0.00  0.00    +0.024 A 
ATOM     30  C   UNL     1       0.344   6.159   2.002  0.00  0.00    +0.083 A 
ATOM     31 CL   UNL     1       1.198   5.535   3.379  0.00  0.00    -0.080 Cl
ENDBRANCH  24  25
ENDBRANCH   9  24
TORSDOF 7
