REMARK  Name = ZINC39948672
REMARK  10 active torsions:
REMARK  status: ('A' for Active; 'I' for Inactive)
REMARK    1  A    between atoms: C_1  and  C_2
REMARK    2  A    between atoms: C_4  and  C_12
REMARK    3  A    between atoms: N_13  and  N_14
REMARK    4  A    between atoms: N_14  and  C_15
REMARK    5  A    between atoms: C_18  and  N_33
REMARK    6  A    between atoms: C_20  and  S_21
REMARK    7  A    between atoms: S_21  and  N_24
REMARK    8  A    between atoms: N_24  and  C_25
REMARK    9  A    between atoms: C_28  and  O_31
REMARK   10  A    between atoms: O_31  and  C_32
REMARK                            x       y       z     vdW  Elec       q    Type
REMARK                         _______ _______ _______ _____ _____    ______ ____
ROOT
ATOM      1  C   UNL     1       1.616  -1.158  -5.762  0.00  0.00    +0.075 A 
ATOM      2  C   UNL     1       2.737  -1.922  -5.442  0.00  0.00    +0.029 A 
ATOM      3  C   UNL     1       3.513  -2.459  -6.449  0.00  0.00    +0.035 A 
ATOM      4  C   UNL     1       3.179  -2.240  -7.774  0.00  0.00    +0.128 A 
ATOM      5  C   UNL     1       2.067  -1.481  -8.097  0.00  0.00    +0.063 A 
ATOM      6  C   UNL     1       1.281  -0.945  -7.098  0.00  0.00    +0.135 A 
ENDROOT
BRANCH   6   7
ATOM      7  S   UNL     1      -0.138   0.014  -7.511  0.00  0.00    +0.093 S 
ATOM      8  O   UNL     1      -0.059   1.208  -6.744  0.00  0.00    -0.148 OA
ATOM      9  O   UNL     1      -0.223   0.024  -8.929  0.00  0.00    -0.148 OA
BRANCH   7  10
ATOM     10  N   UNL     1      -1.464  -0.813  -6.963  0.00  0.00    -0.098 NA
BRANCH  10  11
ATOM     11  C   UNL     1      -2.746  -0.285  -7.153  0.00  0.00    +0.075 A 
ATOM     12  C   UNL     1      -2.907   0.930  -7.805  0.00  0.00    +0.030 A 
ATOM     13  C   UNL     1      -4.172   1.450  -7.993  0.00  0.00    +0.047 A 
ATOM     14  C   UNL     1      -5.282   0.760  -7.529  0.00  0.00    +0.120 A 
ATOM     15  C   UNL     1      -5.122  -0.454  -6.877  0.00  0.00    +0.047 A 
ATOM     16  C   UNL     1      -3.858  -0.978  -6.694  0.00  0.00    +0.030 A 
BRANCH  14  17
ATOM     17  O   UNL     1      -6.528   1.273  -7.714  0.00  0.00    -0.495 OA
ATOM     18  C   UNL     1      -7.626   0.509  -7.211  0.00  0.00    +0.277 C 
ENDBRANCH  14  17
ENDBRANCH  10  11
ENDBRANCH   7  10
ENDBRANCH   6   7
BRANCH   4  19
ATOM     19  N   UNL     1       4.016  -2.818  -8.850  0.00  0.00    +0.056 N 
ATOM     20  O   UNL     1       5.074  -3.539  -8.546  0.00  0.00    -0.126 OA
ATOM     21  O   UNL     1       3.701  -2.611 -10.112  0.00  0.00    -0.126 OA
ENDBRANCH   4  19
BRANCH   1  22
ATOM     22  N   UNL     1       0.833  -0.616  -4.754  0.00  0.00    -0.236 N 
ATOM     23  H   UNL     1       0.050  -0.088  -4.979  0.00  0.00    +0.174 HD
BRANCH  22  25
ATOM     24  C   UNL     1       0.393  -0.295  -2.551  0.00  0.00    +0.136 C 
ATOM     25  N   UNL     1       1.144  -0.815  -3.518  0.00  0.00    -0.190 NA
BRANCH  24  28
ATOM     26  C   UNL     1      -0.019   1.526   0.010  0.00  0.00    +0.035 C 
ATOM     27  C   UNL     1       0.002  -0.004   0.002  0.00  0.00    +0.109 C 
ATOM     28  C   UNL     1       0.726  -0.507  -1.230  0.00  0.00    +0.003 C 
ATOM     29  C   UNL     1       1.857  -1.270  -0.702  0.00  0.00    +0.005 A 
ATOM     30  C   UNL     1       2.890  -1.977  -1.297  0.00  0.00    +0.010 A 
ATOM     31  C   UNL     1       3.844  -2.617  -0.514  0.00  0.00    +0.001 A 
ATOM     32  C   UNL     1       3.805  -2.577   0.875  0.00  0.00    +0.002 A 
ATOM     33  C   UNL     1       2.827  -1.906   1.546  0.00  0.00    +0.026 A 
ATOM     34  C   UNL     1       1.781  -1.204   0.777  0.00  0.00    +0.043 A 
ATOM     35  N   UNL     1       0.752  -0.503   1.156  0.00  0.00    -0.377 N 
ATOM     36  H   UNL     1       0.514  -0.332   2.081  0.00  0.00    +0.160 HD
ENDBRANCH  24  28
ENDBRANCH  22  25
ENDBRANCH   1  22
TORSDOF 8
