REMARK  Name = ZINC52924325
REMARK  5 active torsions:
REMARK  status: ('A' for Active; 'I' for Inactive)
REMARK    1  A    between atoms: C_1  and  C_2
REMARK    2  A    between atoms: C_5  and  C_9
REMARK    3  A    between atoms: C_12  and  C_14
REMARK    4  A    between atoms: C_14  and  C_16
REMARK    5  A    between atoms: C_14  and  N_17
REMARK                            x       y       z     vdW  Elec       q    Type
REMARK                         _______ _______ _______ _____ _____    ______ ____
ROOT
ATOM      1  C   UNL     1       0.061  -4.252  -0.021  0.00  0.00    +0.137 A 
ATOM      2  C   UNL     1       1.069  -5.039   0.439  0.00  0.00    +0.050 A 
ATOM      3  C   UNL     1       0.667  -6.374   0.236  0.00  0.00    +0.043 A 
ATOM      4  C   UNL     1      -0.553  -6.337  -0.332  0.00  0.00    +0.091 A 
ATOM      5  O   UNL     1      -0.919  -5.053  -0.481  0.00  0.00    -0.461 OA
ENDROOT
BRANCH   1  10
ATOM      6  C   UNL     1      -0.018   1.503   0.010  0.00  0.00    +0.044 C 
ATOM      7  C   UNL     1       0.002  -0.004   0.002  0.00  0.00    -0.048 A 
ATOM      8  C   UNL     1       0.006  -0.686  -1.202  0.00  0.00    +0.019 A 
ATOM      9  C   UNL     1       0.025  -2.066  -1.217  0.00  0.00    +0.030 A 
ATOM     10  C   UNL     1       0.041  -2.774  -0.013  0.00  0.00    +0.045 A 
ATOM     11  C   UNL     1       0.037  -2.079   1.198  0.00  0.00    +0.030 A 
ATOM     12  C   UNL     1       0.023  -0.699   1.198  0.00  0.00    +0.019 A 
ATOM     13 BR   UNL     1       0.057  -3.027   2.834  0.00  0.00    -0.050 Br
ATOM     14 BR   UNL     1       0.029  -2.996  -2.864  0.00  0.00    -0.050 Br
ENDBRANCH   1  10
BRANCH   4  15
ATOM     15  C   UNL     1      -1.375  -7.536  -0.729  0.00  0.00    -0.011 C 
ATOM     16  C   UNL     1      -2.434  -7.806   0.341  0.00  0.00    -0.006 C 
BRANCH  15  17
ATOM     17  N   UNL     1      -2.034  -7.274  -2.016  0.00  0.00    +0.384 N 
ATOM     18  H   UNL     1      -1.335  -7.097  -2.722  0.00  0.00    -0.089 HD
ATOM     19  H   UNL     1      -2.584  -8.078  -2.281  0.00  0.00    -0.089 HD
ATOM     20  H   UNL     1      -2.636  -6.469  -1.927  0.00  0.00    -0.089 HD
ENDBRANCH  15  17
ENDBRANCH   4  15
TORSDOF 3
