REMARK  Name = ZINC04691060
REMARK  2 active torsions:
REMARK  status: ('A' for Active; 'I' for Inactive)
REMARK    1  A    between atoms: C_4  and  C_8
REMARK    2  A    between atoms: C_11  and  C_20
REMARK                            x       y       z     vdW  Elec       q    Type
REMARK                         _______ _______ _______ _____ _____    ______ ____
ROOT
ATOM      1  C   UNL     1       3.713  -0.707  -0.038  0.00  0.00    +0.145 C 
ATOM      2  C   UNL     1       3.819  -1.600   1.204  0.00  0.00    +0.059 C 
ATOM      3  C   UNL     1       5.014  -2.549   1.058  0.00  0.00    +0.106 C 
ATOM      4  N   UNL     1       4.781  -3.425  -0.107  0.00  0.00    -0.307 N 
ATOM      5  C   UNL     1       4.285  -2.809  -1.248  0.00  0.00    +0.216 A 
ATOM      6  N   UNL     1       3.790  -1.546  -1.234  0.00  0.00    -0.224 N 
ATOM      7  N   UNL     1       3.393  -1.256  -2.540  0.00  0.00    -0.132 NA
ATOM      8  C   UNL     1       3.658  -2.322  -3.262  0.00  0.00    +0.233 A 
ATOM      9  N   UNL     1       4.197  -3.266  -2.469  0.00  0.00    -0.180 NA
ATOM     10  N   UNL     1       3.413  -2.455  -4.630  0.00  0.00    -0.326 N 
ATOM     11  H   UNL     1       4.965  -4.377  -0.077  0.00  0.00    +0.149 HD
ATOM     12  H   UNL     1       3.016  -1.722  -5.125  0.00  0.00    +0.145 HD
ATOM     13  H   UNL     1       3.642  -3.281  -5.085  0.00  0.00    +0.145 HD
ENDROOT
BRANCH   1  17
ATOM     14  C   UNL     1      -0.017   1.378   0.010  0.00  0.00    +0.003 A 
ATOM     15  C   UNL     1       1.171   2.086   0.002  0.00  0.00    +0.020 A 
ATOM     16  C   UNL     1       2.378   1.411  -0.013  0.00  0.00    +0.048 A 
ATOM     17  C   UNL     1       2.398   0.028  -0.021  0.00  0.00    +0.014 A 
ATOM     18  C   UNL     1       1.209  -0.680  -0.013  0.00  0.00    +0.048 A 
ATOM     19  C   UNL     1       0.002  -0.004   0.002  0.00  0.00    +0.020 A 
ATOM     20 CL   UNL     1       1.233  -2.416  -0.023  0.00  0.00    -0.083 Cl
ATOM     21 CL   UNL     1       3.869   2.300  -0.024  0.00  0.00    -0.083 Cl
ENDBRANCH   1  17
BRANCH   3  22
ATOM     22  C   UNL     1       5.151  -3.385   2.305  0.00  0.00    -0.027 A 
ATOM     23  C   UNL     1       4.345  -4.494   2.484  0.00  0.00    +0.008 A 
ATOM     24  C   UNL     1       4.470  -5.262   3.627  0.00  0.00    +0.038 A 
ATOM     25  C   UNL     1       5.402  -4.920   4.591  0.00  0.00    +0.123 A 
ATOM     26  C   UNL     1       6.208  -3.810   4.410  0.00  0.00    +0.038 A 
ATOM     27  C   UNL     1       6.086  -3.046   3.265  0.00  0.00    +0.008 A 
ATOM     28  F   UNL     1       5.524  -5.670   5.709  0.00  0.00    -0.205 F 
ENDBRANCH   3  22
TORSDOF 2
