REMARK  Name = ZINC63349725
REMARK  7 active torsions:
REMARK  status: ('A' for Active; 'I' for Inactive)
REMARK    1  A    between atoms: C_1  and  O_2
REMARK    2  A    between atoms: O_2  and  C_3
REMARK    3  A    between atoms: C_6  and  C_23
REMARK    4  A    between atoms: C_8  and  C_9
REMARK    5  A    between atoms: C_9  and  N_10
REMARK    6  A    between atoms: N_13  and  C_16
REMARK    7  A    between atoms: CA_36  and  C_39
REMARK                            x       y       z     vdW  Elec       q    Type
REMARK                         _______ _______ _______ _____ _____    ______ ____
ROOT
ATOM      1  C   UNL     1       0.626  -0.618   1.042  0.00  0.00    +0.121 A 
ATOM      2  C   UNL     1       1.381   0.126   1.936  0.00  0.00    +0.046 A 
ATOM      3  C   UNL     1       2.014  -0.501   2.992  0.00  0.00    +0.009 A 
ATOM      4  C   UNL     1       1.895  -1.869   3.158  0.00  0.00    -0.028 A 
ATOM      5  C   UNL     1       1.143  -2.612   2.268  0.00  0.00    +0.010 A 
ATOM      6  C   UNL     1       0.503  -1.989   1.213  0.00  0.00    -0.022 A 
ENDROOT
BRANCH   4   7
ATOM      7  C   UNL     1       2.586  -2.550   4.311  0.00  0.00    +0.111 C 
ATOM      8  C   UNL     1       4.074  -2.194   4.303  0.00  0.00    +0.128 C 
ATOM      9  C   UNL     1       4.157  -0.701   4.596  0.00  0.00    -0.035 C 
ATOM     10  C   UNL     1       4.869  -0.164   3.615  0.00  0.00    -0.001 A 
ATOM     11  C   UNL     1       5.355   1.207   3.391  0.00  0.00    +0.010 A 
ATOM     12  C   UNL     1       6.059   1.414   2.247  0.00  0.00    +0.001 A 
ATOM     13  C   UNL     1       6.325   0.407   1.314  0.00  0.00    +0.002 A 
ATOM     14  C   UNL     1       5.922  -0.883   1.442  0.00  0.00    +0.026 A 
ATOM     15  C   UNL     1       5.177  -1.225   2.608  0.00  0.00    +0.043 A 
ATOM     16  N   UNL     1       4.693  -2.390   2.993  0.00  0.00    -0.376 N 
ATOM     17  C   UNL     1       3.428  -0.082   5.765  0.00  0.00    +0.063 C 
ATOM     18  CA  UNL     1       1.989  -0.626   5.710  0.00  0.00    +0.172 C 
ATOM     19  N   UNL     1       2.005  -2.086   5.581  0.00  0.00    -0.295 NA
ATOM     20  H   UNL     1       1.084  -2.473   5.720  0.00  0.00    +0.123 HD
ATOM     21  H   UNL     1       4.731  -3.226   2.502  0.00  0.00    +0.160 HD
BRANCH  18  22
ATOM     22  C   UNL     1       1.263  -0.247   6.976  0.00  0.00    +0.373 C 
ATOM     23  O   UNL     1       0.648   0.803   7.034  0.00  0.00    -0.245 OA
ATOM     24  OXT UNL     1       1.292  -0.992   7.941  0.00  0.00    -0.245 OA
ENDBRANCH  18  22
ENDBRANCH   4   7
BRANCH   1  26
ATOM     25  C   UNL     1       0.172   1.410  -0.113  0.00  0.00    +0.277 C 
ATOM     26  O   UNL     1       0.002  -0.004   0.002  0.00  0.00    -0.495 OA
ENDBRANCH   1  26
BRANCH   6  27
ATOM     27  C   UNL     1      -0.321  -2.800   0.246  0.00  0.00    -0.039 C 
BRANCH  27  28
ATOM     28  N   UNL     1      -1.748  -2.573   0.510  0.00  0.00    +0.384 N 
ATOM     29  C   UNL     1      -2.084  -3.083   1.846  0.00  0.00    -0.059 C 
ATOM     30  C   UNL     1      -3.543  -2.745   2.168  0.00  0.00    +0.086 C 
ATOM     31  N   UNL     1      -4.393  -3.268   1.087  0.00  0.00    -0.331 N 
ATOM     32  C   UNL     1      -4.031  -2.939  -0.300  0.00  0.00    +0.086 C 
ATOM     33  C   UNL     1      -2.549  -3.267  -0.506  0.00  0.00    -0.059 C 
ATOM     34  H   UNL     1      -1.943  -1.584   0.472  0.00  0.00    -0.081 HD
BRANCH  31  35
ATOM     35  C   UNL     1      -5.513  -4.056   1.371  0.00  0.00    +0.065 A 
ATOM     36  C   UNL     1      -6.753  -3.461   1.563  0.00  0.00    +0.026 A 
ATOM     37  C   UNL     1      -7.857  -4.242   1.842  0.00  0.00    +0.002 A 
ATOM     38  C   UNL     1      -7.731  -5.616   1.930  0.00  0.00    +0.003 A 
ATOM     39  C   UNL     1      -6.499  -6.214   1.740  0.00  0.00    +0.040 A 
ATOM     40  C   UNL     1      -5.390  -5.439   1.454  0.00  0.00    +0.144 A 
ATOM     41  F   UNL     1      -4.187  -6.023   1.262  0.00  0.00    -0.204 F 
ENDBRANCH  31  35
ENDBRANCH  27  28
ENDBRANCH   6  27
TORSDOF 6
