REMARK  Name = ZINC26593482
REMARK  9 active torsions:
REMARK  status: ('A' for Active; 'I' for Inactive)
REMARK    1  A    between atoms: C_4  and  N_7
REMARK    2  A    between atoms: C_11  and  C_12
REMARK    3  A    between atoms: C_14  and  N_30
REMARK    4  A    between atoms: C_17  and  O_18
REMARK    5  A    between atoms: O_18  and  C_19
REMARK    6  A    between atoms: C_19  and  C_20
REMARK    7  A    between atoms: C_20  and  C_21
REMARK    8  A    between atoms: C_21  and  O_22
REMARK    9  A    between atoms: O_22  and  C_23
REMARK                            x       y       z     vdW  Elec       q    Type
REMARK                         _______ _______ _______ _____ _____    ______ ____
ROOT
ATOM      1  C   UNL     1       5.899   7.021   0.075  0.00  0.00    +0.020 A 
ATOM      2  C   UNL     1       6.765   5.918   0.061  0.00  0.00    +0.044 A 
ATOM      3  C   UNL     1       8.125   6.115   0.132  0.00  0.00    +0.127 A 
ATOM      4  C   UNL     1       8.644   7.397   0.228  0.00  0.00    +0.036 A 
ATOM      5  C   UNL     1       7.804   8.493   0.249  0.00  0.00    +0.048 A 
ATOM      6  C   UNL     1       6.431   8.319   0.172  0.00  0.00    +0.128 A 
ENDROOT
BRANCH   1  11
ATOM      7  N   UNL     1       2.316   4.333   1.493  0.00  0.00    -0.184 N 
ATOM      8  C   UNL     1       2.450   5.357   0.629  0.00  0.00    +0.272 C 
ATOM      9  O   UNL     1       1.578   5.827  -0.078  0.00  0.00    -0.268 OA
ATOM     10  C   UNL     1       3.855   5.800   0.703  0.00  0.00    +0.102 C 
ATOM     11  C   UNL     1       4.451   6.821  -0.006  0.00  0.00    +0.030 C 
ATOM     12  C   UNL     1       4.485   4.912   1.700  0.00  0.00    +0.266 C 
ATOM     13  O   UNL     1       5.646   4.939   2.063  0.00  0.00    -0.268 OA
ATOM     14  N   UNL     1       3.527   4.072   2.135  0.00  0.00    -0.223 N 
ATOM     15  H   UNL     1       3.591   3.268   2.883  0.00  0.00    +0.174 HD
BRANCH   7  19
ATOM     16  C   UNL     1      -1.223   2.243   2.165  0.00  0.00    +0.000 A 
ATOM     17  C   UNL     1      -0.077   1.900   2.859  0.00  0.00    +0.002 A 
ATOM     18  C   UNL     1       1.099   2.590   2.637  0.00  0.00    +0.025 A 
ATOM     19  C   UNL     1       1.127   3.633   1.720  0.00  0.00    +0.056 A 
ATOM     20  C   UNL     1      -0.027   3.978   1.030  0.00  0.00    +0.025 A 
ATOM     21  C   UNL     1      -1.199   3.284   1.256  0.00  0.00    +0.002 A 
ENDBRANCH   7  19
ENDBRANCH   1  11
BRANCH   3  22
ATOM     22  N   UNL     1       9.040   4.951   0.112  0.00  0.00    +0.056 N 
ATOM     23  O   UNL     1      10.244   5.121   0.180  0.00  0.00    -0.126 OA
ATOM     24  O   UNL     1       8.588   3.823   0.028  0.00  0.00    -0.126 OA
ENDBRANCH   3  22
BRANCH   6  25
ATOM     25  O   UNL     1       5.605   9.395   0.193  0.00  0.00    -0.491 OA
BRANCH  25  26
ATOM     26  C   UNL     1       6.218  10.681   0.294  0.00  0.00    +0.232 C 
BRANCH  26  27
ATOM     27  C   UNL     1       5.136  11.763   0.302  0.00  0.00    +0.082 C 
BRANCH  27  28
ATOM     28  C   UNL     1       5.792  13.141   0.410  0.00  0.00    +0.232 C 
BRANCH  28  29
ATOM     29  O   UNL     1       4.781  14.151   0.418  0.00  0.00    -0.492 OA
BRANCH  29  30
ATOM     30  C   UNL     1       5.199  15.441   0.510  0.00  0.00    +0.121 A 
ATOM     31  C   UNL     1       6.553  15.728   0.597  0.00  0.00    +0.047 A 
ATOM     32  C   UNL     1       6.976  17.040   0.685  0.00  0.00    +0.023 A 
ATOM     33  C   UNL     1       6.048  18.067   0.698  0.00  0.00    +0.041 A 
ATOM     34  C   UNL     1       4.697  17.782   0.617  0.00  0.00    +0.023 A 
ATOM     35  C   UNL     1       4.271  16.472   0.523  0.00  0.00    +0.047 A 
ATOM     36 CL   UNL     1       6.582  19.715   0.815  0.00  0.00    -0.084 Cl
ENDBRANCH  29  30
ENDBRANCH  28  29
ENDBRANCH  27  28
ENDBRANCH  26  27
ENDBRANCH  25  26
ENDBRANCH   6  25
TORSDOF 9
