REMARK  Name = ZINC33904296
REMARK  8 active torsions:
REMARK  status: ('A' for Active; 'I' for Inactive)
REMARK    1  A    between atoms: C_1  and  C_2
REMARK    2  A    between atoms: N_8  and  C_9
REMARK    3  A    between atoms: C_9  and  C_10
REMARK    4  A    between atoms: C_11  and  C_21
REMARK    5  A    between atoms: N_23  and  N_24
REMARK    6  A    between atoms: C_25  and  C_26
REMARK    7  A    between atoms: C_31  and  O_38
REMARK    8  A    between atoms: O_38  and  C_39
REMARK                            x       y       z     vdW  Elec       q    Type
REMARK                         _______ _______ _______ _____ _____    ______ ____
ROOT
ATOM      1  C   UNL     1       0.974  -0.429   3.505  0.00  0.00    +0.063 A 
ATOM      2  C   UNL     1       0.800  -1.551   4.265  0.00  0.00    +0.170 A 
ATOM      3  N   UNL     1       1.727  -1.553   5.239  0.00  0.00    -0.124 NA
ATOM      4  N   UNL     1       2.466  -0.505   5.134  0.00  0.00    -0.058 NA
ATOM      5  N   UNL     1       2.022   0.241   4.033  0.00  0.00    -0.194 N 
ATOM      6  C   UNL     1       2.559   1.448   3.571  0.00  0.00    +0.240 A 
ATOM      7  C   UNL     1       3.701   2.158   4.154  0.00  0.00    +0.206 A 
ATOM      8  N   UNL     1       3.911   3.240   3.456  0.00  0.00    -0.032 NA
ATOM      9  O   UNL     1       2.945   3.283   2.421  0.00  0.00    -0.239 OA
ATOM     10  N   UNL     1       2.132   2.130   2.546  0.00  0.00    -0.027 NA
ATOM     11  N   UNL     1       4.436   1.747   5.260  0.00  0.00    -0.337 N 
ATOM     12  H   UNL     1       4.205   0.923   5.717  0.00  0.00    +0.144 HD
ATOM     13  H   UNL     1       5.179   2.285   5.576  0.00  0.00    +0.144 HD
ENDROOT
BRANCH   2  14
ATOM     14  C   UNL     1      -0.230  -2.585   4.053  0.00  0.00    +0.285 C 
ATOM     15  O   UNL     1      -1.020  -2.477   3.135  0.00  0.00    -0.267 OA
ATOM     16  N   UNL     1      -0.297  -3.649   4.878  0.00  0.00    -0.202 N 
ATOM     17  H   UNL     1       0.333  -3.735   5.610  0.00  0.00    +0.178 HD
BRANCH  16  18
ATOM     18  N   UNL     1      -1.276  -4.631   4.676  0.00  0.00    -0.192 NA
ATOM     19  C   UNL     1      -1.284  -5.684   5.404  0.00  0.00    +0.107 C 
BRANCH  19  20
ATOM     20  C   UNL     1      -0.332  -5.806   6.565  0.00  0.00    +0.043 C 
ATOM     21  C   UNL     1       0.668  -6.926   6.289  0.00  0.00    +0.045 C 
ATOM     22  C   UNL     1       1.554  -7.171   7.479  0.00  0.00    -0.033 A 
ATOM     23  C   UNL     1       2.780  -7.776   7.291  0.00  0.00    +0.050 A 
ATOM     24  C   UNL     1       3.614  -8.017   8.377  0.00  0.00    +0.120 A 
ATOM     25  C   UNL     1       3.221  -7.651   9.660  0.00  0.00    +0.046 A 
ATOM     26  C   UNL     1       2.010  -7.050   9.859  0.00  0.00    +0.015 A 
ATOM     27  C   UNL     1       1.165  -6.802   8.771  0.00  0.00    +0.021 A 
ATOM     28  C   UNL     1      -0.135  -6.145   8.991  0.00  0.00    +0.164 C 
ATOM     29  O   UNL     1      -0.406  -5.632  10.056  0.00  0.00    -0.292 OA
ATOM     30  C   UNL     1      -1.120  -6.131   7.841  0.00  0.00    +0.089 C 
BRANCH  24  31
ATOM     31  O   UNL     1       4.817  -8.612   8.184  0.00  0.00    -0.495 OA
ATOM     32  C   UNL     1       5.626  -8.831   9.341  0.00  0.00    +0.277 C 
ENDBRANCH  24  31
ENDBRANCH  19  20
ENDBRANCH  16  18
ENDBRANCH   2  14
BRANCH   1  33
ATOM     33  C   UNL     1       0.158  -0.021   2.305  0.00  0.00    -0.019 C 
BRANCH  33  40
ATOM     34  C   UNL     1       0.056   1.435  -0.093  0.00  0.00    -0.013 C 
ATOM     35  C   UNL     1       0.033  -0.095  -0.087  0.00  0.00    -0.071 C 
ATOM     36  C   UNL     1       0.703  -0.619  -1.359  0.00  0.00    -0.016 C 
ATOM     37  C   UNL     1       0.679  -2.150  -1.349  0.00  0.00    -0.003 C 
ATOM     38  C   UNL     1       1.370  -2.654  -0.079  0.00  0.00    -0.019 C 
ATOM     39  C   UNL     1       0.675  -2.054   1.146  0.00  0.00    -0.078 C 
ATOM     40  N   UNL     1       0.757  -0.590   1.090  0.00  0.00    +0.385 N 
ATOM     41  H   UNL     1       1.724  -0.309   1.031  0.00  0.00    -0.081 HD
ENDBRANCH  33  40
ENDBRANCH   1  33
TORSDOF 6
