REMARK  Name = ZINC64024154
REMARK  6 active torsions:
REMARK  status: ('A' for Active; 'I' for Inactive)
REMARK    1  A    between atoms: C_10  and  C_11
REMARK    2  A    between atoms: C_11  and  C_12
REMARK    3  A    between atoms: C_12  and  C_18
REMARK    4  A    between atoms: C_18  and  C_19
REMARK    5  A    between atoms: C_19  and  C_20
REMARK    6  A    between atoms: C_26  and  C_28
REMARK                            x       y       z     vdW  Elec       q    Type
REMARK                         _______ _______ _______ _____ _____    ______ ____
ROOT
ATOM      1  C   UNL     1       6.979   1.745   2.835  0.00  0.00    +0.098 C 
ENDROOT
BRANCH   1   2
ATOM      2  C   UNL     1       8.220   2.599   2.839  0.00  0.00    +0.216 C 
ATOM      3  O   UNL     1       8.755   2.897   1.792  0.00  0.00    -0.276 OA
ATOM      4  N   UNL     1       8.736   3.033   4.006  0.00  0.00    -0.295 N 
ATOM      5  C   UNL     1       8.193   2.743   5.346  0.00  0.00    +0.108 C 
ATOM      6  C   UNL     1       8.703   3.901   6.240  0.00  0.00    +0.021 C 
ATOM      7  C   UNL     1      10.124   4.137   5.663  0.00  0.00    +0.028 C 
ATOM      8  C   UNL     1       9.936   3.869   4.155  0.00  0.00    +0.119 C 
BRANCH   8   9
ATOM      9  C   UNL     1      11.155   3.132   3.598  0.00  0.00    +0.195 C 
ATOM     10  N   UNL     1      11.389   1.899   4.359  0.00  0.00    -0.362 N 
ATOM     11  C   UNL     1      12.571   1.989   4.896  0.00  0.00    +0.060 A 
ATOM     12  C   UNL     1      13.350   1.084   5.754  0.00  0.00    +0.030 A 
ATOM     13  C   UNL     1      14.578   1.452   6.168  0.00  0.00    +0.040 A 
ATOM     14  C   UNL     1      15.161   2.685   5.812  0.00  0.00    +0.125 A 
ATOM     15  C   UNL     1      14.530   3.587   5.028  0.00  0.00    +0.065 A 
ATOM     16  C   UNL     1      13.187   3.291   4.519  0.00  0.00    +0.063 A 
ATOM     17  N   UNL     1      12.360   3.956   3.761  0.00  0.00    -0.362 N 
ATOM     18  F   UNL     1      16.397   2.975   6.271  0.00  0.00    -0.205 F 
ATOM     19  H   UNL     1      10.775   1.153   4.446  0.00  0.00    +0.162 HD
ATOM     20  H   UNL     1      12.512   4.834   3.377  0.00  0.00    +0.162 HD
ENDBRANCH   8   9
ENDBRANCH   1   2
BRANCH   1  21
ATOM     21  C   UNL     1       6.607   1.392   1.393  0.00  0.00    +0.035 C 
BRANCH  21  22
ATOM     22  C   UNL     1       5.347   0.524   1.389  0.00  0.00    +0.039 C 
ATOM     23  C   UNL     1       5.575  -0.757   2.222  0.00  0.00    +0.035 C 
ATOM     24  C   UNL     1       4.184  -0.969   2.862  0.00  0.00    +0.098 C 
ATOM     25  C   UNL     1       3.569   0.414   2.878  0.00  0.00    +0.214 C 
ATOM     26  O   UNL     1       2.608   0.738   3.543  0.00  0.00    -0.276 OA
ATOM     27  N   UNL     1       4.243   1.229   2.050  0.00  0.00    -0.309 N 
ATOM     28  H   UNL     1       4.027   2.164   1.907  0.00  0.00    +0.149 HD
BRANCH  22  29
ATOM     29  C   UNL     1       4.960   0.161  -0.046  0.00  0.00    +0.061 C 
BRANCH  29  39
ATOM     30  C   UNL     1      -0.016   1.357   0.009  0.00  0.00    +0.001 A 
ATOM     31  C   UNL     1       1.169   2.091   0.002  0.00  0.00    +0.001 A 
ATOM     32  C   UNL     1       2.378   1.468  -0.013  0.00  0.00    +0.009 A 
ATOM     33  C   UNL     1       2.438   0.064  -0.021  0.00  0.00    -0.015 A 
ATOM     34  C   UNL     1       1.233  -0.683  -0.013  0.00  0.00    -0.018 A 
ATOM     35  C   UNL     1       0.002  -0.004   0.002  0.00  0.00    +0.008 A 
ATOM     36  C   UNL     1       1.292  -2.087  -0.021  0.00  0.00    +0.008 A 
ATOM     37  C   UNL     1       2.502  -2.709  -0.036  0.00  0.00    +0.001 A 
ATOM     38  C   UNL     1       3.687  -1.976  -0.043  0.00  0.00    +0.004 A 
ATOM     39  C   UNL     1       3.668  -0.615  -0.037  0.00  0.00    -0.038 A 
ENDBRANCH  29  39
ENDBRANCH  22  29
ENDBRANCH  21  22
ENDBRANCH   1  21
TORSDOF 6
