REMARK  Name = ZINC12508163
REMARK  12 active torsions:
REMARK  status: ('A' for Active; 'I' for Inactive)
REMARK    1  A    between atoms: C_1  and  C_2
REMARK    2  A    between atoms: C_5  and  N_9
REMARK    3  A    between atoms: C_6  and  C_8
REMARK    4  A    between atoms: N_9  and  S_10
REMARK    5  A    between atoms: S_10  and  C_13
REMARK    6  A    between atoms: C_16  and  N_22
REMARK    7  A    between atoms: C_17  and  N_19
REMARK    8  A    between atoms: N_22  and  C_23
REMARK    9  A    between atoms: C_28  and  C_29
REMARK   10  A    between atoms: C_28  and  N_64
REMARK   11  A    between atoms: C_29  and  C_30
REMARK   12  A    between atoms: C_29  and  C_31
REMARK                            x       y       z     vdW  Elec       q    Type
REMARK                         _______ _______ _______ _____ _____    ______ ____
ROOT
ATOM      1  C   UNL     1       2.542   2.890   0.830  0.00  0.00    +0.111 A 
ATOM      2  C   UNL     1       3.270   2.533   1.951  0.00  0.00    +0.031 A 
ATOM      3  C   UNL     1       3.168   3.279   3.109  0.00  0.00    +0.027 A 
ATOM      4  C   UNL     1       2.333   4.389   3.147  0.00  0.00    +0.058 A 
ATOM      5  C   UNL     1       1.604   4.744   2.019  0.00  0.00    +0.149 A 
ATOM      6  C   UNL     1       1.715   3.997   0.863  0.00  0.00    +0.063 A 
ENDROOT
BRANCH   1   7
ATOM      7  S   UNL     1       2.676   1.935  -0.645  0.00  0.00    +0.072 S 
ATOM      8  O   UNL     1       3.933   1.275  -0.589  0.00  0.00    -0.150 OA
ATOM      9  O   UNL     1       2.313   2.793  -1.718  0.00  0.00    -0.150 OA
BRANCH   7  10
ATOM     10  N   UNL     1       1.517   0.754  -0.570  0.00  0.00    -0.216 N 
ATOM     11  H   UNL     1       1.776  -0.180  -0.588  0.00  0.00    +0.174 HD
BRANCH  10  16
ATOM     12  C   UNL     1      -3.963   2.174  -0.239  0.00  0.00    +0.044 C 
ATOM     13  C   UNL     1      -2.507   1.797  -0.327  0.00  0.00    -0.050 A 
ATOM     14  C   UNL     1      -1.639   2.566  -1.080  0.00  0.00    +0.005 A 
ATOM     15  C   UNL     1      -0.304   2.224  -1.163  0.00  0.00    +0.025 A 
ATOM     16  C   UNL     1       0.168   1.104  -0.488  0.00  0.00    +0.051 A 
ATOM     17  C   UNL     1      -0.708   0.331   0.264  0.00  0.00    -0.028 A 
ATOM     18  C   UNL     1      -2.041   0.682   0.346  0.00  0.00    +0.008 A 
ATOM     19  C   UNL     1      -0.202  -0.888   0.992  0.00  0.00    +0.046 C 
ENDBRANCH  10  16
ENDBRANCH   7  10
ENDBRANCH   1   7
BRANCH   5  20
ATOM     20  N   UNL     1       0.713   5.926   2.055  0.00  0.00    +0.058 N 
ATOM     21  O   UNL     1       0.061   6.167   3.055  0.00  0.00    -0.126 OA
ATOM     22  O   UNL     1       0.633   6.657   1.085  0.00  0.00    -0.126 OA
ENDBRANCH   5  20
BRANCH   4  23
ATOM     23  N   UNL     1       2.227   5.145   4.316  0.00  0.00    -0.339 N 
ATOM     24  H   UNL     1       1.599   5.883   4.361  0.00  0.00    +0.146 HD
BRANCH  23  25
ATOM     25  C   UNL     1       3.064   4.824   5.474  0.00  0.00    +0.067 C 
ATOM     26  C   UNL     1       2.393   3.725   6.303  0.00  0.00    +0.003 C 
ATOM     27  C   UNL     1       3.241   3.439   7.544  0.00  0.00    -0.077 C 
ATOM     28  C   UNL     1       4.063   5.718   7.581  0.00  0.00    -0.077 C 
ATOM     29  C   UNL     1       3.239   6.074   6.342  0.00  0.00    +0.003 C 
ATOM     30  N   UNL     1       3.350   4.674   8.348  0.00  0.00    +0.380 N 
ATOM     31  H   UNL     1       2.406   5.011   8.571  0.00  0.00    -0.082 HD
BRANCH  30  32
ATOM     32  C   UNL     1       4.070   4.395   9.608  0.00  0.00    -0.076 C 
BRANCH  32  33
ATOM     33  C   UNL     1       3.378   3.236  10.330  0.00  0.00    -0.034 C 
ATOM     34  C   UNL     1       4.161   2.885  11.597  0.00  0.00    +0.005 C 
ATOM     35  C   UNL     1       1.954   3.648  10.708  0.00  0.00    +0.005 C 
ENDBRANCH  32  33
ENDBRANCH  30  32
ENDBRANCH  23  25
ENDBRANCH   4  23
TORSDOF 8
