REMARK  Name = ZINC04087127
REMARK  10 active torsions:
REMARK  status: ('A' for Active; 'I' for Inactive)
REMARK    1  A    between atoms: C_1  and  C_2
REMARK    2  A    between atoms: C_2  and  C_3
REMARK    3  A    between atoms: C_3  and  C_4
REMARK    4  A    between atoms: C_4  and  O_5
REMARK    5  A    between atoms: O_5  and  C_6
REMARK    6  A    between atoms: C_9  and  C_12
REMARK    7  A    between atoms: N_14  and  C_15
REMARK    8  A    between atoms: C_16  and  C_25
REMARK    9  A    between atoms: C_23  and  C_24
REMARK   10  A    between atoms: C_23  and  N_55
REMARK                            x       y       z     vdW  Elec       q    Type
REMARK                         _______ _______ _______ _____ _____    ______ ____
ROOT
ATOM      1  C   UNL     1       1.873   2.331   1.184  0.00  0.00    +0.085 A 
ATOM      2  C   UNL     1       1.245   1.963   0.001  0.00  0.00    +0.068 A 
ATOM      3  C   UNL     1       1.880   2.355  -1.243  0.00  0.00    -0.027 A 
ATOM      4  C   UNL     1       3.038   3.042  -1.109  0.00  0.00    -0.021 A 
ATOM      5  S   UNL     1       3.287   3.171   0.637  0.00  0.00    -0.079 S 
ATOM      6  C   UNL     1       3.896   3.562  -2.220  0.00  0.00    -0.035 C 
ATOM      7  C   UNL     1       2.017   2.977  -3.634  0.00  0.00    -0.074 C 
ATOM      8  C   UNL     1       1.330   2.047  -2.631  0.00  0.00    +0.018 C 
ATOM      9  N   UNL     1       3.482   2.879  -3.470  0.00  0.00    +0.383 N 
ATOM     10  H   UNL     1       3.747   1.889  -3.413  0.00  0.00    -0.081 HD
ENDROOT
BRANCH   2  11
ATOM     11  C   UNL     1      -0.014   1.213   0.009  0.00  0.00    +0.244 C 
ATOM     12  O   UNL     1       0.002  -0.004   0.002  0.00  0.00    -0.270 OA
ATOM     13  N   UNL     1      -1.191   1.871   0.018  0.00  0.00    -0.325 N 
ATOM     14  H   UNL     1      -2.024   1.375   0.019  0.00  0.00    +0.145 HD
ATOM     15  H   UNL     1      -1.204   2.841   0.023  0.00  0.00    +0.145 HD
ENDBRANCH   2  11
BRANCH   1  18
ATOM     16  C   UNL     1       2.215   2.523   3.518  0.00  0.00    +0.249 C 
ATOM     17  O   UNL     1       3.244   3.136   3.307  0.00  0.00    -0.270 OA
ATOM     18  N   UNL     1       1.468   2.084   2.486  0.00  0.00    -0.275 N 
ATOM     19  H   UNL     1       0.648   1.595   2.654  0.00  0.00    +0.156 HD
BRANCH  16  23
ATOM     20  C   UNL     1       0.974   1.768   7.508  0.00  0.00    +0.121 A 
ATOM     21  C   UNL     1       2.151   2.467   7.269  0.00  0.00    +0.046 A 
ATOM     22  C   UNL     1       2.557   2.715   5.977  0.00  0.00    +0.016 A 
ATOM     23  C   UNL     1       1.784   2.260   4.905  0.00  0.00    +0.037 A 
ATOM     24  C   UNL     1       0.599   1.561   5.149  0.00  0.00    +0.016 A 
ATOM     25  C   UNL     1       0.203   1.313   6.445  0.00  0.00    +0.046 A 
BRANCH  20  26
ATOM     26  O   UNL     1       0.578   1.526   8.784  0.00  0.00    -0.492 OA
BRANCH  26  27
ATOM     27  C   UNL     1      -0.642   0.802   8.957  0.00  0.00    +0.229 C 
BRANCH  27  28
ATOM     28  C   UNL     1      -0.923   0.628  10.451  0.00  0.00    +0.041 C 
BRANCH  28  30
ATOM     29  C   UNL     1      -2.510  -0.321  12.132  0.00  0.00    +0.004 C 
ATOM     30  C   UNL     1      -2.228  -0.148  10.638  0.00  0.00    -0.000 C 
ENDBRANCH  28  30
ENDBRANCH  27  28
ENDBRANCH  26  27
ENDBRANCH  20  26
ENDBRANCH  16  23
ENDBRANCH   1  18
BRANCH   9  31
ATOM     31  C   UNL     1       4.164   3.492  -4.631  0.00  0.00    -0.082 C 
ATOM     32  C   UNL     1       3.712   4.943  -4.811  0.00  0.00    -0.017 C 
ENDBRANCH   9  31
TORSDOF 8
