REMARK  Name = ZINC39661918
REMARK  7 active torsions:
REMARK  status: ('A' for Active; 'I' for Inactive)
REMARK    1  A    between atoms: C_3  and  O_35
REMARK    2  A    between atoms: C_4  and  O_34
REMARK    3  A    between atoms: C_6  and  C_7
REMARK    4  A    between atoms: C_7  and  C_8
REMARK    5  A    between atoms: C_8  and  N_9
REMARK    6  A    between atoms: C_10  and  C_12
REMARK    7  A    between atoms: C_23  and  C_25
REMARK                            x       y       z     vdW  Elec       q    Type
REMARK                         _______ _______ _______ _____ _____    ______ ____
ROOT
ATOM      1  C   UNL     1      -4.892  -2.882  -2.577  0.00  0.00    +0.100 C 
ATOM      2  C   UNL     1      -4.663  -4.314  -2.043  0.00  0.00    +0.121 C 
ATOM      3  N   UNL     1      -5.556  -5.166  -2.864  0.00  0.00    -0.296 N 
ATOM      4  C   UNL     1      -5.454  -4.599  -4.229  0.00  0.00    +0.115 C 
ATOM      5  C   UNL     1      -5.410  -3.073  -4.012  0.00  0.00    -0.004 C 
ATOM      6  C   UNL     1      -6.808  -2.479  -4.152  0.00  0.00    -0.010 C 
ATOM      7  C   UNL     1      -7.279  -2.631  -5.602  0.00  0.00    -0.082 C 
ATOM      8  N   UNL     1      -6.341  -1.943  -6.497  0.00  0.00    +0.379 N 
ATOM      9  C   UNL     1      -5.020  -2.580  -6.425  0.00  0.00    -0.082 C 
ATOM     10  C   UNL     1      -4.454  -2.426  -5.010  0.00  0.00    -0.010 C 
ATOM     11  C   UNL     1      -6.294  -6.218  -2.459  0.00  0.00    +0.252 C 
ATOM     12  O   UNL     1      -6.982  -6.822  -3.260  0.00  0.00    -0.270 OA
ATOM     13  H   UNL     1      -6.685  -1.992  -7.444  0.00  0.00    -0.086 HD
ATOM     14  H   UNL     1      -6.262  -0.976  -6.221  0.00  0.00    -0.086 HD
ENDROOT
BRANCH  11  15
ATOM     15  C   UNL     1      -6.267  -6.639  -1.045  0.00  0.00    +0.108 A 
ATOM     16  C   UNL     1      -7.184  -6.103  -0.134  0.00  0.00    +0.138 A 
ATOM     17  C   UNL     1      -7.153  -6.502   1.188  0.00  0.00    +0.041 A 
ATOM     18  C   UNL     1      -6.218  -7.428   1.613  0.00  0.00    +0.026 A 
ATOM     19  C   UNL     1      -5.307  -7.964   0.720  0.00  0.00    +0.077 A 
ATOM     20  C   UNL     1      -5.329  -7.579  -0.609  0.00  0.00    +0.156 A 
ATOM     21  F   UNL     1      -4.442  -8.107  -1.481  0.00  0.00    -0.203 F 
ATOM     22 CL   UNL     1      -4.139  -9.126   1.266  0.00  0.00    -0.081 Cl
ATOM     23  F   UNL     1      -8.098  -5.197  -0.547  0.00  0.00    -0.205 F 
ENDBRANCH  11  15
BRANCH   1  25
ATOM     24  N   UNL     1      -3.607  -0.772  -2.446  0.00  0.00    -0.315 N 
ATOM     25  C   UNL     1      -3.596  -2.112  -2.585  0.00  0.00    +0.218 C 
ATOM     26  O   UNL     1      -2.543  -2.699  -2.716  0.00  0.00    -0.275 OA
ATOM     27  H   UNL     1      -4.450  -0.302  -2.341  0.00  0.00    +0.149 HD
BRANCH  24  28
ATOM     28  C   UNL     1      -2.348  -0.024  -2.454  0.00  0.00    +0.109 C 
BRANCH  28  29
ATOM     29  C   UNL     1      -2.640   1.468  -2.281  0.00  0.00    +0.054 C 
BRANCH  29  35
ATOM     30  C   UNL     1      -0.831   2.712  -3.482  0.00  0.00    +0.007 A 
ATOM     31  C   UNL     1       0.357   3.419  -3.494  0.00  0.00    +0.049 A 
ATOM     32  C   UNL     1       1.037   3.653  -2.310  0.00  0.00    +0.158 A 
ATOM     33  C   UNL     1       0.521   3.175  -1.109  0.00  0.00    +0.158 A 
ATOM     34  C   UNL     1      -0.670   2.468  -1.103  0.00  0.00    +0.052 A 
ATOM     35  C   UNL     1      -1.344   2.238  -2.289  0.00  0.00    -0.042 A 
BRANCH  33  36
ATOM     36  O   UNL     1       1.184   3.401   0.056  0.00  0.00    -0.503 OA
ATOM     37  H   UNL     1       0.929   4.221   0.501  0.00  0.00    +0.292 HD
ENDBRANCH  33  36
BRANCH  32  38
ATOM     38  O   UNL     1       2.206   4.347  -2.321  0.00  0.00    -0.503 OA
ATOM     39  H   UNL     1       2.097   5.302  -2.216  0.00  0.00    +0.292 HD
ENDBRANCH  32  38
ENDBRANCH  29  35
ENDBRANCH  28  29
ENDBRANCH  24  28
ENDBRANCH   1  25
TORSDOF 7
