REMARK  Name = ZINC20533928
REMARK  2 active torsions:
REMARK  status: ('A' for Active; 'I' for Inactive)
REMARK    1  A    between atoms: C_8  and  C_12
REMARK    2  A    between atoms: C_14  and  C_17
REMARK                            x       y       z     vdW  Elec       q    Type
REMARK                         _______ _______ _______ _____ _____    ______ ____
ROOT
ATOM      1  C   UNL     1       3.675   2.202  -0.021  0.00  0.00    +0.114 A 
ATOM      2  N   UNL     1       3.828   3.518  -0.021  0.00  0.00    -0.239 NA
ATOM      3  C   UNL     1       5.028   4.069  -0.023  0.00  0.00    +0.086 A 
ATOM      4  C   UNL     1       6.138   3.263  -0.039  0.00  0.00    +0.075 A 
ATOM      5  S   UNL     1       5.374   1.646  -0.041  0.00  0.00    -0.075 S 
ENDROOT
BRANCH   1  13
ATOM      6  C   UNL     1       0.026  -2.787  -0.015  0.00  0.00    +0.001 A 
ATOM      7  C   UNL     1      -1.175  -2.094   0.001  0.00  0.00    +0.004 A 
ATOM      8  C   UNL     1      -1.191  -0.715   0.009  0.00  0.00    +0.047 A 
ATOM      9  C   UNL     1       0.002  -0.004   0.002  0.00  0.00    +0.137 A 
ATOM     10  C   UNL     1       1.220  -0.703  -0.014  0.00  0.00    +0.018 A 
ATOM     11  C   UNL     1       1.222  -2.103  -0.022  0.00  0.00    +0.011 A 
ATOM     12  C   UNL     1       2.484   0.039  -0.022  0.00  0.00    +0.027 A 
ATOM     13  C   UNL     1       2.434   1.407  -0.013  0.00  0.00    +0.067 A 
ATOM     14  C   UNL     1       1.120   2.071   0.003  0.00  0.00    +0.202 A 
ATOM     15  N   UNL     1       1.055   3.376   0.010  0.00  0.00    -0.369 N 
ATOM     16  O   UNL     1      -0.016   1.347   0.009  0.00  0.00    -0.439 OA
ATOM     17  H   UNL     1       0.076   3.878   0.022  0.00  0.00    +0.159 HD
ATOM     18  H   UNL     1       1.979   3.972   0.004  0.00  0.00    +0.159 HD
ENDBRANCH   1  13
BRANCH   3  19
ATOM     19  C   UNL     1       5.174   5.543  -0.016  0.00  0.00    +0.086 A 
ATOM     20  C   UNL     1       4.069   6.351  -0.006  0.00  0.00    +0.028 A 
ATOM     21  C   UNL     1       4.270   7.801   0.005  0.00  0.00    +0.021 A 
ATOM     22  C   UNL     1       3.172   8.671   0.021  0.00  0.00    +0.031 A 
ATOM     23  C   UNL     1       3.380  10.032   0.026  0.00  0.00    +0.043 A 
ATOM     24  C   UNL     1       4.671  10.544   0.016  0.00  0.00    +0.043 A 
ATOM     25  C   UNL     1       5.762   9.699   0.001  0.00  0.00    +0.085 A 
ATOM     26  C   UNL     1       5.576   8.320  -0.005  0.00  0.00    +0.157 A 
ATOM     27  O   UNL     1       6.644   7.493  -0.020  0.00  0.00    -0.420 OA
ATOM     28  C   UNL     1       6.504   6.159  -0.026  0.00  0.00    +0.347 A 
ATOM     29  O   UNL     1       7.494   5.452  -0.041  0.00  0.00    -0.244 OA
ATOM     30 CL   UNL     1       7.368  10.357  -0.011  0.00  0.00    -0.080 Cl
ATOM     31 CL   UNL     1       2.022  11.114   0.044  0.00  0.00    -0.083 Cl
ENDBRANCH   3  19
TORSDOF 2
