REMARK  Name = ZINC11693232
REMARK  6 active torsions:
REMARK  status: ('A' for Active; 'I' for Inactive)
REMARK    1  A    between atoms: C_7  and  C_11
REMARK    2  A    between atoms: C_11  and  C_12
REMARK    3  A    between atoms: C_12  and  N_13
REMARK    4  A    between atoms: C_14  and  C_16
REMARK    5  A    between atoms: N_21  and  S_22
REMARK    6  A    between atoms: S_22  and  C_25
REMARK                            x       y       z     vdW  Elec       q    Type
REMARK                         _______ _______ _______ _____ _____    ______ ____
ROOT
ATOM      1  N   UNL     1      -2.859  -2.006  -1.417  0.00  0.00    -0.310 N 
ATOM      2  C   UNL     1      -3.468  -2.326  -2.576  0.00  0.00    +0.263 C 
ATOM      3  O   UNL     1      -3.050  -1.879  -3.627  0.00  0.00    -0.269 OA
ATOM      4  H   UNL     1      -3.192  -2.362  -0.579  0.00  0.00    +0.149 HD
ENDROOT
BRANCH   2   5
ATOM      5  C   UNL     1      -4.639  -3.218  -2.569  0.00  0.00    +0.135 A 
ATOM      6  C   UNL     1      -5.267  -3.551  -3.743  0.00  0.00    +0.081 A 
ATOM      7  S   UNL     1      -6.568  -4.616  -3.134  0.00  0.00    -0.059 S 
ATOM      8  C   UNL     1      -6.153  -4.513  -1.399  0.00  0.00    +0.178 A 
ATOM      9  N   UNL     1      -5.103  -3.719  -1.422  0.00  0.00    -0.219 NA
ATOM     10  N   UNL     1      -6.770  -5.116  -0.316  0.00  0.00    -0.193 N 
ATOM     11  H   UNL     1      -6.430  -4.968   0.580  0.00  0.00    +0.176 HD
BRANCH  10  12
ATOM     12  S   UNL     1      -8.088  -6.091  -0.550  0.00  0.00    +0.080 S 
ATOM     13  O   UNL     1      -8.470  -6.573   0.731  0.00  0.00    -0.149 OA
ATOM     14  O   UNL     1      -8.981  -5.371  -1.390  0.00  0.00    -0.149 OA
BRANCH  12  15
ATOM     15  C   UNL     1      -7.545  -7.489  -1.474  0.00  0.00    +0.146 A 
ATOM     16  C   UNL     1      -7.066  -8.675  -1.025  0.00  0.00    +0.036 A 
ATOM     17  C   UNL     1      -6.696  -9.640  -1.943  0.00  0.00    +0.010 A 
ATOM     18  C   UNL     1      -6.823  -9.371  -3.266  0.00  0.00    +0.047 A 
ATOM     19  S   UNL     1      -7.490  -7.715  -3.244  0.00  0.00    -0.077 S 
ENDBRANCH  12  15
ENDBRANCH  10  12
ENDBRANCH   2   5
BRANCH   1  20
ATOM     20  C   UNL     1      -1.693  -1.118  -1.424  0.00  0.00    +0.109 C 
BRANCH  20  21
ATOM     21  C   UNL     1      -1.197  -0.917   0.009  0.00  0.00    +0.056 C 
BRANCH  21  28
ATOM     22  C   UNL     1      -0.716   3.746   0.030  0.00  0.00    +0.001 A 
ATOM     23  C   UNL     1       0.611   4.153   0.019  0.00  0.00    +0.002 A 
ATOM     24  C   UNL     1       1.630   3.226   0.004  0.00  0.00    +0.026 A 
ATOM     25  C   UNL     1       1.329   1.868  -0.001  0.00  0.00    +0.047 A 
ATOM     26  C   UNL     1      -0.018   1.461   0.010  0.00  0.00    +0.003 A 
ATOM     27  C   UNL     1      -1.035   2.417   0.030  0.00  0.00    +0.010 A 
ATOM     28  C   UNL     1       0.002  -0.004   0.002  0.00  0.00    -0.021 A 
ATOM     29  C   UNL     1       1.291  -0.379  -0.012  0.00  0.00    +0.087 A 
ATOM     30  N   UNL     1       2.098   0.726  -0.014  0.00  0.00    -0.360 N 
ATOM     31  H   UNL     1       3.068   0.708  -0.024  0.00  0.00    +0.165 HD
ENDBRANCH  21  28
ENDBRANCH  20  21
ENDBRANCH   1  20
TORSDOF 6
