REMARK  Name = ZINC25431833
REMARK  16 active torsions:
REMARK  status: ('A' for Active; 'I' for Inactive)
REMARK    1  A    between atoms: C_1  and  C_2
REMARK    2  A    between atoms: C_2  and  C_3
REMARK    3  A    between atoms: C_8  and  N_9
REMARK    4  A    between atoms: C_10  and  C_12
REMARK    5  A    between atoms: C_12  and  N_13
REMARK    6  A    between atoms: N_13  and  C_14
REMARK    7  A    between atoms: C_15  and  C_17
REMARK    8  A    between atoms: C_17  and  C_19
REMARK    9  A    between atoms: C_17  and  N_20
REMARK   10  A    between atoms: N_20  and  C_21
REMARK   11  A    between atoms: N_20  and  C_22
REMARK   12  A    between atoms: C_22  and  C_23
REMARK   13  A    between atoms: N_25  and  C_26
REMARK   14  A    between atoms: C_27  and  C_34
REMARK   15  A    between atoms: C_29  and  C_33
REMARK   16  A    between atoms: C_31  and  C_32
REMARK                            x       y       z     vdW  Elec       q    Type
REMARK                         _______ _______ _______ _____ _____    ______ ____
ROOT
ATOM      1  C   UNL     1       0.679  -1.169   1.586  0.00  0.00    +0.017 C 
ATOM      2  C   UNL     1       1.218   0.121   2.205  0.00  0.00    -0.004 C 
ENDROOT
BRANCH   1   5
ATOM      3  N   UNL     1       1.738  -1.050  -0.646  0.00  0.00    -0.297 N 
ATOM      4  C   UNL     1       0.893   0.112  -0.933  0.00  0.00    +0.132 C 
ATOM      5  C   UNL     1       1.648  -1.671   0.547  0.00  0.00    +0.202 C 
ATOM      6  O   UNL     1       2.348  -2.633   0.784  0.00  0.00    -0.277 OA
BRANCH   3   7
ATOM      7  C   UNL     1       2.680  -1.538  -1.657  0.00  0.00    +0.203 C 
BRANCH   7   9
ATOM      8  N   UNL     1       5.034  -1.138  -2.304  0.00  0.00    -0.284 N 
ATOM      9  C   UNL     1       4.008  -0.846  -1.481  0.00  0.00    +0.235 C 
ATOM     10  O   UNL     1       4.152  -0.027  -0.598  0.00  0.00    -0.274 OA
ATOM     11  H   UNL     1       4.880  -1.817  -3.156  0.00  0.00    +0.155 HD
BRANCH   8  17
ATOM     12  C   UNL     1       7.440  -1.250  -2.483  0.00  0.00    -0.026 A 
ATOM     13  C   UNL     1       8.684  -0.694  -2.256  0.00  0.00    +0.005 A 
ATOM     14  C   UNL     1       8.790   0.531  -1.624  0.00  0.00    +0.000 A 
ATOM     15  C   UNL     1       7.652   1.203  -1.217  0.00  0.00    +0.002 A 
ATOM     16  C   UNL     1       6.405   0.655  -1.445  0.00  0.00    +0.023 A 
ATOM     17  C   UNL     1       6.295  -0.578  -2.075  0.00  0.00    +0.037 A 
BRANCH  12  19
ATOM     18  C   UNL     1       7.097  -2.367  -4.671  0.00  0.00    +0.009 C 
ATOM     19  C   UNL     1       7.325  -2.585  -3.174  0.00  0.00    +0.033 C 
ENDBRANCH  12  19
ENDBRANCH   8  17
ENDBRANCH   7   9
ENDBRANCH   3   7
ENDBRANCH   1   5
BRANCH   1  20
ATOM     20  N   UNL     1       0.516  -2.186   2.634  0.00  0.00    +0.391 N 
ATOM     21  C   UNL     1      -0.683  -1.922   3.441  0.00  0.00    -0.094 C 
ATOM     22  H   UNL     1       0.385  -3.161   2.143  0.00  0.00    -0.080 HD
BRANCH  20  23
ATOM     23  C   UNL     1       1.714  -2.265   3.481  0.00  0.00    +0.020 C 
BRANCH  23  24
ATOM     24  C   UNL     1       1.615  -3.470   4.380  0.00  0.00    +0.201 C 
ATOM     25  O   UNL     1       0.642  -4.192   4.321  0.00  0.00    -0.278 OA
ATOM     26  N   UNL     1       2.607  -3.746   5.250  0.00  0.00    -0.287 N 
ATOM     27  H   UNL     1       3.523  -3.137   5.249  0.00  0.00    +0.155 HD
BRANCH  26  28
ATOM     28  C   UNL     1       2.471  -4.806   6.152  0.00  0.00    +0.039 A 
ATOM     29  C   UNL     1       1.340  -4.898   6.953  0.00  0.00    -0.029 A 
ATOM     30  C   UNL     1       1.207  -5.949   7.839  0.00  0.00    +0.008 A 
ATOM     31  C   UNL     1       2.204  -6.902   7.938  0.00  0.00    -0.050 A 
ATOM     32  C   UNL     1       3.334  -6.810   7.147  0.00  0.00    +0.008 A 
ATOM     33  C   UNL     1       3.471  -5.765   6.255  0.00  0.00    -0.029 A 
ATOM     34  C   UNL     1       4.703  -5.665   5.393  0.00  0.00    +0.045 C 
ATOM     35  C   UNL     1       2.058  -8.044   8.911  0.00  0.00    +0.044 C 
ATOM     36  C   UNL     1       0.256  -3.856   6.850  0.00  0.00    +0.045 C 
ENDBRANCH  26  28
ENDBRANCH  23  24
ENDBRANCH  20  23
ENDBRANCH   1  20
TORSDOF 9
