REMARK  Name = ZINC67000515
REMARK  9 active torsions:
REMARK  status: ('A' for Active; 'I' for Inactive)
REMARK    1  A    between atoms: C_1  and  C_2
REMARK    2  A    between atoms: C_4  and  N_26
REMARK    3  A    between atoms: C_7  and  N_8
REMARK    4  A    between atoms: C_9  and  C_11
REMARK    5  A    between atoms: N_13  and  C_14
REMARK    6  A    between atoms: C_14  and  C_15
REMARK    7  A    between atoms: C_15  and  O_25
REMARK    8  A    between atoms: N_26  and  C_27
REMARK    9  A    between atoms: N_26  and  C_28
REMARK                            x       y       z     vdW  Elec       q    Type
REMARK                         _______ _______ _______ _____ _____    ______ ____
ROOT
ATOM      1  C   UNL     1      -0.169   0.052   4.869  0.00  0.00    +0.299 C 
ATOM      2  O   UNL     1      -0.183   1.266   4.872  0.00  0.00    -0.265 OA
ATOM      3  N   UNL     1      -0.251  -0.625   6.032  0.00  0.00    -0.305 N 
ATOM      4  H   UNL     1      -0.240  -1.595   6.029  0.00  0.00    +0.149 HD
ENDROOT
BRANCH   1   6
ATOM      5  N   UNL     1       0.021  -0.013   2.416  0.00  0.00    -0.278 N 
ATOM      6  C   UNL     1      -0.061  -0.691   3.578  0.00  0.00    +0.303 C 
ATOM      7  O   UNL     1      -0.048  -1.904   3.576  0.00  0.00    -0.265 OA
ATOM      8  H   UNL     1       0.075   0.955   2.422  0.00  0.00    +0.155 HD
BRANCH   5  15
ATOM      9  C   UNL     1      -1.270   1.185   0.183  0.00  0.00    +0.046 C 
ATOM     10  C   UNL     1      -0.592  -0.158   0.085  0.00  0.00    -0.027 A 
ATOM     11  C   UNL     1      -0.581  -0.840  -1.115  0.00  0.00    +0.028 A 
ATOM     12  C   UNL     1       0.044  -2.077  -1.206  0.00  0.00    +0.030 A 
ATOM     13  C   UNL     1       0.658  -2.628  -0.088  0.00  0.00    +0.025 A 
ATOM     14  C   UNL     1       0.647  -1.947   1.112  0.00  0.00    +0.025 A 
ATOM     15  C   UNL     1       0.027  -0.707   1.201  0.00  0.00    +0.037 A 
BRANCH  12  16
ATOM     16  N   UNL     1       0.055  -2.768  -2.421  0.00  0.00    -0.336 N 
ATOM     17  C   UNL     1      -0.593  -2.187  -3.600  0.00  0.00    +0.129 C 
ATOM     18  C   UNL     1       0.714  -4.073  -2.517  0.00  0.00    +0.129 C 
ENDBRANCH  12  16
ENDBRANCH   5  15
ENDBRANCH   1   6
BRANCH   3  19
ATOM     19  C   UNL     1      -0.357   0.103   7.298  0.00  0.00    +0.144 C 
BRANCH  19  20
ATOM     20  C   UNL     1      -0.308  -0.888   8.462  0.00  0.00    +0.107 C 
ATOM     21  C   UNL     1       0.944  -1.754   8.335  0.00  0.00    +0.041 C 
ATOM     22  C   UNL     1       1.090  -2.585   9.615  0.00  0.00    +0.008 C 
ATOM     23  C   UNL     1       1.465  -1.645  10.759  0.00  0.00    +0.035 C 
ATOM     24  C   UNL     1       0.515  -0.477  10.818  0.00  0.00    -0.041 A 
ATOM     25  C   UNL     1      -0.296  -0.128   9.762  0.00  0.00    -0.011 A 
ATOM     26  C   UNL     1      -1.145   0.965   9.880  0.00  0.00    +0.007 A 
ATOM     27  C   UNL     1      -1.184   1.700  11.047  0.00  0.00    +0.000 A 
ATOM     28  C   UNL     1      -0.372   1.346  12.109  0.00  0.00    +0.000 A 
ATOM     29  C   UNL     1       0.473   0.262  11.993  0.00  0.00    +0.004 A 
BRANCH  20  30
ATOM     30  O   UNL     1      -1.466  -1.726   8.417  0.00  0.00    -0.382 OA
ATOM     31  H   UNL     1      -2.302  -1.244   8.484  0.00  0.00    +0.211 HD
ENDBRANCH  20  30
ENDBRANCH  19  20
ENDBRANCH   3  19
TORSDOF 6
