REMARK  Name = ZINC66120839
REMARK  6 active torsions:
REMARK  status: ('A' for Active; 'I' for Inactive)
REMARK    1  A    between atoms: C_1  and  C_2
REMARK    2  A    between atoms: C_11  and  C_14
REMARK    3  A    between atoms: C_14  and  N_15
REMARK    4  A    between atoms: C_22  and  C_25
REMARK    5  A    between atoms: C_25  and  C_26
REMARK    6  A    between atoms: C_26  and  C_27
REMARK                            x       y       z     vdW  Elec       q    Type
REMARK                         _______ _______ _______ _____ _____    ______ ____
ROOT
ATOM      1  N   UNL     1      -2.312  -7.683   4.223  0.00  0.00    -0.295 N 
ATOM      2  C   UNL     1      -2.664  -8.757   4.959  0.00  0.00    +0.302 C 
ATOM      3  O   UNL     1      -3.236  -8.605   6.021  0.00  0.00    -0.253 OA
ATOM      4  N   UNL     1      -2.383  -9.998   4.516  0.00  0.00    -0.285 N 
ATOM      5  C   UNL     1      -1.584 -10.196   3.299  0.00  0.00    +0.109 C 
ATOM      6  C   UNL     1      -0.409 -11.123   3.626  0.00  0.00    +0.019 C 
ATOM      7  C   UNL     1      -0.942 -12.417   4.245  0.00  0.00    +0.006 C 
ATOM      8  C   UNL     1      -1.681 -12.096   5.546  0.00  0.00    +0.007 C 
ATOM      9  C   UNL     1      -2.865 -11.180   5.245  0.00  0.00    +0.112 C 
ATOM     10  H   UNL     1      -1.926  -7.805   3.342  0.00  0.00    +0.151 HD
ENDROOT
BRANCH   1  11
ATOM     11  C   UNL     1      -2.513  -6.333   4.756  0.00  0.00    +0.142 C 
BRANCH  11  22
ATOM     12  C   UNL     1       1.403  -1.763  -2.607  0.00  0.00    +0.007 C 
ATOM     13  C   UNL     1       0.658  -1.595  -1.282  0.00  0.00    -0.011 C 
ATOM     14  C   UNL     1       1.473  -2.234  -0.155  0.00  0.00    +0.022 C 
ATOM     15  C   UNL     1       0.741  -2.034   1.176  0.00  0.00    +0.107 C 
ATOM     16  N   UNL     1      -0.625  -2.558   1.048  0.00  0.00    -0.317 N 
ATOM     17  C   UNL     1      -1.465  -2.077  -0.058  0.00  0.00    +0.107 C 
ATOM     18  C   UNL     1      -0.708  -2.277  -1.375  0.00  0.00    +0.022 C 
ATOM     19  C   UNL     1      -1.114  -3.491   1.954  0.00  0.00    +0.099 A 
ATOM     20  C   UNL     1      -2.445  -3.891   1.882  0.00  0.00    +0.042 A 
ATOM     21  C   UNL     1      -2.918  -4.820   2.791  0.00  0.00    +0.010 A 
ATOM     22  C   UNL     1      -2.041  -5.320   3.745  0.00  0.00    -0.014 A 
ATOM     23  C   UNL     1      -0.734  -4.878   3.759  0.00  0.00    +0.089 A 
ATOM     24  N   UNL     1      -0.308  -3.994   2.876  0.00  0.00    -0.349 N 
ATOM     25  H   UNL     1       0.617  -3.704   2.906  0.00  0.00    +0.167 HD
ENDBRANCH  11  22
ENDBRANCH   1  11
BRANCH   8  26
ATOM     26  C   UNL     1      -2.184 -13.393   6.181  0.00  0.00    +0.014 C 
BRANCH  26  27
ATOM     27  C   UNL     1      -2.812 -13.085   7.542  0.00  0.00    +0.096 C 
BRANCH  27  28
ATOM     28  C   UNL     1      -3.308 -14.363   8.168  0.00  0.00    +0.210 C 
ATOM     29  O   UNL     1      -3.173 -15.417   7.583  0.00  0.00    -0.276 OA
ATOM     30  N   UNL     1      -3.902 -14.335   9.377  0.00  0.00    -0.329 N 
ATOM     31  H   UNL     1      -4.010 -13.492   9.845  0.00  0.00    +0.145 HD
ATOM     32  H   UNL     1      -4.221 -15.157   9.780  0.00  0.00    +0.145 HD
ENDBRANCH  27  28
ENDBRANCH  26  27
ENDBRANCH   8  26
TORSDOF 5
