REMARK  Name = ZINC36615472
REMARK  5 active torsions:
REMARK  status: ('A' for Active; 'I' for Inactive)
REMARK    1  A    between atoms: C_4  and  N_9
REMARK    2  A    between atoms: C_5  and  C_7
REMARK    3  A    between atoms: C_10  and  C_12
REMARK    4  A    between atoms: C_12  and  N_13
REMARK    5  A    between atoms: N_17  and  C_20
REMARK                            x       y       z     vdW  Elec       q    Type
REMARK                         _______ _______ _______ _____ _____    ______ ____
ROOT
ATOM      1  N   UNL     1       7.190   0.334  -0.380  0.00  0.00    -0.267 N 
ATOM      2  C   UNL     1       7.733   0.919  -1.618  0.00  0.00    +0.206 C 
ATOM      3  C   UNL     1       8.830   1.841  -1.124  0.00  0.00    +0.245 C 
ATOM      4  O   UNL     1       9.558   2.540  -1.797  0.00  0.00    -0.273 OA
ATOM      5  N   UNL     1       8.829   1.724   0.218  0.00  0.00    -0.193 N 
ATOM      6  C   UNL     1       7.889   0.868   0.638  0.00  0.00    +0.316 C 
ATOM      7  O   UNL     1       7.692   0.601   1.807  0.00  0.00    -0.252 OA
ENDROOT
BRANCH   5   8
ATOM      8  C   UNL     1       9.700   2.416   1.071  0.00  0.00    +0.046 A 
ATOM      9  C   UNL     1       9.706   2.141   2.432  0.00  0.00    +0.025 A 
ATOM     10  C   UNL     1      10.566   2.824   3.270  0.00  0.00    +0.017 A 
ATOM     11  C   UNL     1      11.421   3.782   2.754  0.00  0.00    +0.018 A 
ATOM     12  C   UNL     1      11.417   4.058   1.398  0.00  0.00    +0.017 A 
ATOM     13  C   UNL     1      10.563   3.373   0.555  0.00  0.00    +0.025 A 
ATOM     14 BR   UNL     1      12.596   4.716   3.904  0.00  0.00    -0.050 Br
ENDBRANCH   5   8
BRANCH   1  15
ATOM     15  C   UNL     1       6.096  -0.636  -0.277  0.00  0.00    +0.205 C 
BRANCH  15  17
ATOM     16  N   UNL     1       3.634  -0.595  -0.048  0.00  0.00    -0.283 N 
ATOM     17  C   UNL     1       4.785   0.097  -0.156  0.00  0.00    +0.235 C 
ATOM     18  O   UNL     1       4.766   1.310  -0.156  0.00  0.00    -0.274 OA
ATOM     19  H   UNL     1       3.655  -1.562   0.035  0.00  0.00    +0.155 HD
BRANCH  16  23
ATOM     20  C   UNL     1      -0.020   1.418  -0.072  0.00  0.00    +0.001 A 
ATOM     21  C   UNL     1       1.094   1.984  -0.671  0.00  0.00    +0.002 A 
ATOM     22  C   UNL     1       2.304   1.320  -0.664  0.00  0.00    +0.024 A 
ATOM     23  C   UNL     1       2.413   0.077  -0.055  0.00  0.00    +0.051 A 
ATOM     24  C   UNL     1       1.287  -0.499   0.553  0.00  0.00    +0.073 A 
ATOM     25  C   UNL     1       0.069   0.185   0.538  0.00  0.00    +0.021 A 
BRANCH  24  26
ATOM     26  C   UNL     1       1.386  -1.780   1.184  0.00  0.00    +0.101 C 
ATOM     27  N   UNL     1       1.464  -2.797   1.685  0.00  0.00    -0.191 NA
ENDBRANCH  24  26
ENDBRANCH  16  23
ENDBRANCH  15  17
ENDBRANCH   1  15
TORSDOF 5
