REMARK  Name = ZINC32885685
REMARK  6 active torsions:
REMARK  status: ('A' for Active; 'I' for Inactive)
REMARK    1  A    between atoms: C_1  and  C_2
REMARK    2  A    between atoms: C_5  and  C_34
REMARK    3  A    between atoms: N_8  and  C_10
REMARK    4  A    between atoms: C_10  and  C_11
REMARK    5  A    between atoms: C_17  and  C_19
REMARK    6  A    between atoms: C_25  and  C_27
REMARK                            x       y       z     vdW  Elec       q    Type
REMARK                         _______ _______ _______ _____ _____    ______ ____
ROOT
ATOM      1  C   UNL     1       9.209   6.001   5.172  0.00  0.00    +0.034 A 
ATOM      2  C   UNL     1       8.488   6.801   5.995  0.00  0.00    +0.070 A 
ATOM      3  S   UNL     1       6.936   6.871   5.113  0.00  0.00    -0.060 S 
ATOM      4  C   UNL     1       7.389   5.859   3.777  0.00  0.00    +0.165 A 
ATOM      5  N   UNL     1       8.633   5.543   4.078  0.00  0.00    -0.231 NA
ATOM      6  N   UNL     1       6.633   5.476   2.675  0.00  0.00    -0.264 N 
ATOM      7  C   UNL     1       5.361   5.905   2.549  0.00  0.00    +0.222 C 
ATOM      8  O   UNL     1       4.877   6.625   3.396  0.00  0.00    -0.275 OA
ATOM      9  H   UNL     1       7.072   4.822   1.907  0.00  0.00    +0.157 HD
ENDROOT
BRANCH   7  10
ATOM     10  C   UNL     1       4.541   5.489   1.355  0.00  0.00    +0.078 C 
ATOM     11  C   UNL     1       3.145   6.109   1.455  0.00  0.00    +0.032 C 
ATOM     12  C   UNL     1       2.326   5.712   0.223  0.00  0.00    +0.109 C 
ATOM     13  N   UNL     1       2.329   4.248   0.104  0.00  0.00    -0.297 N 
ATOM     14  C   UNL     1       3.618   3.543   0.096  0.00  0.00    +0.109 C 
ATOM     15  C   UNL     1       4.423   3.964   1.324  0.00  0.00    +0.032 C 
ATOM     16  C   UNL     1       1.171   3.564   0.009  0.00  0.00    +0.247 C 
ATOM     17  O   UNL     1       0.115   4.163  -0.047  0.00  0.00    -0.270 OA
BRANCH  16  18
ATOM     18  C   UNL     1       1.187   2.087  -0.025  0.00  0.00    +0.037 A 
ATOM     19  C   UNL     1       0.366   1.357   0.837  0.00  0.00    +0.014 A 
ATOM     20  C   UNL     1       0.384  -0.021   0.800  0.00  0.00    +0.021 A 
ATOM     21  C   UNL     1       1.215  -0.682  -0.090  0.00  0.00    +0.041 A 
ATOM     22  C   UNL     1       2.031   0.037  -0.948  0.00  0.00    +0.021 A 
ATOM     23  C   UNL     1       2.021   1.415  -0.920  0.00  0.00    +0.014 A 
ATOM     24 CL   UNL     1       1.233  -2.417  -0.130  0.00  0.00    -0.084 Cl
ENDBRANCH  16  18
ENDBRANCH   7  10
BRANCH   1  25
ATOM     25  C   UNL     1      10.634   5.639   5.503  0.00  0.00    -0.022 C 
BRANCH  25  31
ATOM     26  C   UNL     1       9.098   2.127   7.243  0.00  0.00    +0.005 C 
ATOM     27  C   UNL     1       9.924   3.049   8.143  0.00  0.00    -0.031 C 
ATOM     28  C   UNL     1      11.337   2.480   8.298  0.00  0.00    +0.003 C 
ATOM     29  C   UNL     1      12.015   2.438   6.925  0.00  0.00    -0.031 C 
ATOM     30  C   UNL     1      12.036   3.846   6.328  0.00  0.00    -0.075 C 
ATOM     31  N   UNL     1      10.662   4.346   6.200  0.00  0.00    +0.384 N 
ATOM     32  C   UNL     1      10.006   4.441   7.510  0.00  0.00    -0.075 C 
ATOM     33  C   UNL     1      13.448   1.926   7.080  0.00  0.00    +0.005 C 
ATOM     34  H   UNL     1      10.097   3.622   5.594  0.00  0.00    -0.081 HD
ENDBRANCH  25  31
ENDBRANCH   1  25
TORSDOF 4
