REMARK  Name = ZINC38556458
REMARK  6 active torsions:
REMARK  status: ('A' for Active; 'I' for Inactive)
REMARK    1  A    between atoms: C_6  and  C_11
REMARK    2  A    between atoms: C_11  and  C_13
REMARK    3  A    between atoms: C_13  and  S_14
REMARK    4  A    between atoms: S_14  and  C_15
REMARK    5  A    between atoms: C_18  and  C_22
REMARK    6  A    between atoms: N_20  and  N_21
REMARK                            x       y       z     vdW  Elec       q    Type
REMARK                         _______ _______ _______ _____ _____    ______ ____
ROOT
ATOM      1  C   UNL     1       6.576  -6.552  -0.092  0.00  0.00    +0.189 C 
ATOM      2  N   UNL     1       5.453  -7.188  -0.090  0.00  0.00    -0.161 NA
ATOM      3  N   UNL     1       5.649  -8.575  -0.098  0.00  0.00    -0.243 N 
ATOM      4  C   UNL     1       7.108  -8.783  -0.105  0.00  0.00    +0.222 C 
ATOM      5  N   UNL     1       7.660  -7.417  -0.106  0.00  0.00    -0.223 N 
ATOM      6  H   UNL     1       4.963  -9.260  -0.098  0.00  0.00    +0.170 HD
ENDROOT
BRANCH   4   7
ATOM      7  C   UNL     1       7.537  -9.534  -1.367  0.00  0.00    +0.197 C 
ATOM      8  C   UNL     1       6.843 -10.879  -1.453  0.00  0.00    -0.017 C 
ATOM      9  C   UNL     1       6.123 -10.818  -2.571  0.00  0.00    +0.065 C 
ATOM     10  C   UNL     1       5.371 -12.122  -2.770  0.00  0.00    +0.057 C 
ATOM     11  C   UNL     1       6.072 -13.137  -1.841  0.00  0.00    +0.011 C 
ATOM     12  C   UNL     1       6.678 -12.208  -0.764  0.00  0.00    +0.035 C 
ATOM     13  N   UNL     1       6.297  -9.608  -3.169  0.00  0.00    -0.158 NA
ATOM     14  N   UNL     1       7.061  -8.840  -2.575  0.00  0.00    -0.176 NA
ENDBRANCH   4   7
BRANCH   5  15
ATOM     15  N   UNL     1       8.981  -7.071  -0.117  0.00  0.00    -0.250 NA
ATOM     16  H   UNL     1       9.092  -6.068  -0.112  0.00  0.00    +0.141 HD
ATOM     17  H   UNL     1       9.471  -7.492   0.658  0.00  0.00    +0.141 HD
ENDBRANCH   5  15
BRANCH   1  18
ATOM     18  S   UNL     1       6.715  -4.796  -0.085  0.00  0.00    -0.080 S 
BRANCH  18  19
ATOM     19  C   UNL     1       4.995  -4.219  -0.066  0.00  0.00    +0.156 C 
BRANCH  19  20
ATOM     20  C   UNL     1       4.970  -2.713  -0.058  0.00  0.00    +0.173 C 
ATOM     21  O   UNL     1       6.010  -2.089  -0.064  0.00  0.00    -0.291 OA
BRANCH  20  27
ATOM     22  C   UNL     1      -0.016   1.357   0.009  0.00  0.00    +0.001 A 
ATOM     23  C   UNL     1       1.168   2.092   0.002  0.00  0.00    +0.001 A 
ATOM     24  C   UNL     1       2.378   1.468  -0.013  0.00  0.00    +0.008 A 
ATOM     25  C   UNL     1       2.437   0.063  -0.021  0.00  0.00    -0.017 A 
ATOM     26  C   UNL     1       3.667  -0.611  -0.035  0.00  0.00    +0.020 A 
ATOM     27  C   UNL     1       3.684  -1.998  -0.043  0.00  0.00    +0.019 A 
ATOM     28  C   UNL     1       2.479  -2.728  -0.036  0.00  0.00    +0.012 A 
ATOM     29  C   UNL     1       1.281  -2.091  -0.022  0.00  0.00    +0.009 A 
ATOM     30  C   UNL     1       1.231  -0.684  -0.013  0.00  0.00    -0.018 A 
ATOM     31  C   UNL     1       0.002  -0.004   0.002  0.00  0.00    +0.008 A 
ENDBRANCH  20  27
ENDBRANCH  19  20
ENDBRANCH  18  19
ENDBRANCH   1  18
TORSDOF 6
