REMARK  Name = ZINC12614009
REMARK  8 active torsions:
REMARK  status: ('A' for Active; 'I' for Inactive)
REMARK    1  A    between atoms: C_1  and  C_2
REMARK    2  A    between atoms: C_2  and  C_4
REMARK    3  A    between atoms: C_2  and  N_9
REMARK    4  A    between atoms: C_10  and  C_12
REMARK    5  A    between atoms: C_12  and  N_13
REMARK    6  A    between atoms: C_14  and  C_28
REMARK    7  A    between atoms: C_20  and  C_23
REMARK    8  A    between atoms: C_28  and  N_59
REMARK                            x       y       z     vdW  Elec       q    Type
REMARK                         _______ _______ _______ _____ _____    ______ ____
ROOT
ATOM      1  N   UNL     1       4.602   0.550   1.423  0.00  0.00    -0.289 N 
ATOM      2  C   UNL     1       4.770   0.778   2.751  0.00  0.00    +0.097 A 
ATOM      3  N   UNL     1       5.522  -0.002   3.480  0.00  0.00    -0.228 NA
ATOM      4  C   UNL     1       6.157  -1.041   2.941  0.00  0.00    +0.116 A 
ATOM      5  C   UNL     1       6.048  -1.351   1.576  0.00  0.00    +0.080 A 
ATOM      6  C   UNL     1       5.212  -0.479   0.807  0.00  0.00    +0.263 A 
ATOM      7  O   UNL     1       5.055  -0.667  -0.387  0.00  0.00    -0.267 OA
ATOM      8  C   UNL     1       6.806  -2.520   1.144  0.00  0.00    +0.010 A 
ATOM      9  C   UNL     1       7.536  -3.198   2.065  0.00  0.00    +0.057 A 
ATOM     10  S   UNL     1       7.242  -2.295   3.573  0.00  0.00    -0.076 S 
ENDROOT
BRANCH   8  11
ATOM     11  C   UNL     1       6.779  -2.957  -0.267  0.00  0.00    +0.021 A 
ATOM     12  C   UNL     1       7.826  -3.248  -1.100  0.00  0.00    +0.016 A 
ATOM     13  C   UNL     1       7.554  -3.643  -2.393  0.00  0.00    +0.008 A 
ATOM     14  C   UNL     1       6.263  -3.721  -2.802  0.00  0.00    +0.046 A 
ATOM     15  S   UNL     1       5.374  -3.233  -1.333  0.00  0.00    -0.097 S 
ENDBRANCH   8  11
BRANCH   1  16
ATOM     16  C   UNL     1       3.745   1.447   0.644  0.00  0.00    +0.222 C 
BRANCH  16  18
ATOM     17  N   UNL     1       1.362   1.593  -0.002  0.00  0.00    -0.304 N 
ATOM     18  C   UNL     1       2.331   0.926   0.654  0.00  0.00    +0.233 C 
ATOM     19  O   UNL     1       2.066  -0.095   1.254  0.00  0.00    -0.274 OA
ATOM     20  H   UNL     1       1.574   2.409  -0.482  0.00  0.00    +0.149 HD
BRANCH  17  22
ATOM     21  C   UNL     1      -0.729   1.579   1.267  0.00  0.00    +0.036 C 
ATOM     22  C   UNL     1      -0.013   1.086   0.008  0.00  0.00    +0.136 C 
BRANCH  22  23
ATOM     23  C   UNL     1      -0.742   1.585  -1.213  0.00  0.00    +0.125 A 
ATOM     24  C   UNL     1      -1.600   0.871  -1.963  0.00  0.00    +0.046 A 
ATOM     25  C   UNL     1      -2.048   1.725  -2.998  0.00  0.00    +0.041 A 
ATOM     26  C   UNL     1      -1.430   2.907  -2.822  0.00  0.00    +0.195 A 
ATOM     27  O   UNL     1      -0.640   2.816  -1.740  0.00  0.00    -0.466 OA
ENDBRANCH  22  23
ENDBRANCH  17  22
ENDBRANCH  16  18
ENDBRANCH   1  16
BRANCH   2  28
ATOM     28  C   UNL     1       4.073   1.948   3.396  0.00  0.00    -0.003 C 
BRANCH  28  34
ATOM     29  C   UNL     1       3.858   0.819   5.527  0.00  0.00    -0.078 C 
ATOM     30  C   UNL     1       4.344   0.818   6.978  0.00  0.00    -0.019 C 
ATOM     31  C   UNL     1       3.887   2.107   7.665  0.00  0.00    -0.004 C 
ATOM     32  C   UNL     1       4.429   3.310   6.888  0.00  0.00    -0.019 C 
ATOM     33  C   UNL     1       3.941   3.239   5.440  0.00  0.00    -0.078 C 
ATOM     34  N   UNL     1       4.435   1.987   4.828  0.00  0.00    +0.384 N 
ATOM     35  H   UNL     1       5.457   1.955   4.914  0.00  0.00    -0.081 HD
ENDBRANCH  28  34
ENDBRANCH   2  28
TORSDOF 7
