REMARK  Name = ZINC33127850
REMARK  7 active torsions:
REMARK  status: ('A' for Active; 'I' for Inactive)
REMARK    1  A    between atoms: C_1  and  C_2
REMARK    2  A    between atoms: C_2  and  O_3
REMARK    3  A    between atoms: O_3  and  C_4
REMARK    4  A    between atoms: C_9  and  N_10
REMARK    5  A    between atoms: N_13  and  C_14
REMARK    6  A    between atoms: C_14  and  C_16
REMARK    7  A    between atoms: C_14  and  C_22
REMARK                            x       y       z     vdW  Elec       q    Type
REMARK                         _______ _______ _______ _____ _____    ______ ____
ROOT
ATOM      1  C   UNL     1      -0.493   4.289   0.425  0.00  0.00    +0.191 C 
ENDROOT
BRANCH   1   2
ATOM      2  C   UNL     1      -1.477   3.153   0.312  0.00  0.00    +0.245 C 
ATOM      3  O   UNL     1      -2.623   3.304   0.681  0.00  0.00    -0.273 OA
ATOM      4  N   UNL     1      -1.085   1.970  -0.200  0.00  0.00    -0.269 N 
ATOM      5  C   UNL     1       0.238   1.698  -0.770  0.00  0.00    +0.118 C 
ATOM      6  C   UNL     1       0.193   0.226  -1.210  0.00  0.00    +0.056 C 
ATOM      7  C   UNL     1      -1.197  -0.240  -0.840  0.00  0.00    -0.024 A 
ATOM      8  C   UNL     1      -1.877   0.819  -0.258  0.00  0.00    +0.040 A 
ATOM      9  C   UNL     1      -3.192   0.627   0.169  0.00  0.00    +0.024 A 
ATOM     10  C   UNL     1      -3.801  -0.600   0.014  0.00  0.00    +0.002 A 
ATOM     11  C   UNL     1      -3.115  -1.650  -0.567  0.00  0.00    +0.000 A 
ATOM     12  C   UNL     1      -1.812  -1.467  -0.994  0.00  0.00    +0.005 A 
ENDBRANCH   1   2
BRANCH   1  16
ATOM     13  N   UNL     1      -1.251   7.856  -0.039  0.00  0.00    -0.266 N 
ATOM     14  C   UNL     1      -0.588   6.683  -0.015  0.00  0.00    +0.305 C 
ATOM     15  O   UNL     1       0.576   6.635  -0.364  0.00  0.00    -0.252 OA
ATOM     16  N   UNL     1      -1.214   5.564   0.398  0.00  0.00    -0.284 N 
ATOM     17  H   UNL     1      -2.327   7.885   0.188  0.00  0.00    +0.156 HD
ATOM     18  H   UNL     1      -2.267   5.607   0.715  0.00  0.00    +0.151 HD
BRANCH  13  24
ATOM     19  C   UNL     1      -1.280  10.172  -0.748  0.00  0.00    +0.142 A 
ATOM     20  C   UNL     1      -0.602  11.339  -1.058  0.00  0.00    +0.047 A 
ATOM     21  C   UNL     1       0.778  11.379  -0.978  0.00  0.00    +0.004 A 
ATOM     22  C   UNL     1       1.484  10.256  -0.588  0.00  0.00    +0.002 A 
ATOM     23  C   UNL     1       0.814   9.089  -0.271  0.00  0.00    +0.027 A 
ATOM     24  C   UNL     1      -0.569   9.040  -0.355  0.00  0.00    +0.077 A 
BRANCH  19  25
ATOM     25  O   UNL     1      -2.638  10.131  -0.826  0.00  0.00    -0.490 OA
BRANCH  25  27
ATOM     26  C   UNL     1      -4.811  11.091  -1.264  0.00  0.00    +0.048 C 
ATOM     27  C   UNL     1      -3.300  11.329  -1.236  0.00  0.00    +0.226 C 
ENDBRANCH  25  27
ENDBRANCH  19  25
ENDBRANCH  13  24
ENDBRANCH   1  16
BRANCH   1  28
ATOM     28  C   UNL     1       0.266   4.168   1.721  0.00  0.00    -0.018 A 
ATOM     29  C   UNL     1      -0.327   4.556   2.908  0.00  0.00    +0.006 A 
ATOM     30  C   UNL     1       0.368   4.442   4.098  0.00  0.00    +0.000 A 
ATOM     31  C   UNL     1       1.659   3.948   4.099  0.00  0.00    +0.000 A 
ATOM     32  C   UNL     1       2.254   3.564   2.911  0.00  0.00    +0.000 A 
ATOM     33  C   UNL     1       1.557   3.675   1.722  0.00  0.00    +0.006 A 
ENDBRANCH   1  28
TORSDOF 6
