REMARK  Name = ZINC23057732
REMARK  13 active torsions:
REMARK  status: ('A' for Active; 'I' for Inactive)
REMARK    1  A    between atoms: C_1  and  C_2
REMARK    2  A    between atoms: C_2  and  C_3
REMARK    3  A    between atoms: C_2  and  C_4
REMARK    4  A    between atoms: C_4  and  N_5
REMARK    5  A    between atoms: C_6  and  N_34
REMARK    6  A    between atoms: C_7  and  C_14
REMARK    7  A    between atoms: N_10  and  C_13
REMARK    8  A    between atoms: C_14  and  C_16
REMARK    9  A    between atoms: C_16  and  N_17
REMARK   10  A    between atoms: C_23  and  C_25
REMARK   11  A    between atoms: C_25  and  C_26
REMARK   12  A    between atoms: C_25  and  C_27
REMARK   13  A    between atoms: C_25  and  C_28
REMARK                            x       y       z     vdW  Elec       q    Type
REMARK                         _______ _______ _______ _____ _____    ______ ____
ROOT
ATOM      1  C   UNL     1      -2.077  -4.872  -3.076  0.00  0.00    +0.003 C 
ENDROOT
BRANCH   1   2
ATOM      2  N   UNL     1      -3.253  -5.491  -3.703  0.00  0.00    +0.387 N 
ATOM      3  C   UNL     1      -4.445  -5.329  -2.860  0.00  0.00    -0.059 C 
ATOM      4  C   UNL     1      -5.678  -5.823  -3.623  0.00  0.00    +0.089 C 
ATOM      5  N   UNL     1      -5.423  -7.197  -4.083  0.00  0.00    -0.304 N 
ATOM      6  C   UNL     1      -4.178  -7.465  -4.818  0.00  0.00    +0.089 C 
ATOM      7  C   UNL     1      -3.004  -6.906  -4.007  0.00  0.00    -0.059 C 
ATOM      8  C   UNL     1      -6.308  -8.184  -3.838  0.00  0.00    +0.225 C 
ATOM      9  O   UNL     1      -6.037  -9.329  -4.133  0.00  0.00    -0.275 OA
ATOM     10  H   UNL     1      -3.444  -4.972  -4.654  0.00  0.00    -0.081 HD
BRANCH   8  11
ATOM     11  C   UNL     1      -7.634  -7.865  -3.196  0.00  0.00    +0.066 C 
ATOM     12  C   UNL     1      -8.361  -6.806  -4.028  0.00  0.00    +0.025 C 
ATOM     13  C   UNL     1      -8.486  -9.134  -3.129  0.00  0.00    +0.025 C 
BRANCH  11  14
ATOM     14  C   UNL     1      -7.404  -7.339  -1.803  0.00  0.00    -0.033 A 
ATOM     15  C   UNL     1      -6.139  -7.379  -1.249  0.00  0.00    +0.004 A 
ATOM     16  C   UNL     1      -5.927  -6.893   0.028  0.00  0.00    +0.000 A 
ATOM     17  C   UNL     1      -6.984  -6.375   0.754  0.00  0.00    +0.000 A 
ATOM     18  C   UNL     1      -8.251  -6.340   0.202  0.00  0.00    +0.000 A 
ATOM     19  C   UNL     1      -8.461  -6.822  -1.077  0.00  0.00    +0.004 A 
ENDBRANCH  11  14
ENDBRANCH   8  11
ENDBRANCH   1   2
BRANCH   1  20
ATOM     20  C   UNL     1      -2.274  -3.380  -3.003  0.00  0.00    +0.155 C 
ATOM     21  O   UNL     1      -3.295  -2.880  -3.431  0.00  0.00    -0.294 OA
BRANCH  20  24
ATOM     22  N   UNL     1      -0.480  -0.436  -1.697  0.00  0.00    -0.281 N 
ATOM     23  C   UNL     1      -1.480  -1.186  -2.248  0.00  0.00    +0.116 A 
ATOM     24  C   UNL     1      -1.272  -2.563  -2.437  0.00  0.00    +0.118 A 
ATOM     25  C   UNL     1       0.021  -3.125  -2.027  0.00  0.00    +0.269 A 
ATOM     26  O   UNL     1       0.257  -4.311  -2.167  0.00  0.00    -0.267 OA
ATOM     27  N   UNL     1       0.944  -2.299  -1.492  0.00  0.00    -0.263 N 
ATOM     28  C   UNL     1       0.690  -0.988  -1.340  0.00  0.00    +0.333 A 
ATOM     29  O   UNL     1       1.550  -0.278  -0.858  0.00  0.00    -0.246 OA
ATOM     30  C   UNL     1       2.241  -2.837  -1.075  0.00  0.00    +0.157 C 
BRANCH  23  31
ATOM     31  N   UNL     1      -2.658  -0.608  -2.609  0.00  0.00    -0.344 N 
ATOM     32  H   UNL     1      -3.457  -1.220  -3.052  0.00  0.00    +0.144 HD
ATOM     33  H   UNL     1      -2.811   0.470  -2.457  0.00  0.00    +0.144 HD
ENDBRANCH  23  31
BRANCH  22  34
ATOM     34  C   UNL     1      -0.686   1.000  -1.497  0.00  0.00    +0.131 C 
BRANCH  34  36
ATOM     35  C   UNL     1      -1.620   2.725   0.051  0.00  0.00    +0.009 C 
ATOM     36  C   UNL     1      -1.289   1.240  -0.111  0.00  0.00    +0.003 C 
ATOM     37  C   UNL     1      -0.282   0.823   0.963  0.00  0.00    +0.009 C 
ENDBRANCH  34  36
ENDBRANCH  22  34
ENDBRANCH  20  24
ENDBRANCH   1  20
TORSDOF 8
