REMARK  Name = ZINC15822868
REMARK  7 active torsions:
REMARK  status: ('A' for Active; 'I' for Inactive)
REMARK    1  A    between atoms: C_1  and  N_2
REMARK    2  A    between atoms: N_2  and  C_3
REMARK    3  A    between atoms: N_2  and  S_8
REMARK    4  A    between atoms: S_8  and  C_11
REMARK    5  A    between atoms: C_14  and  C_17
REMARK    6  A    between atoms: N_19  and  C_20
REMARK    7  A    between atoms: C_21  and  C_28
REMARK                            x       y       z     vdW  Elec       q    Type
REMARK                         _______ _______ _______ _____ _____    ______ ____
ROOT
ATOM      1  C   UNL     1       1.628   4.444   0.010  0.00  0.00    +0.249 C 
ATOM      2  O   UNL     1       0.413   4.407   0.022  0.00  0.00    -0.270 OA
ATOM      3  N   UNL     1       2.337   3.298  -0.003  0.00  0.00    -0.275 N 
ATOM      4  H   UNL     1       3.307   3.328  -0.012  0.00  0.00    +0.156 HD
ENDROOT
BRANCH   3   5
ATOM      5  C   UNL     1       1.681   2.078  -0.003  0.00  0.00    +0.085 A 
ATOM      6  C   UNL     1       2.230   0.806  -0.015  0.00  0.00    +0.068 A 
ATOM      7  C   UNL     1       1.307  -0.329  -0.013  0.00  0.00    -0.023 A 
ATOM      8  C   UNL     1       0.002  -0.004   0.002  0.00  0.00    -0.004 A 
ATOM      9  S   UNL     1      -0.022   1.772   0.012  0.00  0.00    -0.077 S 
ATOM     10  C   UNL     1      -0.882  -1.222   0.007  0.00  0.00    +0.043 C 
ATOM     11  C   UNL     1       0.051  -2.378   0.429  0.00  0.00    +0.010 C 
ATOM     12  C   UNL     1       1.427  -1.853  -0.025  0.00  0.00    +0.037 C 
BRANCH   6  13
ATOM     13  C   UNL     1       3.682   0.605  -0.030  0.00  0.00    +0.244 C 
ATOM     14  O   UNL     1       4.275   0.528  -1.090  0.00  0.00    -0.270 OA
ATOM     15  N   UNL     1       4.360   0.506   1.131  0.00  0.00    -0.325 N 
ATOM     16  H   UNL     1       3.888   0.568   1.975  0.00  0.00    +0.145 HD
ATOM     17  H   UNL     1       5.321   0.373   1.121  0.00  0.00    +0.145 HD
ENDBRANCH   6  13
ENDBRANCH   3   5
BRANCH   1  21
ATOM     18  C   UNL     1       3.638   8.185   0.009  0.00  0.00    +0.106 A 
ATOM     19  C   UNL     1       2.255   8.147   0.023  0.00  0.00    +0.029 A 
ATOM     20  C   UNL     1       1.596   6.935   0.024  0.00  0.00    +0.015 A 
ATOM     21  C   UNL     1       2.327   5.746   0.010  0.00  0.00    +0.037 A 
ATOM     22  C   UNL     1       3.723   5.792   0.002  0.00  0.00    +0.015 A 
ATOM     23  C   UNL     1       4.369   7.011  -0.004  0.00  0.00    +0.029 A 
BRANCH  18  24
ATOM     24  S   UNL     1       4.472   9.738   0.009  0.00  0.00    +0.061 S 
ATOM     25  O   UNL     1       5.756   9.509  -0.556  0.00  0.00    -0.153 OA
ATOM     26  O   UNL     1       3.562  10.688  -0.528  0.00  0.00    -0.153 OA
BRANCH  24  28
ATOM     27  C   UNL     1       3.712  10.949   2.304  0.00  0.00    +0.132 C 
ATOM     28  N   UNL     1       4.720  10.161   1.590  0.00  0.00    -0.177 NA
BRANCH  28  29
ATOM     29  C   UNL     1       5.947   9.748   2.276  0.00  0.00    +0.080 C 
ATOM     30  C   UNL     1       5.599   8.932   3.538  0.00  0.00    +0.020 C 
ATOM     31  C   UNL     1       6.663   9.365   4.576  0.00  0.00    +0.002 C 
ATOM     32  C   UNL     1       6.824  10.879   4.289  0.00  0.00    +0.002 C 
ATOM     33  C   UNL     1       6.726  10.986   2.753  0.00  0.00    +0.020 C 
ENDBRANCH  28  29
ENDBRANCH  24  28
ENDBRANCH  18  24
ENDBRANCH   1  21
TORSDOF 6
