REMARK  Name = ZINC43548591
REMARK  11 active torsions:
REMARK  status: ('A' for Active; 'I' for Inactive)
REMARK    1  A    between atoms: C_1  and  C_2
REMARK    2  A    between atoms: C_2  and  C_3
REMARK    3  A    between atoms: C_3  and  C_4
REMARK    4  A    between atoms: C_4  and  N_5
REMARK    5  A    between atoms: C_12  and  C_34
REMARK    6  A    between atoms: C_15  and  C_25
REMARK    7  A    between atoms: C_17  and  O_24
REMARK    8  A    between atoms: C_21  and  C_23
REMARK    9  A    between atoms: C_25  and  C_27
REMARK   10  A    between atoms: C_25  and  C_28
REMARK   11  A    between atoms: N_30  and  C_31
REMARK                            x       y       z     vdW  Elec       q    Type
REMARK                         _______ _______ _______ _____ _____    ______ ____
ROOT
ATOM      1  N   UNL     1       1.445  -2.448   3.390  0.00  0.00    -0.325 N 
ATOM      2  C   UNL     1       1.579  -3.826   3.341  0.00  0.00    +0.136 A 
ATOM      3  N   UNL     1       2.172  -4.621   4.206  0.00  0.00    -0.340 N 
ATOM      4  C   UNL     1       2.225  -5.940   4.028  0.00  0.00    +0.031 A 
ATOM      5  C   UNL     1       1.623  -6.386   2.898  0.00  0.00    +0.013 A 
ATOM      6  S   UNL     1       1.016  -4.893   2.164  0.00  0.00    -0.059 S 
ATOM      7  C   UNL     1       1.514  -7.795   2.425  0.00  0.00    +0.051 C 
ATOM      8  C   UNL     1       2.486  -8.662   3.229  0.00  0.00    -0.022 C 
ATOM      9  C   UNL     1       3.924  -8.422   2.771  0.00  0.00    +0.008 C 
ATOM     10  C   UNL     1       4.856  -9.358   3.546  0.00  0.00    +0.007 C 
ATOM     11  C   UNL     1       4.722  -9.098   5.047  0.00  0.00    +0.029 C 
ATOM     12  C   UNL     1       3.273  -9.313   5.488  0.00  0.00    +0.123 C 
ATOM     13  C   UNL     1       2.374  -8.328   4.721  0.00  0.00    +0.033 C 
ATOM     14  C   UNL     1       2.898  -6.911   4.984  0.00  0.00    +0.039 C 
ATOM     15  C   UNL     1       2.582  -6.510   6.426  0.00  0.00    +0.014 C 
ATOM     16  C   UNL     1       2.144 -10.137   3.015  0.00  0.00    +0.012 C 
ATOM     17  H   UNL     1       1.821  -1.949   4.132  0.00  0.00    +0.148 HD
ATOM     18  H   UNL     1       2.583  -4.235   4.995  0.00  0.00    +0.167 HD
ENDROOT
BRANCH  12  19
ATOM     19  O   UNL     1       3.159  -9.077   6.893  0.00  0.00    -0.391 OA
ATOM     20  H   UNL     1       3.758  -9.612   7.432  0.00  0.00    +0.210 HD
ENDBRANCH  12  19
BRANCH  11  21
ATOM     21  C   UNL     1       5.632 -10.060   5.812  0.00  0.00    +0.077 C 
ATOM     22  C   UNL     1       7.077  -9.878   5.343  0.00  0.00    +0.017 C 
BRANCH  21  23
ATOM     23  C   UNL     1       5.194 -11.479   5.552  0.00  0.00    +0.216 C 
ATOM     24  O   UNL     1       4.320 -11.705   4.743  0.00  0.00    -0.276 OA
ATOM     25  N   UNL     1       5.775 -12.496   6.219  0.00  0.00    -0.312 N 
ATOM     26  H   UNL     1       6.475 -12.315   6.866  0.00  0.00    +0.149 HD
BRANCH  25  27
ATOM     27  C   UNL     1       5.350 -13.875   5.967  0.00  0.00    +0.073 C 
ATOM     28  C   UNL     1       5.154 -14.787   7.179  0.00  0.00    +0.024 C 
ATOM     29  C   UNL     1       6.357 -14.989   6.256  0.00  0.00    +0.024 C 
ENDBRANCH  25  27
ENDBRANCH  21  23
ENDBRANCH  11  21
BRANCH   1  30
ATOM     30  C   UNL     1       0.736  -1.743   2.319  0.00  0.00    +0.103 C 
BRANCH  30  31
ATOM     31  C   UNL     1       0.731  -0.241   2.613  0.00  0.00    +0.018 C 
BRANCH  31  33
ATOM     32  C   UNL     1      -0.015   1.996   1.789  0.00  0.00    +0.004 C 
ATOM     33  C   UNL     1      -0.010   0.495   1.495  0.00  0.00    -0.002 C 
ENDBRANCH  31  33
ENDBRANCH  30  31
ENDBRANCH   1  30
TORSDOF 7
