REMARK  Name = ZINC36205237
REMARK  14 active torsions:
REMARK  status: ('A' for Active; 'I' for Inactive)
REMARK    1  A    between atoms: C_1  and  C_2
REMARK    2  A    between atoms: C_5  and  C_9
REMARK    3  A    between atoms: C_7  and  C_8
REMARK    4  A    between atoms: C_18  and  C_20
REMARK    5  A    between atoms: C_20  and  N_21
REMARK    6  A    between atoms: N_21  and  C_22
REMARK    7  A    between atoms: N_21  and  C_28
REMARK    8  A    between atoms: C_22  and  C_23
REMARK    9  A    between atoms: C_28  and  C_29
REMARK   10  A    between atoms: C_29  and  C_31
REMARK   11  A    between atoms: C_29  and  O_40
REMARK   12  A    between atoms: C_31  and  O_32
REMARK   13  A    between atoms: O_32  and  C_33
REMARK   14  A    between atoms: C_33  and  C_34
REMARK                            x       y       z     vdW  Elec       q    Type
REMARK                         _______ _______ _______ _____ _____    ______ ____
ROOT
ATOM      1  N   UNL     1      -2.948  -9.055  -2.540  0.00  0.00    +0.391 N 
ATOM      2  H   UNL     1      -3.026  -9.233  -1.550  0.00  0.00    -0.080 HD
ENDROOT
BRANCH   1   3
ATOM      3  C   UNL     1      -3.376  -7.679  -2.825  0.00  0.00    -0.003 C 
BRANCH   3  13
ATOM      4  C   UNL     1      -8.537  -6.991  -0.506  0.00  0.00    +0.004 A 
ATOM      5  C   UNL     1      -8.929  -8.069   0.215  0.00  0.00    +0.056 A 
ATOM      6  S   UNL     1      -7.554  -9.193   0.059  0.00  0.00    -0.076 S 
ATOM      7  C   UNL     1      -6.495  -8.199  -0.961  0.00  0.00    +0.116 A 
ATOM      8  C   UNL     1      -7.235  -7.022  -1.161  0.00  0.00    +0.080 A 
ATOM      9  C   UNL     1      -6.604  -6.025  -1.972  0.00  0.00    +0.260 A 
ATOM     10  O   UNL     1      -7.166  -4.966  -2.198  0.00  0.00    -0.267 OA
ATOM     11  N   UNL     1      -5.383  -6.273  -2.479  0.00  0.00    -0.312 N 
ATOM     12  H   UNL     1      -4.951  -5.600  -3.029  0.00  0.00    +0.170 HD
ATOM     13  C   UNL     1      -4.743  -7.445  -2.236  0.00  0.00    +0.094 A 
ATOM     14  N   UNL     1      -5.288  -8.370  -1.492  0.00  0.00    -0.229 NA
BRANCH   4  19
ATOM     15  C   UNL     1     -11.956  -2.384  -0.994  0.00  0.00    +0.044 C 
ATOM     16  C   UNL     1     -11.061  -3.590  -0.866  0.00  0.00    -0.048 A 
ATOM     17  C   UNL     1      -9.737  -3.429  -0.499  0.00  0.00    +0.004 A 
ATOM     18  C   UNL     1      -8.913  -4.529  -0.380  0.00  0.00    +0.009 A 
ATOM     19  C   UNL     1      -9.417  -5.805  -0.631  0.00  0.00    -0.016 A 
ATOM     20  C   UNL     1     -10.752  -5.961  -1.000  0.00  0.00    +0.012 A 
ATOM     21  C   UNL     1     -11.569  -4.853  -1.110  0.00  0.00    -0.047 A 
ATOM     22  C   UNL     1     -13.014  -5.020  -1.503  0.00  0.00    +0.044 C 
ENDBRANCH   4  19
ENDBRANCH   3  13
ENDBRANCH   1   3
BRANCH   1  23
ATOM     23  C   UNL     1      -1.552  -9.231  -2.961  0.00  0.00    -0.002 C 
BRANCH  23  24
ATOM     24  C   UNL     1      -0.659  -8.355  -2.120  0.00  0.00    +0.089 A 
ATOM     25  C   UNL     1      -0.161  -8.671  -0.911  0.00  0.00    +0.042 A 
ATOM     26  C   UNL     1       0.618  -7.569  -0.488  0.00  0.00    +0.041 A 
ATOM     27  C   UNL     1       0.549  -6.646  -1.464  0.00  0.00    +0.195 A 
ATOM     28  O   UNL     1      -0.221  -7.130  -2.452  0.00  0.00    -0.470 OA
ENDBRANCH  23  24
ENDBRANCH   1  23
BRANCH   1  29
ATOM     29  C   UNL     1      -3.804  -9.996  -3.275  0.00  0.00    -0.044 C 
BRANCH  29  30
ATOM     30  C   UNL     1      -3.440 -11.429  -2.882  0.00  0.00    +0.124 C 
BRANCH  30  31
ATOM     31  O   UNL     1      -3.747 -11.637  -1.502  0.00  0.00    -0.391 OA
ATOM     32  H   UNL     1      -4.681 -11.510  -1.283  0.00  0.00    +0.210 HD
ENDBRANCH  30  31
BRANCH  30  33
ATOM     33  C   UNL     1      -4.243 -12.411  -3.737  0.00  0.00    +0.189 C 
BRANCH  33  34
ATOM     34  O   UNL     1      -3.820 -13.746  -3.453  0.00  0.00    -0.373 OA
BRANCH  34  35
ATOM     35  C   UNL     1      -4.511 -14.747  -4.204  0.00  0.00    +0.195 C 
BRANCH  35  36
ATOM     36  C   UNL     1      -3.987 -16.109  -3.826  0.00  0.00    -0.022 A 
ATOM     37  C   UNL     1      -2.918 -16.654  -4.513  0.00  0.00    +0.006 A 
ATOM     38  C   UNL     1      -2.438 -17.903  -4.166  0.00  0.00    +0.000 A 
ATOM     39  C   UNL     1      -3.027 -18.607  -3.133  0.00  0.00    +0.000 A 
ATOM     40  C   UNL     1      -4.095 -18.062  -2.445  0.00  0.00    +0.000 A 
ATOM     41  C   UNL     1      -4.573 -16.811  -2.789  0.00  0.00    +0.006 A 
ENDBRANCH  35  36
ENDBRANCH  34  35
ENDBRANCH  33  34
ENDBRANCH  30  33
ENDBRANCH  29  30
ENDBRANCH   1  29
TORSDOF 12
