REMARK  Name = ZINC01874696
REMARK  6 active torsions:
REMARK  status: ('A' for Active; 'I' for Inactive)
REMARK    1  A    between atoms: C_5  and  C_7
REMARK    2  A    between atoms: C_7  and  N_8
REMARK    3  A    between atoms: C_9  and  C_11
REMARK    4  A    between atoms: N_22  and  C_25
REMARK    5  A    between atoms: C_23  and  N_24
REMARK    6  A    between atoms: C_29  and  N_31
REMARK                            x       y       z     vdW  Elec       q    Type
REMARK                         _______ _______ _______ _____ _____    ______ ____
ROOT
ATOM      1  C   UNL     1       0.583  -2.313   2.944  0.00  0.00    +0.104 A 
ATOM      2  C   UNL     1      -0.420  -2.620   3.976  0.00  0.00    +0.123 A 
ATOM      3  C   UNL     1       0.346  -3.076   5.139  0.00  0.00    +0.166 A 
ATOM      4  N   UNL     1      -0.291  -3.431   6.235  0.00  0.00    -0.225 NA
ATOM      5  C   UNL     1      -1.628  -3.377   6.276  0.00  0.00    +0.092 A 
ATOM      6  C   UNL     1      -2.317  -3.755   7.444  0.00  0.00    +0.030 A 
ATOM      7  C   UNL     1      -3.676  -3.698   7.476  0.00  0.00    +0.002 A 
ATOM      8  C   UNL     1      -4.403  -3.269   6.367  0.00  0.00    +0.002 A 
ATOM      9  C   UNL     1      -3.772  -2.896   5.220  0.00  0.00    +0.030 A 
ATOM     10  C   UNL     1      -2.367  -2.942   5.148  0.00  0.00    +0.090 A 
ATOM     11  N   UNL     1      -1.736  -2.578   4.025  0.00  0.00    -0.241 NA
ATOM     12  N   UNL     1       1.681  -3.021   4.790  0.00  0.00    -0.280 N 
ATOM     13  C   UNL     1       1.826  -2.576   3.510  0.00  0.00    +0.117 A 
ENDROOT
BRANCH  12  14
ATOM     14  C   UNL     1       2.742  -3.373   5.636  0.00  0.00    +0.052 A 
ATOM     15  C   UNL     1       2.989  -2.635   6.785  0.00  0.00    +0.028 A 
ATOM     16  C   UNL     1       4.034  -2.984   7.618  0.00  0.00    +0.024 A 
ATOM     17  C   UNL     1       4.836  -4.068   7.306  0.00  0.00    +0.071 A 
ATOM     18  C   UNL     1       4.592  -4.805   6.161  0.00  0.00    +0.146 A 
ATOM     19  C   UNL     1       3.544  -4.464   5.328  0.00  0.00    +0.060 A 
ATOM     20 CL   UNL     1       6.149  -4.504   8.354  0.00  0.00    -0.081 Cl
BRANCH  18  21
ATOM     21  N   UNL     1       5.451  -5.965   5.830  0.00  0.00    +0.058 N 
ATOM     22  O   UNL     1       5.237  -6.614   4.822  0.00  0.00    -0.126 OA
ATOM     23  O   UNL     1       6.372  -6.269   6.567  0.00  0.00    -0.126 OA
ENDBRANCH  18  21
ENDBRANCH  12  14
BRANCH   1  25
ATOM     24  N   UNL     1       0.262  -0.496   1.357  0.00  0.00    -0.307 N 
ATOM     25  C   UNL     1       0.325  -1.822   1.592  0.00  0.00    +0.250 C 
ATOM     26  O   UNL     1       0.166  -2.611   0.678  0.00  0.00    -0.270 OA
ATOM     27  H   UNL     1       0.388   0.132   2.086  0.00  0.00    +0.149 HD
BRANCH  24  28
ATOM     28  C   UNL     1       0.002  -0.004   0.002  0.00  0.00    +0.141 C 
BRANCH  28  33
ATOM     29  C   UNL     1      -1.244   3.560   0.032  0.00  0.00    +0.000 A 
ATOM     30  C   UNL     1      -0.056   4.268   0.025  0.00  0.00    +0.001 A 
ATOM     31  C   UNL     1       1.150   3.594   0.010  0.00  0.00    +0.020 A 
ATOM     32  C   UNL     1       1.170   2.211   0.003  0.00  0.00    +0.046 A 
ATOM     33  C   UNL     1      -0.018   1.503   0.010  0.00  0.00    -0.012 A 
ATOM     34  C   UNL     1      -1.225   2.178   0.020  0.00  0.00    +0.006 A 
ATOM     35 CL   UNL     1       2.685   1.364  -0.016  0.00  0.00    -0.083 Cl
ENDBRANCH  28  33
ENDBRANCH  24  28
ENDBRANCH   1  25
BRANCH  13  36
ATOM     36  N   UNL     1       3.027  -2.412   2.870  0.00  0.00    -0.343 N 
ATOM     37  H   UNL     1       3.049  -2.090   1.955  0.00  0.00    +0.144 HD
ATOM     38  H   UNL     1       3.855  -2.618   3.332  0.00  0.00    +0.144 HD
ENDBRANCH  13  36
TORSDOF 6
