REMARK  Name = ZINC64655799
REMARK  7 active torsions:
REMARK  status: ('A' for Active; 'I' for Inactive)
REMARK    1  A    between atoms: C_1  and  C_2
REMARK    2  A    between atoms: C_2  and  C_3
REMARK    3  A    between atoms: N_5  and  C_6
REMARK    4  A    between atoms: C_10  and  C_12
REMARK    5  A    between atoms: C_14  and  C_17
REMARK    6  A    between atoms: C_23  and  C_25
REMARK    7  A    between atoms: C_25  and  C_26
REMARK                            x       y       z     vdW  Elec       q    Type
REMARK                         _______ _______ _______ _____ _____    ______ ____
ROOT
ATOM      1  C   UNL     1       3.609  -8.187   6.418  0.00  0.00    +0.081 C 
ATOM      2  C   UNL     1       4.745  -9.015   5.814  0.00  0.00    +0.032 C 
ATOM      3  C   UNL     1       5.328  -9.937   6.891  0.00  0.00    +0.108 C 
ATOM      4  N   UNL     1       4.239 -10.737   7.468  0.00  0.00    -0.301 N 
ATOM      5  C   UNL     1       3.056 -10.043   7.995  0.00  0.00    +0.108 C 
ATOM      6  C   UNL     1       2.499  -9.120   6.907  0.00  0.00    +0.032 C 
ATOM      7  C   UNL     1       4.323 -12.081   7.512  0.00  0.00    +0.220 C 
ATOM      8  O   UNL     1       5.305 -12.642   7.073  0.00  0.00    -0.275 OA
ENDROOT
BRANCH   1  11
ATOM      9  C   UNL     1       2.470  -5.439   4.339  0.00  0.00    +0.202 A 
ATOM     10  N   UNL     1       3.032  -5.954   5.447  0.00  0.00    -0.191 NA
ATOM     11  C   UNL     1       3.056  -7.254   5.372  0.00  0.00    +0.231 A 
ATOM     12  O   UNL     1       2.507  -7.623   4.207  0.00  0.00    -0.337 OA
ATOM     13  N   UNL     1       2.124  -6.425   3.548  0.00  0.00    -0.056 NA
BRANCH   9  18
ATOM     14  C   UNL     1       1.480  -2.240   2.620  0.00  0.00    +0.034 A 
ATOM     15  C   UNL     1       1.895  -1.295   3.551  0.00  0.00    +0.023 A 
ATOM     16  C   UNL     1       2.493  -1.698   4.730  0.00  0.00    +0.002 A 
ATOM     17  C   UNL     1       2.681  -3.041   4.989  0.00  0.00    +0.012 A 
ATOM     18  C   UNL     1       2.268  -3.995   4.061  0.00  0.00    +0.024 A 
ATOM     19  C   UNL     1       1.660  -3.590   2.876  0.00  0.00    +0.035 A 
BRANCH  14  22
ATOM     20  C   UNL     1      -0.114  -2.566   0.884  0.00  0.00    +0.217 C 
ATOM     21  O   UNL     1      -0.421  -3.628   1.381  0.00  0.00    -0.275 OA
ATOM     22  N   UNL     1       0.874  -1.828   1.428  0.00  0.00    -0.285 N 
ATOM     23  H   UNL     1       1.165  -1.011   0.993  0.00  0.00    +0.155 HD
BRANCH  20  25
ATOM     24  C   UNL     1      -1.903  -3.088  -0.751  0.00  0.00    +0.013 C 
ATOM     25  C   UNL     1      -0.837  -2.070  -0.342  0.00  0.00    +0.093 C 
ENDBRANCH  20  25
ENDBRANCH  14  22
ENDBRANCH   9  18
ENDBRANCH   1  11
BRANCH   7  26
ATOM     26  C   UNL     1       3.198 -12.888   8.107  0.00  0.00    +0.129 C 
BRANCH  26  27
ATOM     27  C   UNL     1       3.538 -14.354   8.035  0.00  0.00    -0.033 C 
ATOM     28  C   UNL     1       4.103 -15.106   9.007  0.00  0.00    -0.001 A 
ATOM     29  C   UNL     1       4.553 -14.796  10.370  0.00  0.00    +0.010 A 
ATOM     30  C   UNL     1       5.092 -15.782  11.123  0.00  0.00    +0.001 A 
ATOM     31  C   UNL     1       5.232 -17.089  10.636  0.00  0.00    +0.002 A 
ATOM     32  C   UNL     1       4.842 -17.450   9.395  0.00  0.00    +0.026 A 
ATOM     33  C   UNL     1       4.261 -16.494   8.517  0.00  0.00    +0.043 A 
ATOM     34  N   UNL     1       3.812 -16.596   7.290  0.00  0.00    -0.380 N 
ATOM     35  C   UNL     1       3.312 -15.284   6.864  0.00  0.00    +0.145 C 
ATOM     36  H   UNL     1       3.807 -17.404   6.754  0.00  0.00    +0.160 HD
ENDBRANCH  26  27
ENDBRANCH   7  26
TORSDOF 6
