REMARK  Name = ZINC38555846
REMARK  7 active torsions:
REMARK  status: ('A' for Active; 'I' for Inactive)
REMARK    1  A    between atoms: C_1  and  C_2
REMARK    2  A    between atoms: C_19  and  C_21
REMARK    3  A    between atoms: C_21  and  N_22
REMARK    4  A    between atoms: N_22  and  C_23
REMARK    5  A    between atoms: C_23  and  C_24
REMARK    6  A    between atoms: C_24  and  C_25
REMARK    7  A    between atoms: C_28  and  O_34
REMARK                            x       y       z     vdW  Elec       q    Type
REMARK                         _______ _______ _______ _____ _____    ______ ____
ROOT
ATOM      1  C   UNL     1       3.615  -1.815   0.691  0.00  0.00    -0.068 C 
ENDROOT
BRANCH   1  17
ATOM      2  C   UNL     1      -0.019   1.528   0.010  0.00  0.00    +0.012 C 
ATOM      3  C   UNL     1       0.002  -0.004   0.002  0.00  0.00    -0.022 C 
ATOM      4  C   UNL     1      -1.424  -0.538  -0.019  0.00  0.00    +0.007 C 
ATOM      5  C   UNL     1      -2.214  -0.070   1.202  0.00  0.00    +0.005 C 
ATOM      6  C   UNL     1      -1.532  -0.547   2.487  0.00  0.00    +0.030 C 
ATOM      7  C   UNL     1      -0.083  -0.116   2.459  0.00  0.00    -0.073 C 
ATOM      8  C   UNL     1       0.444   0.564   3.446  0.00  0.00    +0.008 C 
ATOM      9  C   UNL     1       0.744  -0.509   1.244  0.00  0.00    +0.021 C 
ATOM     10  C   UNL     1       0.831  -2.029   1.211  0.00  0.00    +0.016 C 
ATOM     11  C   UNL     1       1.313  -2.635  -0.068  0.00  0.00    +0.042 C 
ATOM     12  C   UNL     1       0.780  -1.979  -1.353  0.00  0.00    +0.181 C 
ATOM     13  C   UNL     1       0.765  -0.457  -1.239  0.00  0.00    +0.052 C 
ATOM     14  O   UNL     1       1.806  -2.304  -2.330  0.00  0.00    -0.461 OA
ATOM     15  C   UNL     1       2.999  -2.181  -1.712  0.00  0.00    +0.309 C 
ATOM     16  O   UNL     1       4.016  -1.753  -2.197  0.00  0.00    -0.251 OA
ATOM     17  C   UNL     1       2.828  -2.683  -0.284  0.00  0.00    +0.087 C 
ENDBRANCH   1  17
BRANCH   1  18
ATOM     18  N   UNL     1       5.054  -2.022   0.480  0.00  0.00    +0.380 N 
ATOM     19  H   UNL     1       5.280  -2.993   0.636  0.00  0.00    -0.086 HD
ATOM     20  H   UNL     1       5.295  -1.768  -0.467  0.00  0.00    -0.086 HD
BRANCH  18  21
ATOM     21  C   UNL     1       5.812  -1.185   1.420  0.00  0.00    -0.078 C 
BRANCH  21  22
ATOM     22  C   UNL     1       7.310  -1.401   1.200  0.00  0.00    +0.014 C 
BRANCH  22  23
ATOM     23  C   UNL     1       8.088  -0.542   2.164  0.00  0.00    -0.043 C 
ATOM     24  C   UNL     1       8.584  -0.914   3.366  0.00  0.00    +0.002 A 
ATOM     25  C   UNL     1       8.549  -2.178   4.109  0.00  0.00    +0.055 A 
ATOM     26  C   UNL     1       9.146  -2.256   5.322  0.00  0.00    +0.118 A 
ATOM     27  C   UNL     1       9.806  -1.160   5.905  0.00  0.00    +0.047 A 
ATOM     28  C   UNL     1       9.891   0.044   5.299  0.00  0.00    +0.029 A 
ATOM     29  C   UNL     1       9.279   0.240   3.981  0.00  0.00    +0.043 A 
ATOM     30  N   UNL     1       9.216   1.283   3.191  0.00  0.00    -0.380 N 
ATOM     31  C   UNL     1       8.478   0.907   1.980  0.00  0.00    +0.144 C 
ATOM     32  H   UNL     1       9.597   2.156   3.374  0.00  0.00    +0.160 HD
BRANCH  26  33
ATOM     33  O   UNL     1       9.106  -3.433   6.000  0.00  0.00    -0.507 OA
ATOM     34  H   UNL     1       9.848  -4.023   5.809  0.00  0.00    +0.292 HD
ENDBRANCH  26  33
ENDBRANCH  22  23
ENDBRANCH  21  22
ENDBRANCH  18  21
ENDBRANCH   1  18
TORSDOF 6
