REMARK  Name = ZINC00921295
REMARK  9 active torsions:
REMARK  status: ('A' for Active; 'I' for Inactive)
REMARK    1  A    between atoms: N_9  and  C_10
REMARK    2  A    between atoms: C_10  and  C_11
REMARK    3  A    between atoms: N_13  and  C_14
REMARK    4  A    between atoms: N_13  and  C_20
REMARK    5  A    between atoms: C_14  and  C_15
REMARK    6  A    between atoms: C_20  and  C_22
REMARK    7  A    between atoms: C_20  and  C_29
REMARK    8  A    between atoms: C_25  and  O_28
REMARK    9  A    between atoms: N_31  and  C_32
REMARK                            x       y       z     vdW  Elec       q    Type
REMARK                         _______ _______ _______ _____ _____    ______ ____
ROOT
ATOM      1  C   UNL     1      -2.160   1.082  -0.840  0.00  0.00    +0.238 C 
ATOM      2  O   UNL     1      -2.994   1.877  -0.462  0.00  0.00    -0.274 OA
ATOM      3  N   UNL     1      -0.943   1.514  -1.225  0.00  0.00    -0.280 N 
ENDROOT
BRANCH   1   4
ATOM      4  C   UNL     1      -2.484  -0.389  -0.880  0.00  0.00    +0.241 C 
BRANCH   4  13
ATOM      5  C   UNL     1      -5.690  -1.304   3.197  0.00  0.00    +0.002 A 
ATOM      6  C   UNL     1      -4.309  -1.164   3.239  0.00  0.00    +0.002 A 
ATOM      7  C   UNL     1      -3.599  -0.928   2.095  0.00  0.00    +0.029 A 
ATOM      8  C   UNL     1      -4.263  -0.831   0.877  0.00  0.00    +0.090 A 
ATOM      9  C   UNL     1      -5.661  -0.965   0.829  0.00  0.00    +0.113 A 
ATOM     10  C   UNL     1      -6.365  -1.207   2.016  0.00  0.00    +0.032 A 
ATOM     11  N   UNL     1      -6.042  -0.823  -0.457  0.00  0.00    -0.129 NA
ATOM     12  N   UNL     1      -5.018  -0.610  -1.205  0.00  0.00    -0.064 NA
ATOM     13  N   UNL     1      -3.857  -0.599  -0.416  0.00  0.00    -0.235 N 
ENDBRANCH   4  13
ENDBRANCH   1   4
BRANCH   3  14
ATOM     14  C   UNL     1       0.065   0.554  -1.683  0.00  0.00    +0.151 C 
BRANCH  14  15
ATOM     15  C   UNL     1       1.139   0.415  -0.634  0.00  0.00    +0.007 A 
ATOM     16  C   UNL     1       1.151  -0.361   0.477  0.00  0.00    +0.013 A 
ATOM     17  C   UNL     1       2.257  -0.328   1.306  0.00  0.00    +0.008 A 
ATOM     18  C   UNL     1       3.296   0.479   0.983  0.00  0.00    +0.045 A 
ATOM     19  S   UNL     1       2.727   1.223  -0.537  0.00  0.00    -0.100 S 
ENDBRANCH  14  15
ENDBRANCH   3  14
BRANCH   3  20
ATOM     20  C   UNL     1      -0.627   2.945  -1.187  0.00  0.00    +0.193 C 
BRANCH  20  21
ATOM     21  C   UNL     1      -0.555   3.405   0.246  0.00  0.00    -0.018 A 
ATOM     22  C   UNL     1      -0.043   2.562   1.216  0.00  0.00    +0.009 A 
ATOM     23  C   UNL     1       0.030   2.984   2.530  0.00  0.00    +0.046 A 
ATOM     24  C   UNL     1      -0.422   4.248   2.878  0.00  0.00    +0.117 A 
ATOM     25  C   UNL     1      -0.940   5.089   1.904  0.00  0.00    +0.046 A 
ATOM     26  C   UNL     1      -1.005   4.666   0.590  0.00  0.00    +0.009 A 
BRANCH  24  27
ATOM     27  O   UNL     1      -0.358   4.663   4.170  0.00  0.00    -0.507 OA
ATOM     28  H   UNL     1      -1.146   4.454   4.690  0.00  0.00    +0.292 HD
ENDBRANCH  24  27
ENDBRANCH  20  21
BRANCH  20  29
ATOM     29  C   UNL     1       0.700   3.185  -1.859  0.00  0.00    +0.238 C 
ATOM     30  O   UNL     1       1.415   2.247  -2.141  0.00  0.00    -0.273 OA
ATOM     31  N   UNL     1       1.091   4.442  -2.148  0.00  0.00    -0.311 N 
ATOM     32  H   UNL     1       0.518   5.192  -1.923  0.00  0.00    +0.149 HD
BRANCH  31  33
ATOM     33  C   UNL     1       2.381   4.675  -2.801  0.00  0.00    +0.073 C 
ATOM     34  C   UNL     1       3.486   4.731  -1.744  0.00  0.00    +0.022 C 
ATOM     35  C   UNL     1       4.833   4.975  -2.427  0.00  0.00    +0.002 C 
ATOM     36  C   UNL     1       4.787   6.302  -3.187  0.00  0.00    +0.000 C 
ATOM     37  C   UNL     1       3.682   6.247  -4.244  0.00  0.00    +0.002 C 
ATOM     38  C   UNL     1       2.335   6.003  -3.561  0.00  0.00    +0.022 C 
ENDBRANCH  31  33
ENDBRANCH  20  29
ENDBRANCH   3  20
TORSDOF 9
