REMARK  Name = ZINC48180699
REMARK  9 active torsions:
REMARK  status: ('A' for Active; 'I' for Inactive)
REMARK    1  A    between atoms: C_1  and  C_2
REMARK    2  A    between atoms: C_4  and  C_27
REMARK    3  A    between atoms: C_7  and  N_8
REMARK    4  A    between atoms: N_11  and  C_12
REMARK    5  A    between atoms: N_11  and  C_24
REMARK    6  A    between atoms: C_12  and  C_13
REMARK    7  A    between atoms: C_16  and  C_18
REMARK    8  A    between atoms: C_21  and  C_23
REMARK    9  A    between atoms: N_29  and  C_30
REMARK                            x       y       z     vdW  Elec       q    Type
REMARK                         _______ _______ _______ _____ _____    ______ ____
ROOT
ATOM      1  N   UNL     1      -0.115  -2.047   3.574  0.00  0.00    -0.269 N 
ATOM      2  C   UNL     1      -0.323  -0.715   3.571  0.00  0.00    +0.307 C 
ATOM      3  O   UNL     1      -0.471  -0.125   2.519  0.00  0.00    -0.252 OA
ATOM      4  N   UNL     1      -0.367  -0.038   4.736  0.00  0.00    -0.275 N 
ATOM      5  H   UNL     1      -0.087  -2.532   4.413  0.00  0.00    +0.156 HD
ENDROOT
BRANCH   1  12
ATOM      6  C   UNL     1      -0.391  -4.874   3.588  0.00  0.00    +0.045 C 
ATOM      7  C   UNL     1      -0.065  -4.112   2.330  0.00  0.00    -0.028 A 
ATOM      8  C   UNL     1       0.103  -4.786   1.141  0.00  0.00    +0.018 A 
ATOM      9  C   UNL     1       0.407  -4.078  -0.025  0.00  0.00    +0.037 A 
ATOM     10  C   UNL     1       0.538  -2.687   0.020  0.00  0.00    +0.015 A 
ATOM     11  C   UNL     1       0.369  -2.019   1.211  0.00  0.00    +0.024 A 
ATOM     12  C   UNL     1       0.062  -2.727   2.369  0.00  0.00    +0.038 A 
BRANCH   9  13
ATOM     13  C   UNL     1       0.588  -4.798  -1.301  0.00  0.00    +0.244 C 
ATOM     14  O   UNL     1       0.473  -6.007  -1.338  0.00  0.00    -0.270 OA
ATOM     15  N   UNL     1       0.880  -4.113  -2.425  0.00  0.00    -0.314 N 
ATOM     16  C   UNL     1       1.060  -4.827  -3.691  0.00  0.00    +0.128 C 
ATOM     17  H   UNL     1       0.971  -3.148  -2.395  0.00  0.00    +0.149 HD
ENDBRANCH   9  13
ENDBRANCH   1  12
BRANCH   4  18
ATOM     18  C   UNL     1      -0.498   1.421   4.730  0.00  0.00    +0.078 C 
ATOM     19  C   UNL     1      -0.948   2.085   3.427  0.00  0.00    +0.024 C 
ATOM     20  C   UNL     1       0.504   2.217   3.891  0.00  0.00    +0.024 C 
ENDBRANCH   4  18
BRANCH   4  21
ATOM     21  C   UNL     1      -0.284  -0.761   6.007  0.00  0.00    +0.183 C 
BRANCH  21  22
ATOM     22  C   UNL     1       1.160  -0.882   6.423  0.00  0.00    +0.123 A 
ATOM     23  C   UNL     1       1.835  -0.004   7.186  0.00  0.00    +0.046 A 
ATOM     24  C   UNL     1       3.149  -0.507   7.325  0.00  0.00    +0.045 A 
ATOM     25  C   UNL     1       3.198  -1.663   6.638  0.00  0.00    +0.109 A 
ATOM     26  O   UNL     1       1.989  -1.887   6.098  0.00  0.00    -0.463 OA
BRANCH  25  27
ATOM     27  C   UNL     1       4.404  -2.556   6.502  0.00  0.00    +0.058 C 
ATOM     28  C   UNL     1       4.199  -3.925   5.850  0.00  0.00    +0.015 C 
ATOM     29  C   UNL     1       4.933  -2.818   5.090  0.00  0.00    -0.003 C 
ATOM     30  C   UNL     1       6.447  -2.963   4.919  0.00  0.00    +0.008 C 
ENDBRANCH  25  27
ENDBRANCH  21  22
ENDBRANCH   4  21
TORSDOF 6
