REMARK  Name = ZINC57845582
REMARK  6 active torsions:
REMARK  status: ('A' for Active; 'I' for Inactive)
REMARK    1  A    between atoms: C_1  and  C_2
REMARK    2  A    between atoms: C_2  and  C_4
REMARK    3  A    between atoms: C_2  and  N_6
REMARK    4  A    between atoms: C_4  and  N_5
REMARK    5  A    between atoms: C_9  and  C_13
REMARK    6  A    between atoms: C_9  and  C_14
REMARK                            x       y       z     vdW  Elec       q    Type
REMARK                         _______ _______ _______ _____ _____    ______ ____
ROOT
ATOM      1  N   UNL     1       0.688  -0.476  -1.203  0.00  0.00    -0.223 N 
ATOM      2  C   UNL     1       1.796  -1.244  -1.192  0.00  0.00    +0.251 C 
ATOM      3  O   UNL     1       2.390  -1.658  -0.220  0.00  0.00    -0.272 OA
ATOM      4  C   UNL     1       2.143  -1.483  -2.648  0.00  0.00    +0.135 C 
ATOM      5  N   UNL     1       1.092  -0.754  -3.379  0.00  0.00    -0.281 N 
ATOM      6  C   UNL     1       0.288  -0.204  -2.451  0.00  0.00    +0.310 C 
ATOM      7  O   UNL     1      -0.689   0.467  -2.716  0.00  0.00    -0.252 OA
ATOM      8  C   UNL     1       2.090  -2.976  -2.977  0.00  0.00    +0.047 C 
ATOM      9  H   UNL     1       0.996  -0.685  -4.342  0.00  0.00    +0.152 HD
ENDROOT
BRANCH   4  10
ATOM     10  C   UNL     1       3.502  -0.916  -2.969  0.00  0.00    -0.015 A 
ATOM     11  C   UNL     1       4.477  -0.863  -1.990  0.00  0.00    +0.007 A 
ATOM     12  C   UNL     1       5.724  -0.344  -2.284  0.00  0.00    +0.015 A 
ATOM     13  C   UNL     1       5.996   0.123  -3.557  0.00  0.00    +0.018 A 
ATOM     14  C   UNL     1       5.020   0.070  -4.536  0.00  0.00    +0.015 A 
ATOM     15  C   UNL     1       3.775  -0.454  -4.243  0.00  0.00    +0.007 A 
ATOM     16 BR   UNL     1       7.702   0.834  -3.960  0.00  0.00    -0.050 Br
ENDBRANCH   4  10
BRANCH   1  18
ATOM     17  C   UNL     1      -0.019   1.526   0.010  0.00  0.00    +0.026 C 
ATOM     18  C   UNL     1       0.002  -0.004   0.002  0.00  0.00    +0.065 C 
BRANCH  18  19
ATOM     19  C   UNL     1      -1.433  -0.534   0.013  0.00  0.00    -0.063 C 
BRANCH  19  20
ATOM     20  N   UNL     1      -1.416  -1.997  -0.116  0.00  0.00    +0.379 N 
ATOM     21  H   UNL     1      -2.363  -2.346  -0.109  0.00  0.00    -0.090 HD
ATOM     22  H   UNL     1      -0.970  -2.253  -0.984  0.00  0.00    -0.090 HD
ATOM     23  H   UNL     1      -0.905  -2.397   0.656  0.00  0.00    -0.090 HD
ENDBRANCH  19  20
ENDBRANCH  18  19
ENDBRANCH   1  18
TORSDOF 4
