REMARK  Name = ZINC21530738
REMARK  6 active torsions:
REMARK  status: ('A' for Active; 'I' for Inactive)
REMARK    1  A    between atoms: C_4  and  C_7
REMARK    2  A    between atoms: C_7  and  C_11
REMARK    3  A    between atoms: C_11  and  O_13
REMARK    4  A    between atoms: O_13  and  C_14
REMARK    5  A    between atoms: C_14  and  C_15
REMARK    6  A    between atoms: C_28  and  C_30
REMARK                            x       y       z     vdW  Elec       q    Type
REMARK                         _______ _______ _______ _____ _____    ______ ____
ROOT
ATOM      1  C   UNL     1       5.869   2.872  -2.521  0.00  0.00    +0.258 C 
ATOM      2  O   UNL     1       5.297   3.578  -1.717  0.00  0.00    -0.271 OA
ATOM      3  N   UNL     1       6.642   3.427  -3.475  0.00  0.00    -0.255 N 
ATOM      4  C   UNL     1       7.304   2.624  -4.414  0.00  0.00    +0.058 A 
ATOM      5  C   UNL     1       6.598   1.984  -5.419  0.00  0.00    +0.025 A 
ATOM      6  C   UNL     1       7.271   1.214  -6.350  0.00  0.00    +0.002 A 
ATOM      7  C   UNL     1       8.646   1.082  -6.282  0.00  0.00    +0.002 A 
ATOM      8  C   UNL     1       9.357   1.711  -5.277  0.00  0.00    +0.025 A 
ATOM      9  C   UNL     1       8.689   2.475  -4.334  0.00  0.00    +0.055 A 
ATOM     10  N   UNL     1       9.381   3.075  -3.276  0.00  0.00    -0.284 N 
ATOM     11  C   UNL     1       9.173   4.374  -2.969  0.00  0.00    +0.219 C 
ATOM     12  O   UNL     1       9.716   4.859  -1.999  0.00  0.00    -0.275 OA
ATOM     13  C   UNL     1       8.271   5.224  -3.825  0.00  0.00    +0.128 C 
ATOM     14  C   UNL     1       6.802   4.881  -3.553  0.00  0.00    +0.194 C 
ATOM     15  H   UNL     1      10.014   2.553  -2.757  0.00  0.00    +0.155 HD
ENDROOT
BRANCH  14  16
ATOM     16  C   UNL     1       5.929   5.428  -4.684  0.00  0.00    +0.409 C 
ATOM     17  F   UNL     1       4.588   5.118  -4.431  0.00  0.00    -0.169 F 
ATOM     18  F   UNL     1       6.080   6.816  -4.760  0.00  0.00    -0.169 F 
ATOM     19  F   UNL     1       6.320   4.849  -5.896  0.00  0.00    -0.169 F 
ENDBRANCH  14  16
BRANCH   1  20
ATOM     20  C   UNL     1       5.715   1.375  -2.453  0.00  0.00    +0.328 C 
BRANCH  20  21
ATOM     21  O   UNL     1       4.853   1.034  -1.365  0.00  0.00    -0.455 OA
BRANCH  21  22
ATOM     22  C   UNL     1       4.611  -0.271  -1.166  0.00  0.00    +0.318 C 
ATOM     23  O   UNL     1       5.113  -1.097  -1.891  0.00  0.00    -0.250 OA
BRANCH  22  24
ATOM     24  C   UNL     1       3.711  -0.707  -0.038  0.00  0.00    +0.093 C 
ATOM     25  C   UNL     1       4.412  -0.749   1.331  0.00  0.00    +0.023 C 
ATOM     26  C   UNL     1       4.794  -2.202   1.003  0.00  0.00    +0.003 C 
ATOM     27  C   UNL     1       3.565  -2.233   0.079  0.00  0.00    +0.023 C 
BRANCH  24  31
ATOM     28  C   UNL     1      -0.018   1.377   0.013  0.00  0.00    +0.000 A 
ATOM     29  C   UNL     1       0.195   0.363  -0.902  0.00  0.00    +0.000 A 
ATOM     30  C   UNL     1       1.402  -0.311  -0.918  0.00  0.00    +0.005 A 
ATOM     31  C   UNL     1       2.396   0.029  -0.020  0.00  0.00    -0.031 A 
ATOM     32  C   UNL     1       2.184   1.043   0.894  0.00  0.00    +0.005 A 
ATOM     33  C   UNL     1       0.977   1.716   0.912  0.00  0.00    +0.000 A 
ENDBRANCH  24  31
ENDBRANCH  22  24
ENDBRANCH  21  22
ENDBRANCH  20  21
ENDBRANCH   1  20
TORSDOF 6
