REMARK  Name = ZINC10048444
REMARK  10 active torsions:
REMARK  status: ('A' for Active; 'I' for Inactive)
REMARK    1  A    between atoms: C_1  and  C_2
REMARK    2  A    between atoms: C_5  and  N_8
REMARK    3  A    between atoms: C_9  and  C_36
REMARK    4  A    between atoms: N_18  and  C_23
REMARK    5  A    between atoms: N_21  and  C_22
REMARK    6  A    between atoms: C_23  and  C_24
REMARK    7  A    between atoms: C_24  and  C_26
REMARK    8  A    between atoms: C_24  and  C_27
REMARK    9  A    between atoms: C_27  and  N_28
REMARK   10  A    between atoms: N_28  and  C_29
REMARK                            x       y       z     vdW  Elec       q    Type
REMARK                         _______ _______ _______ _____ _____    ______ ____
ROOT
ATOM      1  N   UNL     1       2.360 -11.388   3.081  0.00  0.00    -0.283 N 
ATOM      2  C   UNL     1       2.427 -10.664   4.258  0.00  0.00    +0.040 A 
ATOM      3  C   UNL     1       2.660  -9.392   3.948  0.00  0.00    +0.116 A 
ATOM      4  N   UNL     1       2.744  -9.286   2.571  0.00  0.00    -0.277 N 
ATOM      5  C   UNL     1       2.559 -10.517   2.040  0.00  0.00    +0.223 A 
ATOM      6  N   UNL     1       2.636 -10.440   0.720  0.00  0.00    -0.193 NA
ATOM      7  C   UNL     1       2.869  -9.183   0.351  0.00  0.00    +0.170 A 
ATOM      8  C   UNL     1       2.945  -8.414   1.512  0.00  0.00    +0.157 A 
ATOM      9  C   UNL     1       3.191  -7.035   1.405  0.00  0.00    +0.283 A 
ATOM     10  O   UNL     1       3.266  -6.343   2.405  0.00  0.00    -0.265 OA
ATOM     11  N   UNL     1       3.339  -6.483   0.183  0.00  0.00    -0.259 N 
ATOM     12  C   UNL     1       3.265  -7.232  -0.931  0.00  0.00    +0.333 A 
ATOM     13  O   UNL     1       3.408  -6.700  -2.014  0.00  0.00    -0.246 OA
ATOM     14  N   UNL     1       3.035  -8.558  -0.876  0.00  0.00    -0.279 N 
ATOM     15  C   UNL     1       2.961  -9.341  -2.112  0.00  0.00    +0.155 C 
ATOM     16  C   UNL     1       2.266 -11.220   5.649  0.00  0.00    +0.065 C 
ENDROOT
BRANCH   1  21
ATOM     17  C   UNL     1       1.427 -16.968   2.638  0.00  0.00    +0.044 C 
ATOM     18  C   UNL     1       1.675 -15.486   2.756  0.00  0.00    -0.050 A 
ATOM     19  C   UNL     1       0.689 -14.660   3.262  0.00  0.00    +0.005 A 
ATOM     20  C   UNL     1       0.913 -13.301   3.372  0.00  0.00    +0.026 A 
ATOM     21  C   UNL     1       2.130 -12.765   2.972  0.00  0.00    +0.050 A 
ATOM     22  C   UNL     1       3.116 -13.597   2.459  0.00  0.00    +0.026 A 
ATOM     23  C   UNL     1       2.888 -14.955   2.357  0.00  0.00    +0.005 A 
ENDBRANCH   1  21
BRANCH  11  24
ATOM     24  C   UNL     1       3.591  -5.045   0.067  0.00  0.00    +0.134 C 
BRANCH  24  25
ATOM     25  C   UNL     1       2.259  -4.300  -0.042  0.00  0.00    +0.023 C 
ATOM     26  C   UNL     1       1.560  -4.694  -1.344  0.00  0.00    +0.011 C 
BRANCH  25  27
ATOM     27  C   UNL     1       2.516  -2.792  -0.037  0.00  0.00    +0.106 C 
BRANCH  27  28
ATOM     28  N   UNL     1       1.236  -2.079  -0.021  0.00  0.00    -0.344 N 
ATOM     29  H   UNL     1       0.404  -2.577  -0.015  0.00  0.00    +0.146 HD
BRANCH  28  30
ATOM     30  C   UNL     1       1.215  -0.681  -0.013  0.00  0.00    +0.027 A 
ATOM     31  C   UNL     1       0.002  -0.004   0.002  0.00  0.00    +0.026 A 
ATOM     32  C   UNL     1      -0.017   1.377   0.010  0.00  0.00    +0.040 A 
ATOM     33  C   UNL     1       1.172   2.087   0.002  0.00  0.00    +0.124 A 
ATOM     34  C   UNL     1       2.382   1.414  -0.013  0.00  0.00    +0.040 A 
ATOM     35  C   UNL     1       2.406   0.033  -0.021  0.00  0.00    +0.026 A 
ATOM     36  F   UNL     1       1.152   3.437   0.010  0.00  0.00    -0.205 F 
ENDBRANCH  28  30
ENDBRANCH  27  28
ENDBRANCH  25  27
ENDBRANCH  24  25
ENDBRANCH  11  24
TORSDOF 6
