REMARK  Name = ZINC02542481
REMARK  8 active torsions:
REMARK  status: ('A' for Active; 'I' for Inactive)
REMARK    1  A    between atoms: C_4  and  C_7
REMARK    2  A    between atoms: C_7  and  O_9
REMARK    3  A    between atoms: O_9  and  C_10
REMARK    4  A    between atoms: C_15  and  C_16
REMARK    5  A    between atoms: N_17  and  N_18
REMARK    6  A    between atoms: C_19  and  C_21
REMARK    7  A    between atoms: C_21  and  N_22
REMARK    8  A    between atoms: C_23  and  C_25
REMARK                            x       y       z     vdW  Elec       q    Type
REMARK                         _______ _______ _______ _____ _____    ______ ____
ROOT
ATOM      1  C   UNL     1      -2.495  -3.148   0.351  0.00  0.00    +0.142 C 
ATOM      2  N   UNL     1      -1.497  -2.322   0.427  0.00  0.00    -0.188 NA
ENDROOT
BRANCH   1   8
ATOM      3  C   UNL     1      -0.957  -5.019  -0.238  0.00  0.00    +0.141 A 
ATOM      4  C   UNL     1      -0.740  -6.357  -0.522  0.00  0.00    +0.048 A 
ATOM      5  C   UNL     1      -1.801  -7.243  -0.538  0.00  0.00    +0.019 A 
ATOM      6  C   UNL     1      -3.086  -6.802  -0.265  0.00  0.00    +0.019 A 
ATOM      7  C   UNL     1      -3.318  -5.473   0.024  0.00  0.00    +0.028 A 
ATOM      8  C   UNL     1      -2.254  -4.569   0.043  0.00  0.00    +0.038 A 
ATOM      9 BR   UNL     1      -4.527  -8.027  -0.290  0.00  0.00    -0.050 Br
BRANCH   3  10
ATOM     10  O   UNL     1       0.084  -4.147  -0.227  0.00  0.00    -0.422 OA
BRANCH  10  11
ATOM     11  C   UNL     1       0.689  -3.931   0.957  0.00  0.00    +0.344 C 
ATOM     12  O   UNL     1       0.233  -4.422   1.970  0.00  0.00    -0.245 OA
BRANCH  11  16
ATOM     13  C   UNL     1       4.190  -1.534   1.147  0.00  0.00    +0.000 A 
ATOM     14  C   UNL     1       3.670  -2.087   2.304  0.00  0.00    +0.001 A 
ATOM     15  C   UNL     1       2.533  -2.866   2.250  0.00  0.00    +0.015 A 
ATOM     16  C   UNL     1       1.907  -3.097   1.023  0.00  0.00    +0.059 A 
ATOM     17  C   UNL     1       2.440  -2.541  -0.141  0.00  0.00    +0.015 A 
ATOM     18  C   UNL     1       3.575  -1.759  -0.071  0.00  0.00    +0.001 A 
ENDBRANCH  11  16
ENDBRANCH  10  11
ENDBRANCH   3  10
ENDBRANCH   1   8
BRANCH   2  19
ATOM     19  N   UNL     1      -1.713  -0.997   0.828  0.00  0.00    -0.206 N 
ATOM     20  C   UNL     1      -0.692  -0.117   0.825  0.00  0.00    +0.249 C 
ATOM     21  O   UNL     1       0.431  -0.492   0.559  0.00  0.00    -0.272 OA
ATOM     22  H   UNL     1      -2.597  -0.713   1.108  0.00  0.00    +0.177 HD
BRANCH  20  23
ATOM     23  C   UNL     1      -0.945   1.332   1.151  0.00  0.00    +0.202 C 
BRANCH  23  24
ATOM     24  N   UNL     1       0.315   2.076   1.079  0.00  0.00    -0.303 N 
ATOM     25  C   UNL     1       0.331   3.400   1.335  0.00  0.00    +0.246 C 
ATOM     26  O   UNL     1      -0.700   3.976   1.624  0.00  0.00    -0.270 OA
ATOM     27  H   UNL     1       1.137   1.617   0.849  0.00  0.00    +0.150 HD
BRANCH  25  28
ATOM     28  C   UNL     1       1.602   4.150   1.263  0.00  0.00    +0.055 A 
ATOM     29  C   UNL     1       2.789   3.491   0.936  0.00  0.00    +0.014 A 
ATOM     30  C   UNL     1       3.970   4.198   0.866  0.00  0.00    +0.001 A 
ATOM     31  C   UNL     1       3.985   5.557   1.128  0.00  0.00    +0.001 A 
ATOM     32  C   UNL     1       2.815   6.217   1.457  0.00  0.00    +0.021 A 
ATOM     33  C   UNL     1       1.623   5.522   1.527  0.00  0.00    +0.053 A 
ATOM     34 CL   UNL     1       0.155   6.351   1.941  0.00  0.00    -0.083 Cl
ENDBRANCH  25  28
ENDBRANCH  23  24
ENDBRANCH  20  23
ENDBRANCH   2  19
TORSDOF 8
