REMARK  Name = ZINC41410281
REMARK  3 active torsions:
REMARK  status: ('A' for Active; 'I' for Inactive)
REMARK    1  A    between atoms: C_1  and  C_2
REMARK    2  A    between atoms: C_4  and  C_17
REMARK    3  A    between atoms: C_5  and  N_9
REMARK                            x       y       z     vdW  Elec       q    Type
REMARK                         _______ _______ _______ _____ _____    ______ ____
ROOT
ATOM      1  C   UNL     1      -0.018   1.503   0.010  0.00  0.00    +0.044 C 
ATOM      2  C   UNL     1       0.002  -0.004   0.002  0.00  0.00    -0.049 A 
ATOM      3  C   UNL     1       0.006  -0.687  -1.200  0.00  0.00    +0.008 A 
ATOM      4  C   UNL     1       0.024  -2.068  -1.212  0.00  0.00    -0.026 A 
ATOM      5  C   UNL     1       0.039  -2.771  -0.015  0.00  0.00    +0.081 A 
ATOM      6  C   UNL     1       0.036  -2.082   1.192  0.00  0.00    +0.065 A 
ATOM      7  C   UNL     1       0.023  -0.700   1.196  0.00  0.00    +0.025 A 
ATOM      8 CL   UNL     1       0.055  -2.956   2.692  0.00  0.00    -0.082 Cl
ATOM      9  C   UNL     1       0.027  -2.812  -2.523  0.00  0.00    +0.046 C 
ENDROOT
BRANCH   5  10
ATOM     10  N   UNL     1       0.057  -4.171  -0.023  0.00  0.00    -0.142 N 
ATOM     11  C   UNL     1       1.152  -4.946  -0.028  0.00  0.00    +0.240 C 
ATOM     12  O   UNL     1       2.260  -4.455   0.007  0.00  0.00    -0.274 OA
ATOM     13  C   UNL     1       0.974  -6.434  -0.077  0.00  0.00    +0.122 C 
ATOM     14  C   UNL     1      -0.472  -6.776   0.369  0.00  0.00    +0.198 C 
ATOM     15  S   UNL     1      -1.284  -5.174  -0.022  0.00  0.00    +0.052 S 
ATOM     16  O   UNL     1      -2.091  -4.735   1.062  0.00  0.00    -0.155 OA
ATOM     17  O   UNL     1      -1.770  -5.166  -1.357  0.00  0.00    -0.155 OA
ENDBRANCH   5  10
TORSDOF 1
