REMARK  Name = ZINC06237723
REMARK  12 active torsions:
REMARK  status: ('A' for Active; 'I' for Inactive)
REMARK    1  A    between atoms: C_1  and  C_2
REMARK    2  A    between atoms: C_3  and  C_21
REMARK    3  A    between atoms: C_4  and  C_10
REMARK    4  A    between atoms: C_11  and  O_19
REMARK    5  A    between atoms: C_14  and  O_17
REMARK    6  A    between atoms: O_17  and  C_18
REMARK    7  A    between atoms: O_19  and  C_20
REMARK    8  A    between atoms: C_21  and  O_23
REMARK    9  A    between atoms: O_23  and  C_24
REMARK   10  A    between atoms: C_24  and  C_25
REMARK   11  A    between atoms: C_25  and  S_26
REMARK   12  A    between atoms: S_26  and  C_27
REMARK                            x       y       z     vdW  Elec       q    Type
REMARK                         _______ _______ _______ _____ _____    ______ ____
ROOT
ATOM      1  C   UNL     1      -4.103  -6.434  -0.221  0.00  0.00    +0.061 C 
ATOM      2  C   UNL     1      -5.206  -5.416  -0.084  0.00  0.00    +0.021 C 
ATOM      3  C   UNL     1      -4.891  -4.107   0.030  0.00  0.00    +0.078 C 
ATOM      4  C   UNL     1      -6.031  -3.117   0.160  0.00  0.00    +0.148 C 
ATOM      5  N   UNL     1      -7.397  -3.667   0.156  0.00  0.00    -0.288 N 
ATOM      6  C   UNL     1      -7.551  -5.001   0.040  0.00  0.00    +0.304 C 
ATOM      7  O   UNL     1      -8.674  -5.465   0.036  0.00  0.00    -0.252 OA
ATOM      8  N   UNL     1      -6.506  -5.832  -0.072  0.00  0.00    -0.273 N 
ATOM      9  H   UNL     1      -8.167  -3.083   0.235  0.00  0.00    +0.151 HD
ATOM     10  H   UNL     1      -6.684  -6.782  -0.153  0.00  0.00    +0.156 HD
ENDROOT
BRANCH   4  11
ATOM     11  C   UNL     1      -5.840  -2.354   1.445  0.00  0.00    +0.037 A 
ATOM     12  C   UNL     1      -5.377  -1.047   1.415  0.00  0.00    +0.127 A 
ATOM     13  C   UNL     1      -5.206  -0.344   2.598  0.00  0.00    +0.049 A 
ATOM     14  C   UNL     1      -5.487  -0.949   3.808  0.00  0.00    +0.050 A 
ATOM     15  C   UNL     1      -5.944  -2.257   3.840  0.00  0.00    +0.135 A 
ATOM     16  C   UNL     1      -6.120  -2.960   2.656  0.00  0.00    +0.068 A 
ATOM     17 BR   UNL     1      -6.745  -4.744   2.698  0.00  0.00    -0.046 Br
BRANCH  15  18
ATOM     18  O   UNL     1      -6.221  -2.853   5.031  0.00  0.00    -0.494 OA
ATOM     19  C   UNL     1      -6.016  -2.071   6.210  0.00  0.00    +0.277 C 
ENDBRANCH  15  18
BRANCH  12  20
ATOM     20  O   UNL     1      -5.096  -0.453   0.224  0.00  0.00    -0.495 OA
ATOM     21  C   UNL     1      -4.624   0.895   0.267  0.00  0.00    +0.277 C 
ENDBRANCH  12  20
ENDBRANCH   4  11
BRANCH   3  22
ATOM     22  C   UNL     1      -3.544  -3.676   0.024  0.00  0.00    +0.339 C 
ATOM     23  O   UNL     1      -2.643  -4.494   0.022  0.00  0.00    -0.245 OA
BRANCH  22  24
ATOM     24  O   UNL     1      -3.258  -2.357   0.019  0.00  0.00    -0.460 OA
BRANCH  24  25
ATOM     25  C   UNL     1      -1.876  -1.993   0.013  0.00  0.00    +0.243 C 
BRANCH  25  26
ATOM     26  C   UNL     1      -1.751  -0.468   0.008  0.00  0.00    +0.115 C 
BRANCH  26  27
ATOM     27  S   UNL     1       0.003  -0.006   0.000  0.00  0.00    -0.122 S 
BRANCH  27  28
ATOM     28  C   UNL     1      -0.020   1.756  -0.004  0.00  0.00    +0.008 A 
ATOM     29  C   UNL     1      -1.232   2.437  -0.007  0.00  0.00    +0.015 A 
ATOM     30  C   UNL     1      -1.247   3.817  -0.005  0.00  0.00    +0.001 A 
ATOM     31  C   UNL     1      -0.057   4.523  -0.012  0.00  0.00    +0.000 A 
ATOM     32  C   UNL     1       1.151   3.849  -0.015  0.00  0.00    +0.001 A 
ATOM     33  C   UNL     1       1.173   2.469  -0.011  0.00  0.00    +0.015 A 
ENDBRANCH  27  28
ENDBRANCH  26  27
ENDBRANCH  25  26
ENDBRANCH  24  25
ENDBRANCH  22  24
ENDBRANCH   3  22
TORSDOF 9
