REMARK  Name = ZINC38133684
REMARK  6 active torsions:
REMARK  status: ('A' for Active; 'I' for Inactive)
REMARK    1  A    between atoms: C_1  and  N_2
REMARK    2  A    between atoms: N_2  and  C_3
REMARK    3  A    between atoms: C_3  and  C_5
REMARK    4  A    between atoms: C_3  and  C_15
REMARK    5  A    between atoms: C_5  and  C_6
REMARK    6  A    between atoms: C_9  and  N_12
REMARK                            x       y       z     vdW  Elec       q    Type
REMARK                         _______ _______ _______ _____ _____    ______ ____
ROOT
ATOM      1  C   UNL     1       0.690  -0.478  -1.207  0.00  0.00    -0.034 C 
ENDROOT
BRANCH   1   2
ATOM      2  C   UNL     1       2.103   0.044  -1.217  0.00  0.00    -0.024 A 
ATOM      3  C   UNL     1       2.907  -0.112  -0.102  0.00  0.00    +0.044 A 
ATOM      4  C   UNL     1       4.205   0.367  -0.113  0.00  0.00    +0.020 A 
ATOM      5  C   UNL     1       4.699   1.002  -1.237  0.00  0.00    +0.003 A 
ATOM      6  C   UNL     1       3.896   1.158  -2.351  0.00  0.00    +0.020 A 
ATOM      7  C   UNL     1       2.600   0.674  -2.344  0.00  0.00    +0.044 A 
ATOM      8 CL   UNL     1       1.595   0.863  -3.747  0.00  0.00    -0.083 Cl
ATOM      9 CL   UNL     1       2.287  -0.908   1.310  0.00  0.00    -0.083 Cl
ENDBRANCH   1   2
BRANCH   1  11
ATOM     10  C   UNL     1      -0.124   1.513  -0.144  0.00  0.00    -0.100 C 
ATOM     11  N   UNL     1      -0.019   0.052  -0.034  0.00  0.00    +0.382 N 
ATOM     12  H   UNL     1       0.491  -0.186   0.803  0.00  0.00    -0.085 HD
ATOM     13  H   UNL     1      -0.944  -0.349   0.010  0.00  0.00    -0.085 HD
ENDBRANCH   1  11
BRANCH   1  14
ATOM     14  C   UNL     1       0.711  -2.006  -1.142  0.00  0.00    +0.024 C 
BRANCH  14  15
ATOM     15  C   UNL     1      -0.697  -2.533  -1.255  0.00  0.00    -0.048 A 
ATOM     16  C   UNL     1      -1.458  -2.721  -0.117  0.00  0.00    +0.006 A 
ATOM     17  C   UNL     1      -2.749  -3.204  -0.220  0.00  0.00    +0.033 A 
ATOM     18  C   UNL     1      -3.279  -3.499  -1.462  0.00  0.00    +0.126 A 
ATOM     19  C   UNL     1      -2.518  -3.311  -2.601  0.00  0.00    +0.033 A 
ATOM     20  C   UNL     1      -1.229  -2.823  -2.498  0.00  0.00    +0.006 A 
BRANCH  18  21
ATOM     21  N   UNL     1      -4.661  -4.017  -1.573  0.00  0.00    +0.056 N 
ATOM     22  O   UNL     1      -5.327  -4.183  -0.578  0.00  0.00    -0.126 OA
ATOM     23  O   UNL     1      -5.125  -4.275  -2.660  0.00  0.00    -0.126 OA
ENDBRANCH  18  21
ENDBRANCH  14  15
ENDBRANCH   1  14
TORSDOF 5
