REMARK  Name = ZINC67246553
REMARK  3 active torsions:
REMARK  status: ('A' for Active; 'I' for Inactive)
REMARK    1  A    between atoms: C_3  and  O_27
REMARK    2  A    between atoms: C_6  and  C_7
REMARK    3  A    between atoms: C_13  and  C_15
REMARK                            x       y       z     vdW  Elec       q    Type
REMARK                         _______ _______ _______ _____ _____    ______ ____
ROOT
ATOM      1  C   UNL     1      -1.266  -0.762   0.011  0.00  0.00    -0.041 C 
ATOM      2  C   UNL     1      -2.051  -0.654  -1.035  0.00  0.00    -0.004 C 
ATOM      3  C   UNL     1      -3.376  -1.354  -1.152  0.00  0.00    +0.135 C 
ATOM      4  N   UNL     1      -3.497  -2.342  -0.070  0.00  0.00    -0.297 N 
ATOM      5  C   UNL     1      -3.065  -1.927   1.276  0.00  0.00    +0.113 C 
ATOM      6  C   UNL     1      -1.567  -1.609   1.211  0.00  0.00    +0.054 C 
ATOM      7  C   UNL     1      -3.983  -3.578  -0.300  0.00  0.00    +0.219 C 
ATOM      8  O   UNL     1      -4.072  -4.373   0.611  0.00  0.00    -0.275 OA
ENDROOT
BRANCH   7   9
ATOM      9  C   UNL     1      -4.417  -3.970  -1.689  0.00  0.00    +0.075 C 
ATOM     10  C   UNL     1      -5.537  -3.038  -2.156  0.00  0.00    +0.015 C 
ATOM     11  C   UNL     1      -5.967  -3.430  -3.572  0.00  0.00    +0.036 C 
ATOM     12  C   UNL     1      -6.451  -4.876  -3.577  0.00  0.00    +0.112 C 
ATOM     13  C   UNL     1      -5.353  -5.815  -3.089  0.00  0.00    +0.036 C 
ATOM     14  C   UNL     1      -4.925  -5.413  -1.676  0.00  0.00    +0.015 C 
ATOM     15  C   UNL     1      -7.689  -5.022  -2.722  0.00  0.00    +0.244 C 
ATOM     16  O   UNL     1      -7.789  -4.808  -1.533  0.00  0.00    -0.273 OA
ATOM     17  N   UNL     1      -8.659  -5.442  -3.561  0.00  0.00    -0.238 N 
ATOM     18  C   UNL     1      -8.204  -5.578  -4.812  0.00  0.00    +0.307 C 
ATOM     19  O   UNL     1      -8.891  -5.944  -5.745  0.00  0.00    -0.252 OA
ATOM     20  N   UNL     1      -6.899  -5.264  -4.921  0.00  0.00    -0.285 N 
ATOM     21  H   UNL     1      -9.572  -5.623  -3.290  0.00  0.00    +0.159 HD
ATOM     22  H   UNL     1      -6.361  -5.288  -5.728  0.00  0.00    +0.151 HD
ENDBRANCH   7   9
BRANCH   1  28
ATOM     23  C   UNL     1      -0.017   1.392   0.010  0.00  0.00    +0.012 A 
ATOM     24  C   UNL     1       1.169   2.095   0.002  0.00  0.00    +0.046 A 
ATOM     25  C   UNL     1       2.380   1.417  -0.013  0.00  0.00    +0.117 A 
ATOM     26  C   UNL     1       2.403   0.029  -0.021  0.00  0.00    +0.046 A 
ATOM     27  C   UNL     1       1.222  -0.682  -0.014  0.00  0.00    +0.012 A 
ATOM     28  C   UNL     1       0.002  -0.004   0.002  0.00  0.00    -0.022 A 
BRANCH  25  29
ATOM     29  O   UNL     1       3.547   2.114  -0.022  0.00  0.00    -0.507 OA
ATOM     30  H   UNL     1       3.893   2.312   0.859  0.00  0.00    +0.292 HD
ENDBRANCH  25  29
ENDBRANCH   1  28
TORSDOF 3
