REMARK  Name = ZINC37605014
REMARK  3 active torsions:
REMARK  status: ('A' for Active; 'I' for Inactive)
REMARK    1  A    between atoms: C_3  and  N_20
REMARK    2  A    between atoms: C_4  and  N_17
REMARK    3  A    between atoms: C_6  and  C_7
REMARK                            x       y       z     vdW  Elec       q    Type
REMARK                         _______ _______ _______ _____ _____    ______ ____
ROOT
ATOM      1  C   UNL     1       0.005   1.384  -0.256  0.00  0.00    +0.012 A 
ATOM      2  C   UNL     1       1.204   2.061  -0.315  0.00  0.00    +0.025 A 
ATOM      3  C   UNL     1       2.396   1.389  -0.066  0.00  0.00    +0.055 A 
ATOM      4  C   UNL     1       2.382   0.033   0.244  0.00  0.00    +0.147 A 
ATOM      5  C   UNL     1       1.187  -0.649   0.304  0.00  0.00    +0.045 A 
ATOM      6  C   UNL     1      -0.012   0.023   0.054  0.00  0.00    +0.009 A 
ENDROOT
BRANCH   6   7
ATOM      7  C   UNL     1      -1.296  -0.706   0.118  0.00  0.00    +0.110 A 
ATOM      8  N   UNL     1      -1.513  -1.973   0.397  0.00  0.00    -0.239 NA
ATOM      9  C   UNL     1      -2.749  -2.508   0.420  0.00  0.00    +0.080 A 
ATOM     10  C   UNL     1      -3.117  -3.845   0.702  0.00  0.00    +0.044 A 
ATOM     11  C   UNL     1      -4.433  -4.228   0.682  0.00  0.00    +0.020 A 
ATOM     12  C   UNL     1      -5.447  -3.326   0.386  0.00  0.00    +0.016 A 
ATOM     13  C   UNL     1      -5.124  -2.012   0.106  0.00  0.00    +0.018 A 
ATOM     14  C   UNL     1      -3.809  -1.618   0.123  0.00  0.00    +0.040 A 
ATOM     15  S   UNL     1      -2.951  -0.088  -0.156  0.00  0.00    -0.067 S 
ATOM     16 BR   UNL     1      -4.878  -6.026   1.065  0.00  0.00    -0.050 Br
ENDBRANCH   6   7
BRANCH   4  17
ATOM     17  N   UNL     1       3.653  -0.678   0.508  0.00  0.00    +0.058 N 
ATOM     18  O   UNL     1       3.800  -1.815   0.126  0.00  0.00    -0.126 OA
ATOM     19  O   UNL     1       4.544  -0.122   1.107  0.00  0.00    -0.126 OA
ENDBRANCH   4  17
BRANCH   3  20
ATOM     20  N   UNL     1       3.607   2.076  -0.126  0.00  0.00    -0.356 N 
ATOM     21  H   UNL     1       3.612   3.041  -0.230  0.00  0.00    +0.142 HD
ATOM     22  H   UNL     1       4.444   1.590  -0.065  0.00  0.00    +0.142 HD
ENDBRANCH   3  20
TORSDOF 3
