REMARK  Name = ZINC46729372
REMARK  13 active torsions:
REMARK  status: ('A' for Active; 'I' for Inactive)
REMARK    1  A    between atoms: C_1  and  C_2
REMARK    2  A    between atoms: C_2  and  C_3
REMARK    3  A    between atoms: C_3  and  C_4
REMARK    4  A    between atoms: C_4  and  C_6
REMARK    5  A    between atoms: C_4  and  N_20
REMARK    6  A    between atoms: N_8  and  C_9
REMARK    7  A    between atoms: C_9  and  C_10
REMARK    8  A    between atoms: C_10  and  C_12
REMARK    9  A    between atoms: C_10  and  N_17
REMARK   10  A    between atoms: N_17  and  C_18
REMARK   11  A    between atoms: N_17  and  C_19
REMARK   12  A    between atoms: N_23  and  C_24
REMARK   13  A    between atoms: C_24  and  C_25
REMARK                            x       y       z     vdW  Elec       q    Type
REMARK                         _______ _______ _______ _____ _____    ______ ____
ROOT
ATOM      1  C   UNL     1      -1.341  -1.892  -0.170  0.00  0.00    +0.160 C 
ENDROOT
BRANCH   1   2
ATOM      2  N   UNL     1      -0.722  -2.231   1.113  0.00  0.00    -0.288 N 
ATOM      3  C   UNL     1       0.613  -2.401   1.194  0.00  0.00    +0.300 C 
ATOM      4  O   UNL     1       1.303  -2.272   0.201  0.00  0.00    -0.253 OA
ATOM      5  N   UNL     1       1.183  -2.713   2.375  0.00  0.00    -0.295 N 
ATOM      6  H   UNL     1      -1.272  -2.334   1.905  0.00  0.00    +0.151 HD
ATOM      7  H   UNL     1       0.632  -2.816   3.167  0.00  0.00    +0.151 HD
BRANCH   5   8
ATOM      8  C   UNL     1       2.633  -2.897   2.462  0.00  0.00    +0.141 C 
BRANCH   8   9
ATOM      9  C   UNL     1       3.012  -3.237   3.880  0.00  0.00    -0.030 A 
ATOM     10  C   UNL     1       3.313  -2.228   4.776  0.00  0.00    +0.008 A 
ATOM     11  C   UNL     1       3.660  -2.538   6.077  0.00  0.00    +0.038 A 
ATOM     12  C   UNL     1       3.706  -3.861   6.484  0.00  0.00    +0.123 A 
ATOM     13  C   UNL     1       3.404  -4.871   5.586  0.00  0.00    +0.038 A 
ATOM     14  C   UNL     1       3.053  -4.558   4.287  0.00  0.00    +0.008 A 
ATOM     15  F   UNL     1       4.045  -4.166   7.755  0.00  0.00    -0.205 F 
ENDBRANCH   8   9
ENDBRANCH   5   8
ENDBRANCH   1   2
BRANCH   1  16
ATOM     16  C   UNL     1      -2.778  -2.345  -0.170  0.00  0.00    +0.233 C 
ATOM     17  O   UNL     1      -3.240  -2.897   0.806  0.00  0.00    -0.274 OA
ATOM     18  N   UNL     1      -3.551  -2.137  -1.255  0.00  0.00    -0.315 N 
ATOM     19  H   UNL     1      -3.182  -1.695  -2.035  0.00  0.00    +0.149 HD
BRANCH  18  20
ATOM     20  C   UNL     1      -4.948  -2.577  -1.254  0.00  0.00    +0.093 C 
BRANCH  20  21
ATOM     21  C   UNL     1      -5.626  -2.124  -2.549  0.00  0.00    -0.020 C 
BRANCH  21  22
ATOM     22  C   UNL     1      -4.977  -2.811  -3.723  0.00  0.00    -0.052 A 
ATOM     23  C   UNL     1      -4.033  -2.152  -4.487  0.00  0.00    +0.009 A 
ATOM     24  C   UNL     1      -3.468  -2.799  -5.536  0.00  0.00    +0.045 A 
ATOM     25  S   UNL     1      -4.275  -4.390  -5.467  0.00  0.00    -0.105 S 
ATOM     26  C   UNL     1      -5.306  -4.087  -4.041  0.00  0.00    +0.047 A 
ENDBRANCH  21  22
BRANCH  21  27
ATOM     27  N   UNL     1      -7.052  -2.475  -2.504  0.00  0.00    +0.382 N 
ATOM     28  C   UNL     1      -7.682  -1.814  -1.353  0.00  0.00    -0.096 C 
ATOM     29  C   UNL     1      -7.705  -2.030  -3.742  0.00  0.00    -0.096 C 
ATOM     30  H   UNL     1      -7.149  -3.475  -2.412  0.00  0.00    -0.082 HD
ENDBRANCH  21  27
ENDBRANCH  20  21
ENDBRANCH  18  20
ENDBRANCH   1  16
BRANCH   1  31
ATOM     31  C   UNL     1      -1.284  -0.377  -0.380  0.00  0.00    +0.031 C 
BRANCH  31  33
ATOM     32  C   UNL     1       0.233   1.580  -0.714  0.00  0.00    +0.004 C 
ATOM     33  C   UNL     1       0.175   0.066  -0.504  0.00  0.00    -0.001 C 
ENDBRANCH  31  33
ENDBRANCH   1  31
TORSDOF 10
