REMARK  Name = ZINC41624461
REMARK  7 active torsions:
REMARK  status: ('A' for Active; 'I' for Inactive)
REMARK    1  A    between atoms: C_1  and  O_2
REMARK    2  A    between atoms: O_2  and  C_3
REMARK    3  A    between atoms: C_3  and  C_5
REMARK    4  A    between atoms: N_16  and  C_17
REMARK    5  A    between atoms: C_17  and  C_18
REMARK    6  A    between atoms: N_20  and  C_21
REMARK    7  A    between atoms: C_22  and  C_26
REMARK                            x       y       z     vdW  Elec       q    Type
REMARK                         _______ _______ _______ _____ _____    ______ ____
ROOT
ATOM      1  C   UNL     1       0.458  -3.260  -3.236  0.00  0.00    +0.020 C 
ENDROOT
BRANCH   1  10
ATOM      2  C   UNL     1       0.657  -2.104  -1.120  0.00  0.00    +0.044 C 
ATOM      3  C   UNL     1       1.461  -2.664   0.086  0.00  0.00    -0.002 C 
ATOM      4  C   UNL     1       2.858  -2.853  -0.526  0.00  0.00    -0.026 C 
ATOM      5  C   UNL     1       3.720  -3.911   0.140  0.00  0.00    +0.002 C 
ATOM      6  C   UNL     1       5.010  -4.036  -0.687  0.00  0.00    +0.000 C 
ATOM      7  C   UNL     1       4.711  -4.403  -2.138  0.00  0.00    -0.002 C 
ATOM      8  C   UNL     1       3.728  -3.408  -2.776  0.00  0.00    -0.015 C 
ATOM      9  C   UNL     1       2.474  -3.384  -1.935  0.00  0.00    -0.064 C 
ATOM     10  N   UNL     1       1.372  -2.520  -2.355  0.00  0.00    +0.396 N 
ATOM     11  H   UNL     1       1.733  -1.708  -2.833  0.00  0.00    -0.080 HD
BRANCH   2  12
ATOM     12  C   UNL     1       0.598  -0.600  -1.043  0.00  0.00    +0.293 C 
ATOM     13  O   UNL     1       1.088   0.070  -1.921  0.00  0.00    -0.253 OA
BRANCH  12  15
ATOM     14  C   UNL     1      -0.017   1.425   0.010  0.00  0.00    +0.280 C 
ATOM     15  O   UNL     1       0.002  -0.004   0.002  0.00  0.00    -0.469 OA
ENDBRANCH  12  15
ENDBRANCH   2  12
ENDBRANCH   1  10
BRANCH   1  16
ATOM     16  C   UNL     1      -0.620  -2.332  -3.735  0.00  0.00    +0.201 C 
ATOM     17  O   UNL     1      -0.627  -1.169  -3.390  0.00  0.00    -0.278 OA
ATOM     18  N   UNL     1      -1.577  -2.795  -4.564  0.00  0.00    -0.281 N 
ATOM     19  H   UNL     1      -1.571  -3.725  -4.839  0.00  0.00    +0.155 HD
BRANCH  18  20
ATOM     20  C   UNL     1      -2.569  -1.942  -5.022  0.00  0.00    +0.084 A 
ATOM     21  C   UNL     1      -3.627  -2.240  -5.868  0.00  0.00    +0.065 A 
ATOM     22  C   UNL     1      -4.523  -1.154  -6.190  0.00  0.00    +0.022 A 
ATOM     23  C   UNL     1      -4.230   0.034  -5.630  0.00  0.00    +0.048 A 
ATOM     24  S   UNL     1      -2.769  -0.312  -4.676  0.00  0.00    -0.081 S 
BRANCH  21  25
ATOM     25  C   UNL     1      -3.825  -3.589  -6.408  0.00  0.00    +0.244 C 
ATOM     26  O   UNL     1      -3.050  -4.481  -6.116  0.00  0.00    -0.270 OA
ATOM     27  N   UNL     1      -4.865  -3.841  -7.227  0.00  0.00    -0.325 N 
ATOM     28  H   UNL     1      -5.483  -3.130  -7.459  0.00  0.00    +0.145 HD
ATOM     29  H   UNL     1      -4.996  -4.734  -7.584  0.00  0.00    +0.145 HD
ENDBRANCH  21  25
ENDBRANCH  18  20
ENDBRANCH   1  16
TORSDOF 6
