REMARK  Name = ZINC36862331
REMARK  8 active torsions:
REMARK  status: ('A' for Active; 'I' for Inactive)
REMARK    1  A    between atoms: C_1  and  C_2
REMARK    2  A    between atoms: C_6  and  C_20
REMARK    3  A    between atoms: C_7  and  N_8
REMARK    4  A    between atoms: C_9  and  C_11
REMARK    5  A    between atoms: C_13  and  N_19
REMARK    6  A    between atoms: N_15  and  C_16
REMARK    7  A    between atoms: C_16  and  C_17
REMARK    8  A    between atoms: C_16  and  C_18
REMARK                            x       y       z     vdW  Elec       q    Type
REMARK                         _______ _______ _______ _____ _____    ______ ____
ROOT
ATOM      1  N   UNL     1       1.990  -0.058   2.771  0.00  0.00    -0.280 N 
ATOM      2  C   UNL     1       1.371  -0.605   3.837  0.00  0.00    +0.265 C 
ATOM      3  O   UNL     1       1.247  -1.813   3.914  0.00  0.00    -0.268 OA
ATOM      4  H   UNL     1       2.167   0.895   2.750  0.00  0.00    +0.155 HD
ENDROOT
BRANCH   1  11
ATOM      5  C   UNL     1       4.750  -0.687   2.485  0.00  0.00    +0.046 C 
ATOM      6  C   UNL     1       3.712  -1.196   1.518  0.00  0.00    -0.028 A 
ATOM      7  C   UNL     1       4.088  -1.998   0.458  0.00  0.00    +0.020 A 
ATOM      8  C   UNL     1       3.136  -2.466  -0.429  0.00  0.00    +0.018 A 
ATOM      9  C   UNL     1       1.804  -2.133  -0.258  0.00  0.00    +0.020 A 
ATOM     10  C   UNL     1       1.421  -1.332   0.800  0.00  0.00    -0.028 A 
ATOM     11  C   UNL     1       2.374  -0.865   1.696  0.00  0.00    +0.040 A 
ATOM     12  C   UNL     1      -0.029  -0.969   0.985  0.00  0.00    +0.046 C 
ATOM     13 BR   UNL     1       3.655  -3.563  -1.880  0.00  0.00    -0.050 Br
ENDBRANCH   1  11
BRANCH   2  14
ATOM     14  C   UNL     1       0.849   0.256   4.902  0.00  0.00    +0.107 A 
ATOM     15  C   UNL     1       0.461  -0.152   6.162  0.00  0.00    +0.055 A 
ATOM     16  C   UNL     1       0.029   0.989   6.851  0.00  0.00    +0.043 A 
ATOM     17  C   UNL     1       0.159   2.052   6.015  0.00  0.00    +0.109 A 
ATOM     18  N   UNL     1       0.662   1.617   4.829  0.00  0.00    -0.339 N 
BRANCH  18  19
ATOM     19  C   UNL     1       0.954   2.457   3.665  0.00  0.00    +0.081 C 
ATOM     20  C   UNL     1       0.022   3.671   3.666  0.00  0.00    +0.030 C 
ATOM     21  C   UNL     1       2.407   2.930   3.728  0.00  0.00    +0.030 C 
ENDBRANCH  18  19
BRANCH  16  22
ATOM     22  N   UNL     1      -0.453   1.028   8.173  0.00  0.00    -0.357 N 
ATOM     23  H   UNL     1      -0.508   0.210   8.693  0.00  0.00    +0.142 HD
ATOM     24  H   UNL     1      -0.730   1.871   8.564  0.00  0.00    +0.142 HD
ENDBRANCH  16  22
ENDBRANCH   2  14
TORSDOF 4
