REMARK  Name = ZINC39387678
REMARK  7 active torsions:
REMARK  status: ('A' for Active; 'I' for Inactive)
REMARK    1  A    between atoms: C_1  and  C_2
REMARK    2  A    between atoms: C_5  and  C_7
REMARK    3  A    between atoms: C_11  and  C_14
REMARK    4  A    between atoms: C_14  and  C_15
REMARK    5  A    between atoms: C_15  and  C_16
REMARK    6  A    between atoms: N_18  and  C_19
REMARK    7  A    between atoms: C_19  and  C_20
REMARK                            x       y       z     vdW  Elec       q    Type
REMARK                         _______ _______ _______ _____ _____    ______ ____
ROOT
ATOM      1  C   UNL     1       2.170  -6.397   3.502  0.00  0.00    +0.099 C 
ENDROOT
BRANCH   1   2
ATOM      2  C   UNL     1       2.957  -6.603   4.770  0.00  0.00    +0.213 C 
ATOM      3  O   UNL     1       4.125  -6.283   4.818  0.00  0.00    -0.276 OA
ATOM      4  N   UNL     1       2.361  -7.142   5.853  0.00  0.00    -0.310 N 
ATOM      5  H   UNL     1       1.426  -7.397   5.814  0.00  0.00    +0.149 HD
BRANCH   4   6
ATOM      6  C   UNL     1       3.125  -7.342   7.086  0.00  0.00    +0.157 C 
BRANCH   6   7
ATOM      7  C   UNL     1       2.234  -7.955   8.136  0.00  0.00    +0.034 A 
ATOM      8  H   UNL     1       1.307  -6.289   8.974  0.00  0.00    +0.166 HD
ATOM      9  C   UNL     1       2.139  -9.269   8.394  0.00  0.00    +0.032 A 
ATOM     10  C   UNL     1       1.167  -9.422   9.479  0.00  0.00    -0.000 A 
ATOM     11  C   UNL     1       0.652 -10.519  10.172  0.00  0.00    +0.010 A 
ATOM     12  C   UNL     1      -0.270 -10.324  11.162  0.00  0.00    +0.001 A 
ATOM     13  C   UNL     1      -0.699  -9.044  11.483  0.00  0.00    +0.002 A 
ATOM     14  C   UNL     1      -0.204  -7.948  10.811  0.00  0.00    +0.026 A 
ATOM     15  C   UNL     1       0.735  -8.123   9.801  0.00  0.00    +0.047 A 
ATOM     16  N   UNL     1       1.407  -7.254   8.970  0.00  0.00    -0.357 N 
ENDBRANCH   6   7
ENDBRANCH   4   6
ENDBRANCH   1   2
BRANCH   1  17
ATOM     17  C   UNL     1       3.075  -5.774   2.436  0.00  0.00    +0.058 C 
BRANCH  17  21
ATOM     18  C   UNL     1       1.043  -4.062  -0.027  0.00  0.00    +0.240 C 
ATOM     19  N   UNL     1       2.366  -4.107  -0.692  0.00  0.00    -0.223 NA
ATOM     20  N   UNL     1       3.161  -5.076   0.065  0.00  0.00    -0.227 NA
ATOM     21  C   UNL     1       2.276  -5.566   1.148  0.00  0.00    +0.202 C 
ATOM     22  O   UNL     1       1.297  -4.515   1.322  0.00  0.00    -0.337 OA
ATOM     23  H   UNL     1       2.804  -3.198  -0.687  0.00  0.00    +0.144 HD
ATOM     24  H   UNL     1       3.991  -4.645   0.444  0.00  0.00    +0.143 HD
BRANCH  18  29
ATOM     25  C   UNL     1      -0.018   1.503   0.010  0.00  0.00    +0.051 C 
ATOM     26  C   UNL     1       0.002  -0.004   0.002  0.00  0.00    -0.013 A 
ATOM     27  C   UNL     1      -1.039  -0.872   0.002  0.00  0.00    +0.011 A 
ATOM     28  C   UNL     1      -0.780  -2.230  -0.007  0.00  0.00    +0.015 A 
ATOM     29  C   UNL     1       0.507  -2.653  -0.016  0.00  0.00    +0.034 A 
ATOM     30  S   UNL     1       1.404  -1.109  -0.018  0.00  0.00    -0.094 S 
ENDBRANCH  18  29
ENDBRANCH  17  21
ENDBRANCH   1  17
TORSDOF 6
