REMARK  Name = ZINC09408761
REMARK  4 active torsions:
REMARK  status: ('A' for Active; 'I' for Inactive)
REMARK    1  A    between atoms: C_12  and  N_55
REMARK    2  A    between atoms: C_18  and  N_20
REMARK    3  A    between atoms: N_20  and  S_21
REMARK    4  A    between atoms: S_21  and  C_24
REMARK                            x       y       z     vdW  Elec       q    Type
REMARK                         _______ _______ _______ _____ _____    ______ ____
ROOT
ATOM      1  C   UNL     1       2.133   1.562  -1.259  0.00  0.00    -0.050 C 
ATOM      2  C   UNL     1       1.316   2.323  -0.213  0.00  0.00    -0.014 C 
ATOM      3  C   UNL     1      -0.119   1.794  -0.202  0.00  0.00    -0.001 C 
ATOM      4  C   UNL     1      -0.110   0.303   0.143  0.00  0.00    +0.001 C 
ATOM      5  C   UNL     1       0.706  -0.458  -0.903  0.00  0.00    +0.019 C 
ATOM      6  C   UNL     1       2.142   0.071  -0.914  0.00  0.00    +0.063 C 
ENDROOT
BRANCH   1  18
ATOM      7  C   UNL     1       9.544   4.885  -2.384  0.00  0.00    +0.039 A 
ATOM      8  C   UNL     1       8.467   5.758  -2.394  0.00  0.00    +0.116 A 
ATOM      9  N   UNL     1       7.239   5.267  -2.384  0.00  0.00    -0.223 NA
ATOM     10  C   UNL     1       7.033   3.959  -2.365  0.00  0.00    +0.218 A 
ATOM     11  N   UNL     1       8.040   3.098  -2.349  0.00  0.00    -0.223 NA
ATOM     12  C   UNL     1       9.292   3.522  -2.364  0.00  0.00    +0.116 A 
ATOM     13  N   UNL     1       5.734   3.479  -2.355  0.00  0.00    -0.303 N 
ATOM     14  C   UNL     1       5.715   2.010  -2.334  0.00  0.00    +0.089 C 
ATOM     15  C   UNL     1       4.267   1.520  -2.404  0.00  0.00    -0.059 C 
ATOM     16  C   UNL     1       3.530   3.540  -1.291  0.00  0.00    -0.059 C 
ATOM     17  C   UNL     1       4.979   4.029  -1.221  0.00  0.00    +0.089 C 
ATOM     18  N   UNL     1       3.524   2.062  -1.246  0.00  0.00    +0.385 N 
ATOM     19  H   UNL     1       3.982   1.753  -0.381  0.00  0.00    -0.081 HD
ENDBRANCH   1  18
BRANCH   6  20
ATOM     20  N   UNL     1       2.743  -0.120   0.409  0.00  0.00    -0.188 NA
ATOM     21  H   UNL     1       2.603   0.541   1.105  0.00  0.00    +0.148 HD
BRANCH  20  22
ATOM     22  S   UNL     1       3.661  -1.464   0.715  0.00  0.00    +0.059 S 
ATOM     23  O   UNL     1       4.117  -1.347   2.055  0.00  0.00    -0.153 OA
ATOM     24  O   UNL     1       2.909  -2.581   0.260  0.00  0.00    -0.153 OA
BRANCH  22  25
ATOM     25  C   UNL     1       5.088  -1.365  -0.314  0.00  0.00    +0.105 A 
ATOM     26  C   UNL     1       5.069  -1.924  -1.578  0.00  0.00    +0.030 A 
ATOM     27  C   UNL     1       6.186  -1.842  -2.387  0.00  0.00    +0.022 A 
ATOM     28  C   UNL     1       7.328  -1.209  -1.928  0.00  0.00    +0.041 A 
ATOM     29  C   UNL     1       7.348  -0.655  -0.660  0.00  0.00    +0.022 A 
ATOM     30  C   UNL     1       6.228  -0.733   0.146  0.00  0.00    +0.030 A 
ATOM     31 CL   UNL     1       8.734  -1.113  -2.941  0.00  0.00    -0.084 Cl
ENDBRANCH  22  25
ENDBRANCH  20  22
ENDBRANCH   6  20
TORSDOF 4
