REMARK  Name = ZINC03143754
REMARK  9 active torsions:
REMARK  status: ('A' for Active; 'I' for Inactive)
REMARK    1  A    between atoms: C_4  and  C_7
REMARK    2  A    between atoms: N_9  and  C_10
REMARK    3  A    between atoms: C_10  and  C_19
REMARK    4  A    between atoms: C_11  and  C_12
REMARK    5  A    between atoms: C_17  and  O_18
REMARK    6  A    between atoms: N_21  and  N_22
REMARK    7  A    between atoms: C_23  and  C_24
REMARK    8  A    between atoms: C_27  and  C_29
REMARK    9  A    between atoms: C_32  and  N_35
REMARK                            x       y       z     vdW  Elec       q    Type
REMARK                         _______ _______ _______ _____ _____    ______ ____
ROOT
ATOM      1  C   UNL     1      -6.111   6.247   0.176  0.00  0.00    +0.098 C 
ATOM      2  C   UNL     1      -5.773   7.566   0.193  0.00  0.00    +0.040 C 
ENDROOT
BRANCH   2   3
ATOM      3  C   UNL     1      -4.367   7.963   0.082  0.00  0.00    +0.018 A 
ATOM      4  C   UNL     1      -3.484   7.219  -0.712  0.00  0.00    +0.011 A 
ATOM      5  C   UNL     1      -2.165   7.602  -0.814  0.00  0.00    +0.001 A 
ATOM      6  C   UNL     1      -1.704   8.715  -0.128  0.00  0.00    +0.004 A 
ATOM      7  C   UNL     1      -2.561   9.456   0.663  0.00  0.00    +0.046 A 
ATOM      8  C   UNL     1      -3.893   9.091   0.776  0.00  0.00    +0.124 A 
BRANCH   8   9
ATOM      9  O   UNL     1      -4.736   9.819   1.552  0.00  0.00    -0.506 OA
ATOM     10  H   UNL     1      -4.782   9.519   2.470  0.00  0.00    +0.292 HD
ENDBRANCH   8   9
ENDBRANCH   2   3
BRANCH   1  13
ATOM     11  C   UNL     1      -7.793   4.570   0.236  0.00  0.00    +0.248 C 
ATOM     12  O   UNL     1      -6.934   3.730   0.425  0.00  0.00    -0.270 OA
ATOM     13  N   UNL     1      -7.455   5.872   0.149  0.00  0.00    -0.277 N 
ATOM     14  H   UNL     1      -8.146   6.547   0.067  0.00  0.00    +0.155 HD
BRANCH  11  18
ATOM     15  C   UNL     1     -11.858   3.400  -0.149  0.00  0.00    +0.000 A 
ATOM     16  C   UNL     1     -10.883   2.442   0.066  0.00  0.00    +0.001 A 
ATOM     17  C   UNL     1      -9.561   2.815   0.192  0.00  0.00    +0.013 A 
ATOM     18  C   UNL     1      -9.208   4.162   0.102  0.00  0.00    +0.037 A 
ATOM     19  C   UNL     1     -10.197   5.124  -0.109  0.00  0.00    +0.013 A 
ATOM     20  C   UNL     1     -11.515   4.737  -0.239  0.00  0.00    +0.001 A 
ENDBRANCH  11  18
ENDBRANCH   1  13
BRANCH   1  21
ATOM     21  C   UNL     1      -5.065   5.223   0.186  0.00  0.00    +0.277 C 
ATOM     22  O   UNL     1      -4.864   4.548  -0.806  0.00  0.00    -0.267 OA
ATOM     23  N   UNL     1      -4.324   5.027   1.295  0.00  0.00    -0.202 N 
ATOM     24  H   UNL     1      -4.531   5.513   2.109  0.00  0.00    +0.178 HD
BRANCH  23  25
ATOM     25  N   UNL     1      -3.339   4.194   1.275  0.00  0.00    -0.184 NA
ATOM     26  C   UNL     1      -2.672   3.926   2.392  0.00  0.00    +0.176 C 
BRANCH  26  27
ATOM     27  C   UNL     1      -1.682   2.954   2.393  0.00  0.00    +0.148 A 
ATOM     28  C   UNL     1      -0.862   2.547   3.542  0.00  0.00    +0.051 A 
ATOM     29  C   UNL     1      -0.029   1.573   3.091  0.00  0.00    +0.050 A 
ATOM     30  C   UNL     1      -0.310   1.373   1.720  0.00  0.00    +0.136 A 
ATOM     31  O   UNL     1      -1.290   2.209   1.336  0.00  0.00    -0.454 OA
BRANCH  30  32
ATOM     32  C   UNL     1       0.365   0.410   0.852  0.00  0.00    +0.017 A 
ATOM     33  C   UNL     1       1.389  -0.408   1.363  0.00  0.00    +0.014 A 
ATOM     34  C   UNL     1       2.012  -1.312   0.541  0.00  0.00    +0.033 A 
ATOM     35  C   UNL     1       1.643  -1.413  -0.792  0.00  0.00    +0.126 A 
ATOM     36  C   UNL     1       0.640  -0.607  -1.308  0.00  0.00    +0.033 A 
ATOM     37  C   UNL     1      -0.000   0.300  -0.503  0.00  0.00    +0.014 A 
BRANCH  35  38
ATOM     38  N   UNL     1       2.327  -2.389  -1.671  0.00  0.00    +0.056 N 
ATOM     39  O   UNL     1       1.981  -2.489  -2.938  0.00  0.00    -0.126 OA
ATOM     40  O   UNL     1       3.280  -3.157  -1.186  0.00  0.00    -0.126 OA
ENDBRANCH  35  38
ENDBRANCH  30  32
ENDBRANCH  26  27
ENDBRANCH  23  25
ENDBRANCH   1  21
TORSDOF 9
