REMARK  Name = ZINC63824837
REMARK  10 active torsions:
REMARK  status: ('A' for Active; 'I' for Inactive)
REMARK    1  A    between atoms: C_1  and  C_2
REMARK    2  A    between atoms: C_4  and  C_12
REMARK    3  A    between atoms: C_12  and  C_14
REMARK    4  A    between atoms: C_14  and  C_16
REMARK    5  A    between atoms: C_14  and  S_17
REMARK    6  A    between atoms: S_17  and  C_18
REMARK    7  A    between atoms: C_21  and  C_23
REMARK    8  A    between atoms: C_23  and  C_25
REMARK    9  A    between atoms: C_23  and  O_26
REMARK   10  A    between atoms: O_26  and  C_27
REMARK                            x       y       z     vdW  Elec       q    Type
REMARK                         _______ _______ _______ _____ _____    ______ ____
ROOT
ATOM      1  S   UNL     1       0.544  -1.304  -4.816  0.00  0.00    -0.055 S 
ENDROOT
BRANCH   1   2
ATOM      2  C   UNL     1       1.601  -1.855  -6.114  0.00  0.00    +0.278 A 
ATOM      3  N   UNL     1       2.899  -2.030  -6.039  0.00  0.00    -0.101 NA
ATOM      4  N   UNL     1       3.340  -2.439  -7.176  0.00  0.00    -0.108 NA
ATOM      5  C   UNL     1       2.351  -2.542  -8.014  0.00  0.00    +0.258 A 
ATOM      6  O   UNL     1       1.226  -2.182  -7.365  0.00  0.00    -0.412 OA
BRANCH   5   7
ATOM      7  C   UNL     1       2.445  -2.989  -9.451  0.00  0.00    +0.257 C 
ATOM      8  C   UNL     1       3.045  -1.865 -10.296  0.00  0.00    +0.062 C 
BRANCH   7   9
ATOM      9  O   UNL     1       3.278  -4.147  -9.536  0.00  0.00    -0.480 OA
BRANCH   9  10
ATOM     10  C   UNL     1       3.109  -4.951 -10.619  0.00  0.00    +0.122 A 
ATOM     11  C   UNL     1       3.799  -6.151 -10.707  0.00  0.00    +0.048 A 
ATOM     12  C   UNL     1       3.625  -6.967 -11.808  0.00  0.00    +0.042 A 
ATOM     13  C   UNL     1       2.764  -6.588 -12.823  0.00  0.00    +0.124 A 
ATOM     14  C   UNL     1       2.075  -5.390 -12.737  0.00  0.00    +0.042 A 
ATOM     15  C   UNL     1       2.241  -4.575 -11.634  0.00  0.00    +0.048 A 
ATOM     16  F   UNL     1       2.595  -7.387 -13.900  0.00  0.00    -0.205 F 
ENDBRANCH   9  10
ENDBRANCH   7   9
ENDBRANCH   5   7
ENDBRANCH   1   2
BRANCH   1  17
ATOM     17  C   UNL     1       1.668  -1.042  -3.416  0.00  0.00    +0.123 C 
ATOM     18  C   UNL     1       2.637   0.095  -3.746  0.00  0.00    +0.028 C 
BRANCH  17  19
ATOM     19  C   UNL     1       0.868  -0.681  -2.191  0.00  0.00    +0.175 C 
ATOM     20  O   UNL     1      -0.233  -0.181  -2.310  0.00  0.00    -0.291 OA
BRANCH  19  23
ATOM     21  C   UNL     1       0.299   0.733   0.602  0.00  0.00    +0.035 C 
ATOM     22  C   UNL     1       0.699  -0.733   0.423  0.00  0.00    +0.111 C 
ATOM     23  C   UNL     1       1.398  -0.923  -0.906  0.00  0.00    +0.027 C 
ATOM     24  C   UNL     1       2.664  -1.385  -0.597  0.00  0.00    +0.006 A 
ATOM     25  C   UNL     1       3.778  -1.746  -1.392  0.00  0.00    +0.010 A 
ATOM     26  C   UNL     1       4.920  -2.176  -0.810  0.00  0.00    +0.001 A 
ATOM     27  C   UNL     1       5.061  -2.285   0.583  0.00  0.00    +0.002 A 
ATOM     28  C   UNL     1       4.059  -1.966   1.430  0.00  0.00    +0.026 A 
ATOM     29  C   UNL     1       2.780  -1.489   0.879  0.00  0.00    +0.043 A 
ATOM     30  N   UNL     1       1.669  -1.121   1.452  0.00  0.00    -0.377 N 
ATOM     31  H   UNL     1       1.508  -1.105   2.409  0.00  0.00    +0.160 HD
ENDBRANCH  19  23
ENDBRANCH  17  19
ENDBRANCH   1  17
TORSDOF 7
