REMARK  Name = ZINC21777228
REMARK  8 active torsions:
REMARK  status: ('A' for Active; 'I' for Inactive)
REMARK    1  A    between atoms: C_1  and  C_2
REMARK    2  A    between atoms: N_4  and  C_5
REMARK    3  A    between atoms: C_5  and  C_7
REMARK    4  A    between atoms: C_5  and  C_18
REMARK    5  A    between atoms: C_7  and  C_8
REMARK    6  A    between atoms: N_20  and  N_21
REMARK    7  A    between atoms: C_22  and  C_24
REMARK    8  A    between atoms: C_26  and  C_34
REMARK                            x       y       z     vdW  Elec       q    Type
REMARK                         _______ _______ _______ _____ _____    ______ ____
ROOT
ATOM      1  C   UNL     1       5.669   0.428   1.430  0.00  0.00    +0.250 C 
ATOM      2  O   UNL     1       6.402   1.391   1.507  0.00  0.00    -0.272 OA
ATOM      3  N   UNL     1       6.191  -0.811   1.342  0.00  0.00    -0.233 N 
ATOM      4  H   UNL     1       5.526  -1.684   1.271  0.00  0.00    +0.173 HD
ENDROOT
BRANCH   3   5
ATOM      5  N   UNL     1       7.581  -0.987   1.340  0.00  0.00    -0.230 N 
ATOM      6  C   UNL     1       8.103  -2.227   1.252  0.00  0.00    +0.261 C 
ATOM      7  O   UNL     1       7.368  -3.192   1.174  0.00  0.00    -0.269 OA
ATOM      8  H   UNL     1       8.246  -0.114   1.410  0.00  0.00    +0.173 HD
BRANCH   6   9
ATOM      9  C   UNL     1       9.570  -2.413   1.250  0.00  0.00    +0.049 A 
ATOM     10  C   UNL     1      10.434  -1.329   1.220  0.00  0.00    +0.042 A 
ATOM     11  C   UNL     1      11.822  -1.552   1.224  0.00  0.00    +0.079 A 
ATOM     12  N   UNL     1      12.339  -2.766   1.246  0.00  0.00    -0.246 NA
ATOM     13  C   UNL     1      11.580  -3.863   1.271  0.00  0.00    +0.072 A 
ATOM     14  C   UNL     1      10.167  -3.749   1.274  0.00  0.00    +0.013 A 
ATOM     15  C   UNL     1       9.376  -4.902   1.298  0.00  0.00    +0.011 A 
ATOM     16  C   UNL     1       9.973  -6.128   1.320  0.00  0.00    +0.001 A 
ATOM     17  C   UNL     1      11.361  -6.247   1.317  0.00  0.00    +0.002 A 
ATOM     18  C   UNL     1      12.160  -5.145   1.293  0.00  0.00    +0.028 A 
BRANCH  11  19
ATOM     19  C   UNL     1      12.730  -0.391   1.198  0.00  0.00    +0.038 A 
ATOM     20  C   UNL     1      14.102  -0.366   1.198  0.00  0.00    +0.017 A 
ATOM     21  C   UNL     1      14.741   0.852   1.166  0.00  0.00    +0.008 A 
ATOM     22  C   UNL     1      13.998   1.990   1.147  0.00  0.00    +0.046 A 
ATOM     23  S   UNL     1      12.332   1.349   1.166  0.00  0.00    -0.095 S 
ENDBRANCH  11  19
ENDBRANCH   6   9
ENDBRANCH   3   5
BRANCH   1  24
ATOM     24  C   UNL     1       4.174   0.618   1.432  0.00  0.00    +0.165 C 
BRANCH  24  28
ATOM     25  C   UNL     1       3.983   4.398   2.004  0.00  0.00    +0.109 C 
ATOM     26  C   UNL     1       4.318   3.050   1.420  0.00  0.00    +0.211 C 
ATOM     27  O   UNL     1       5.010   2.975   0.426  0.00  0.00    -0.276 OA
ATOM     28  N   UNL     1       3.848   1.928   2.000  0.00  0.00    -0.304 N 
ATOM     29  H   UNL     1       3.221   1.996   2.901  0.00  0.00    +0.149 HD
ENDBRANCH  24  28
BRANCH  24  30
ATOM     30  C   UNL     1       3.648   0.539  -0.003  0.00  0.00    +0.069 C 
BRANCH  30  31
ATOM     31  C   UNL     1       2.142   0.606   0.009  0.00  0.00    -0.020 A 
ATOM     32  C   UNL     1       1.297  -0.437  -0.002  0.00  0.00    +0.087 A 
ATOM     33  N   UNL     1       0.004   0.011   0.016  0.00  0.00    -0.360 N 
ATOM     34  H   UNL     1      -0.827  -0.710   0.011  0.00  0.00    +0.165 HD
ATOM     35  C   UNL     1      -0.015   1.387   0.040  0.00  0.00    +0.047 A 
ATOM     36  C   UNL     1       1.324   1.821   0.037  0.00  0.00    +0.003 A 
ATOM     37  C   UNL     1       1.614   3.186   0.059  0.00  0.00    +0.010 A 
ATOM     38  C   UNL     1       0.595   4.096   0.083  0.00  0.00    +0.001 A 
ATOM     39  C   UNL     1      -0.727   3.674   0.086  0.00  0.00    +0.002 A 
ATOM     40  C   UNL     1      -1.036   2.331   0.070  0.00  0.00    +0.026 A 
ENDBRANCH  30  31
ENDBRANCH  24  30
ENDBRANCH   1  24
TORSDOF 7
