REMARK  Name = ZINC02170045
REMARK  12 active torsions:
REMARK  status: ('A' for Active; 'I' for Inactive)
REMARK    1  A    between atoms: C_1  and  C_2
REMARK    2  A    between atoms: C_2  and  C_36
REMARK    3  A    between atoms: C_6  and  C_21
REMARK    4  A    between atoms: C_8  and  C_19
REMARK    5  A    between atoms: C_9  and  N_18
REMARK    6  A    between atoms: N_10  and  N_11
REMARK    7  A    between atoms: N_11  and  C_12
REMARK    8  A    between atoms: C_24  and  O_29
REMARK    9  A    between atoms: C_25  and  O_27
REMARK   10  A    between atoms: O_27  and  C_28
REMARK   11  A    between atoms: O_29  and  C_30
REMARK   12  A    between atoms: C_30  and  C_31
REMARK                            x       y       z     vdW  Elec       q    Type
REMARK                         _______ _______ _______ _____ _____    ______ ____
ROOT
ATOM      1  C   UNL     1       0.065   1.960   0.111  0.00  0.00    +0.011 C 
ATOM      2  C   UNL     1      -0.063   0.443  -0.035  0.00  0.00    -0.023 C 
ATOM      3  C   UNL     1       0.601  -0.007  -1.339  0.00  0.00    +0.060 C 
ATOM      4  C   UNL     1       2.069   0.341  -1.306  0.00  0.00    +0.040 C 
ATOM      5  C   UNL     1       2.750   0.369  -0.141  0.00  0.00    +0.026 C 
ATOM      6  C   UNL     1       4.217   0.717  -0.109  0.00  0.00    +0.098 C 
ATOM      7  C   UNL     1       4.835   0.583  -1.470  0.00  0.00    +0.078 C 
ATOM      8  C   UNL     1       4.065   0.547  -2.589  0.00  0.00    +0.119 C 
ATOM      9  N   UNL     1       2.697   0.625  -2.488  0.00  0.00    -0.211 N 
ATOM     10  C   UNL     1       2.113   0.079   1.079  0.00  0.00    +0.162 C 
ATOM     11  O   UNL     1       2.759   0.095   2.108  0.00  0.00    -0.292 OA
ATOM     12  C   UNL     1       0.646  -0.249   1.133  0.00  0.00    +0.086 C 
ATOM     13  C   UNL     1      -1.542   0.050  -0.045  0.00  0.00    +0.011 C 
ENDROOT
BRANCH   6  14
ATOM     14  C   UNL     1       4.378   2.137   0.368  0.00  0.00    -0.031 A 
ATOM     15  C   UNL     1       3.874   3.180  -0.388  0.00  0.00    +0.008 A 
ATOM     16  C   UNL     1       4.019   4.484   0.046  0.00  0.00    +0.050 A 
ATOM     17  C   UNL     1       4.670   4.750   1.240  0.00  0.00    +0.162 A 
ATOM     18  C   UNL     1       5.177   3.700   2.001  0.00  0.00    +0.162 A 
ATOM     19  C   UNL     1       5.024   2.394   1.563  0.00  0.00    +0.054 A 
BRANCH  18  20
ATOM     20  O   UNL     1       5.817   3.955   3.173  0.00  0.00    -0.491 OA
ATOM     21  C   UNL     1       6.311   2.829   3.901  0.00  0.00    +0.277 C 
ENDBRANCH  18  20
BRANCH  17  22
ATOM     22  O   UNL     1       4.814   6.032   1.667  0.00  0.00    -0.484 OA
BRANCH  22  23
ATOM     23  C   UNL     1       4.270   7.059   0.835  0.00  0.00    +0.256 C 
BRANCH  23  24
ATOM     24  C   UNL     1       4.523   8.404   1.465  0.00  0.00    +0.006 C 
ATOM     25  C   UNL     1       4.959   9.399   0.733  0.00  0.00    +0.007 C 
ENDBRANCH  23  24
ENDBRANCH  22  23
ENDBRANCH  17  22
ENDBRANCH   6  14
BRANCH   8  26
ATOM     26  N   UNL     1       4.656   0.432  -3.824  0.00  0.00    -0.344 N 
ATOM     27  H   UNL     1       5.622   0.377  -3.897  0.00  0.00    +0.144 HD
ATOM     28  H   UNL     1       4.108   0.406  -4.624  0.00  0.00    +0.144 HD
ENDBRANCH   8  26
BRANCH   9  29
ATOM     29  N   UNL     1       1.938   0.999  -3.605  0.00  0.00    -0.259 N 
ATOM     30  H   UNL     1       1.587   1.900  -3.674  0.00  0.00    +0.171 HD
BRANCH  29  31
ATOM     31  C   UNL     1       1.687   0.073  -4.620  0.00  0.00    +0.045 A 
ATOM     32  C   UNL     1       2.086  -1.249  -4.471  0.00  0.00    +0.024 A 
ATOM     33  C   UNL     1       1.836  -2.163  -5.476  0.00  0.00    +0.002 A 
ATOM     34  C   UNL     1       1.189  -1.762  -6.631  0.00  0.00    +0.000 A 
ATOM     35  C   UNL     1       0.790  -0.447  -6.783  0.00  0.00    +0.002 A 
ATOM     36  C   UNL     1       1.032   0.470  -5.779  0.00  0.00    +0.024 A 
ENDBRANCH  29  31
ENDBRANCH   9  29
BRANCH   7  37
ATOM     37  C   UNL     1       6.259   0.492  -1.591  0.00  0.00    +0.099 C 
ATOM     38  N   UNL     1       7.388   0.420  -1.687  0.00  0.00    -0.191 NA
ENDBRANCH   7  37
TORSDOF 9
