REMARK  Name = ZINC67299307
REMARK  6 active torsions:
REMARK  status: ('A' for Active; 'I' for Inactive)
REMARK    1  A    between atoms: C_1  and  C_2
REMARK    2  A    between atoms: C_7  and  N_8
REMARK    3  A    between atoms: C_10  and  C_20
REMARK    4  A    between atoms: C_15  and  O_19
REMARK    5  A    between atoms: N_22  and  C_23
REMARK    6  A    between atoms: C_23  and  C_24
REMARK                            x       y       z     vdW  Elec       q    Type
REMARK                         _______ _______ _______ _____ _____    ______ ____
ROOT
ATOM      1  N   UNL     1      -0.034  -0.012   2.392  0.00  0.00    -0.325 N 
ATOM      2  C   UNL     1      -0.094  -0.687   3.519  0.00  0.00    +0.212 A 
ATOM      3  C   UNL     1      -0.181   0.005   4.820  0.00  0.00    +0.097 A 
ATOM      4  C   UNL     1      -0.765  -0.686   5.872  0.00  0.00    +0.030 A 
ATOM      5  C   UNL     1      -1.208  -2.013   5.639  0.00  0.00    +0.018 A 
ATOM      6  C   UNL     1      -1.981  -2.683   6.600  0.00  0.00    +0.015 A 
ATOM      7  C   UNL     1      -2.436  -3.943   6.347  0.00  0.00    +0.046 A 
ATOM      8  C   UNL     1      -2.132  -4.577   5.144  0.00  0.00    +0.120 A 
ATOM      9  C   UNL     1      -1.353  -3.939   4.190  0.00  0.00    +0.092 A 
ATOM     10  C   UNL     1      -0.877  -2.661   4.433  0.00  0.00    +0.141 A 
ATOM     11  O   UNL     1      -0.084  -2.045   3.526  0.00  0.00    -0.438 OA
ATOM     12  H   UNL     1      -0.030   0.958   2.407  0.00  0.00    +0.169 HD
ENDROOT
BRANCH   1  19
ATOM     13  C   UNL     1      -1.894   0.731   0.377  0.00  0.00    +0.046 C 
ATOM     14  C   UNL     1      -0.868  -0.354   0.172  0.00  0.00    -0.024 A 
ATOM     15  C   UNL     1      -0.803  -1.025  -1.032  0.00  0.00    +0.043 A 
ATOM     16  C   UNL     1       0.140  -2.022  -1.222  0.00  0.00    +0.124 A 
ATOM     17  C   UNL     1       1.023  -2.352  -0.205  0.00  0.00    +0.040 A 
ATOM     18  C   UNL     1       0.967  -1.688   1.002  0.00  0.00    +0.029 A 
ATOM     19  C   UNL     1       0.022  -0.678   1.198  0.00  0.00    +0.045 A 
ATOM     20  F   UNL     1       0.200  -2.676  -2.402  0.00  0.00    -0.205 F 
ENDBRANCH   1  19
BRANCH   3  21
ATOM     21  C   UNL     1       0.332   1.373   4.995  0.00  0.00    +0.250 C 
ATOM     22  O   UNL     1       0.780   1.981   4.041  0.00  0.00    -0.270 OA
ATOM     23  N   UNL     1       0.304   1.954   6.211  0.00  0.00    -0.304 N 
ATOM     24  H   UNL     1      -0.114   1.496   6.957  0.00  0.00    +0.149 HD
BRANCH  23  25
ATOM     25  C   UNL     1       0.903   3.276   6.405  0.00  0.00    +0.179 C 
BRANCH  25  26
ATOM     26  C   UNL     1       0.739   3.695   7.844  0.00  0.00    +0.122 A 
ATOM     27  C   UNL     1       1.610   3.450   8.839  0.00  0.00    +0.046 A 
ATOM     28  C   UNL     1       1.062   4.017  10.012  0.00  0.00    +0.041 A 
ATOM     29  C   UNL     1      -0.111   4.575   9.664  0.00  0.00    +0.195 A 
ATOM     30  O   UNL     1      -0.299   4.382   8.348  0.00  0.00    -0.466 OA
ENDBRANCH  25  26
ENDBRANCH  23  25
ENDBRANCH   3  21
BRANCH   8  31
ATOM     31  O   UNL     1      -2.602  -5.827   4.903  0.00  0.00    -0.507 OA
ATOM     32  H   UNL     1      -3.466  -5.846   4.469  0.00  0.00    +0.292 HD
ENDBRANCH   8  31
TORSDOF 5
