REMARK  Name = ZINC36161401
REMARK  2 active torsions:
REMARK  status: ('A' for Active; 'I' for Inactive)
REMARK    1  A    between atoms: C_4  and  C_18
REMARK    2  A    between atoms: C_6  and  N_10
REMARK                            x       y       z     vdW  Elec       q    Type
REMARK                         _______ _______ _______ _____ _____    ______ ____
ROOT
ATOM      1  C   UNL     1       0.002   1.553   0.180  0.00  0.00    +0.000 C 
ATOM      2  C   UNL     1       1.443   2.033  -0.089  0.00  0.00    +0.001 C 
ATOM      3  C   UNL     1       2.195   2.041   1.214  0.00  0.00    +0.020 C 
ATOM      4  C   UNL     1       2.980   0.736   1.449  0.00  0.00    +0.109 C 
ATOM      5  C   UNL     1       2.183  -0.521   1.050  0.00  0.00    +0.074 C 
ATOM      6  C   UNL     1       0.740  -0.446   1.472  0.00  0.00    +0.020 C 
ATOM      7  C   UNL     1      -0.088   0.105   0.293  0.00  0.00    +0.002 C 
ENDROOT
BRANCH   5   8
ATOM      8  N   UNL     1       2.800  -1.695   1.679  0.00  0.00    -0.295 NA
ATOM      9  C   UNL     1       4.250  -1.701   1.472  0.00  0.00    +0.107 C 
ATOM     10  C   UNL     1       4.915  -2.652   2.472  0.00  0.00    +0.181 C 
ATOM     11  S   UNL     1       4.298  -4.336   2.169  0.00  0.00    -0.029 S 
ATOM     12  O   UNL     1       4.647  -5.153   3.278  0.00  0.00    -0.174 OA
ATOM     13  O   UNL     1       4.692  -4.734   0.863  0.00  0.00    -0.174 OA
ATOM     14  C   UNL     1       2.498  -4.077   2.183  0.00  0.00    +0.181 C 
ATOM     15  C   UNL     1       2.162  -2.932   1.222  0.00  0.00    +0.107 C 
ENDBRANCH   5   8
BRANCH   4  16
ATOM     16  C   UNL     1       3.327   0.641   2.876  0.00  0.00    +0.067 C 
ATOM     17  N   UNL     1       3.595   0.568   3.978  0.00  0.00    -0.196 NA
ENDBRANCH   4  16
TORSDOF 2
