REMARK  Name = ZINC40750266
REMARK  7 active torsions:
REMARK  status: ('A' for Active; 'I' for Inactive)
REMARK    1  A    between atoms: C_1  and  C_2
REMARK    2  A    between atoms: C_2  and  C_3
REMARK    3  A    between atoms: C_2  and  C_4
REMARK    4  A    between atoms: C_4  and  N_5
REMARK    5  A    between atoms: C_9  and  C_11
REMARK    6  A    between atoms: C_11  and  N_12
REMARK    7  A    between atoms: C_20  and  N_22
REMARK                            x       y       z     vdW  Elec       q    Type
REMARK                         _______ _______ _______ _____ _____    ______ ____
ROOT
ATOM      1  C   UNL     1      -0.629   0.205   7.422  0.00  0.00    +0.020 C 
ENDROOT
BRANCH   1   2
ATOM      2  N   UNL     1       0.112  -0.389   8.543  0.00  0.00    +0.389 N 
ATOM      3  C   UNL     1      -0.009  -1.871   8.525  0.00  0.00    -0.069 C 
ATOM      4  C   UNL     1      -1.428  -2.143   9.076  0.00  0.00    -0.017 C 
ATOM      5  C   UNL     1      -1.756  -0.911   9.946  0.00  0.00    -0.017 C 
ATOM      6  C   UNL     1      -0.507  -0.007   9.840  0.00  0.00    -0.069 C 
ATOM      7  C   UNL     1       0.470  -0.424  10.951  0.00  0.00    -0.032 C 
ATOM      8  C   UNL     1       0.610  -1.950  10.942  0.00  0.00    -0.078 C 
ATOM      9  C   UNL     1       1.015  -2.425   9.528  0.00  0.00    -0.032 C 
ATOM     10  H   UNL     1       1.081  -0.109   8.516  0.00  0.00    -0.080 HD
BRANCH   8  11
ATOM     11  N   UNL     1      -0.671  -2.560  11.322  0.00  0.00    +0.380 N 
ATOM     12  H   UNL     1      -1.384  -2.284  10.663  0.00  0.00    -0.090 HD
ATOM     13  H   UNL     1      -0.579  -3.565  11.318  0.00  0.00    -0.090 HD
ATOM     14  H   UNL     1      -0.930  -2.249  12.246  0.00  0.00    -0.090 HD
ENDBRANCH   8  11
ENDBRANCH   1   2
BRANCH   1  19
ATOM     15  N   UNL     1      -0.271   0.533   2.639  0.00  0.00    -0.299 N 
ATOM     16  C   UNL     1       0.229   0.084   3.808  0.00  0.00    +0.306 C 
ATOM     17  O   UNL     1       1.258  -0.562   3.820  0.00  0.00    -0.252 OA
ATOM     18  N   UNL     1      -0.412   0.353   4.962  0.00  0.00    -0.242 N 
ATOM     19  C   UNL     1       0.088  -0.095   6.131  0.00  0.00    +0.204 C 
ATOM     20  O   UNL     1       1.115  -0.740   6.143  0.00  0.00    -0.277 OA
ATOM     21  H   UNL     1      -1.092   1.048   2.629  0.00  0.00    +0.150 HD
ATOM     22  H   UNL     1      -1.233   0.869   4.952  0.00  0.00    +0.159 HD
BRANCH  15  23
ATOM     23  C   UNL     1       0.426   0.241   1.384  0.00  0.00    +0.108 C 
BRANCH  23  25
ATOM     24  C   UNL     1      -0.328   2.384   0.344  0.00  0.00    +0.009 C 
ATOM     25  C   UNL     1      -0.346   0.859   0.216  0.00  0.00    -0.000 C 
ATOM     26  C   UNL     1       0.312   0.451  -1.103  0.00  0.00    +0.009 C 
ENDBRANCH  23  25
ENDBRANCH  15  23
ENDBRANCH   1  19
TORSDOF 5
