REMARK  Name = ZINC16788225
REMARK  9 active torsions:
REMARK  status: ('A' for Active; 'I' for Inactive)
REMARK    1  A    between atoms: C_1  and  C_2
REMARK    2  A    between atoms: C_2  and  C_4
REMARK    3  A    between atoms: C_2  and  S_16
REMARK    4  A    between atoms: N_6  and  C_7
REMARK    5  A    between atoms: N_6  and  C_8
REMARK    6  A    between atoms: S_16  and  C_17
REMARK    7  A    between atoms: C_20  and  C_28
REMARK    8  A    between atoms: N_21  and  C_22
REMARK    9  A    between atoms: C_22  and  C_23
REMARK                            x       y       z     vdW  Elec       q    Type
REMARK                         _______ _______ _______ _____ _____    ______ ____
ROOT
ATOM      1  C   UNL     1      -0.062   1.360   0.134  0.00  0.00    +0.193 A 
ATOM      2  N   UNL     1      -0.086   0.052   0.257  0.00  0.00    -0.122 NA
ATOM      3  N   UNL     1       1.087  -0.432   0.059  0.00  0.00    -0.128 NA
ATOM      4  C   UNL     1       1.933   0.537  -0.203  0.00  0.00    +0.165 A 
ATOM      5  N   UNL     1       1.224   1.715  -0.162  0.00  0.00    -0.295 N 
ENDROOT
BRANCH   4   6
ATOM      6  C   UNL     1       3.377   0.391  -0.486  0.00  0.00    +0.019 A 
ATOM      7  C   UNL     1       4.227   1.493  -0.381  0.00  0.00    +0.013 A 
ATOM      8  C   UNL     1       5.574   1.348  -0.641  0.00  0.00    +0.021 A 
ATOM      9  C   UNL     1       6.081   0.116  -1.018  0.00  0.00    +0.041 A 
ATOM     10  C   UNL     1       5.242  -0.980  -1.129  0.00  0.00    +0.021 A 
ATOM     11  C   UNL     1       3.894  -0.849  -0.866  0.00  0.00    +0.013 A 
ATOM     12 CL   UNL     1       7.776  -0.056  -1.351  0.00  0.00    -0.084 Cl
ENDBRANCH   4   6
BRANCH   1  13
ATOM     13  S   UNL     1      -1.433   2.453   0.312  0.00  0.00    -0.073 S 
BRANCH  13  15
ATOM     14  C   UNL     1      -2.448   0.582   2.024  0.00  0.00    +0.029 C 
ATOM     15  C   UNL     1      -2.741   1.258   0.683  0.00  0.00    +0.137 C 
BRANCH  15  16
ATOM     16  C   UNL     1      -4.066   1.971   0.759  0.00  0.00    +0.229 C 
ATOM     17  O   UNL     1      -4.100   3.170   0.944  0.00  0.00    -0.274 OA
ATOM     18  N   UNL     1      -5.213   1.278   0.621  0.00  0.00    -0.299 N 
ATOM     19  C   UNL     1      -5.172  -0.169   0.397  0.00  0.00    +0.132 C 
BRANCH  18  20
ATOM     20  C   UNL     1      -6.502   1.971   0.694  0.00  0.00    +0.098 C 
ATOM     21  C   UNL     1      -7.270   1.782  -0.624  0.00  0.00    +0.046 C 
ATOM     22  C   UNL     1      -8.741   2.227  -0.446  0.00  0.00    +0.168 C 
ATOM     23  S   UNL     1      -9.039   1.932   1.344  0.00  0.00    -0.029 S 
ATOM     24  O   UNL     1      -9.319   3.173   1.977  0.00  0.00    -0.174 OA
ATOM     25  O   UNL     1      -9.952   0.852   1.489  0.00  0.00    -0.174 OA
ATOM     26  C   UNL     1      -7.358   1.369   1.845  0.00  0.00    +0.188 C 
ENDBRANCH  18  20
ENDBRANCH  15  16
ENDBRANCH  13  15
ENDBRANCH   1  13
BRANCH   5  27
ATOM     27  C   UNL     1       1.739   3.067  -0.390  0.00  0.00    +0.200 C 
BRANCH  27  28
ATOM     28  C   UNL     1       2.048   3.716   0.935  0.00  0.00    +0.125 A 
ATOM     29  C   UNL     1       3.257   3.769   1.522  0.00  0.00    +0.046 A 
ATOM     30  C   UNL     1       3.091   4.468   2.740  0.00  0.00    +0.041 A 
ATOM     31  C   UNL     1       1.789   4.793   2.828  0.00  0.00    +0.195 A 
ATOM     32  O   UNL     1       1.162   4.336   1.732  0.00  0.00    -0.466 OA
ENDBRANCH  27  28
ENDBRANCH   5  27
TORSDOF 7
