REMARK  Name = ZINC20233690
REMARK  9 active torsions:
REMARK  status: ('A' for Active; 'I' for Inactive)
REMARK    1  A    between atoms: C_1  and  C_2
REMARK    2  A    between atoms: C_5  and  C_8
REMARK    3  A    between atoms: C_10  and  C_21
REMARK    4  A    between atoms: N_14  and  C_15
REMARK    5  A    between atoms: C_15  and  C_16
REMARK    6  A    between atoms: C_16  and  N_17
REMARK    7  A    between atoms: N_17  and  C_18
REMARK    8  A    between atoms: N_17  and  C_19
REMARK    9  A    between atoms: C_21  and  C_23
REMARK                            x       y       z     vdW  Elec       q    Type
REMARK                         _______ _______ _______ _____ _____    ______ ____
ROOT
ATOM      1  C   UNL     1      -5.287   1.337   0.075  0.00  0.00    +0.145 C 
ATOM      2  C   UNL     1      -5.283  -0.169  -0.044  0.00  0.00    +0.076 C 
ATOM      3  C   UNL     1      -6.565  -0.576   0.102  0.00  0.00    +0.249 C 
ATOM      4  C   UNL     1      -7.427   0.605   0.324  0.00  0.00    +0.288 C 
ATOM      5  O   UNL     1      -8.629   0.568   0.494  0.00  0.00    -0.266 OA
ATOM      6  N   UNL     1      -6.683   1.726   0.306  0.00  0.00    -0.285 N 
ATOM      7  O   UNL     1      -6.991  -1.859   0.055  0.00  0.00    -0.282 OA
ENDROOT
BRANCH   1  12
ATOM      8  C   UNL     1      -3.338   3.722  -4.814  0.00  0.00    +0.044 C 
ATOM      9  C   UNL     1      -3.846   3.100  -3.539  0.00  0.00    -0.050 A 
ATOM     10  C   UNL     1      -3.074   3.143  -2.393  0.00  0.00    +0.004 A 
ATOM     11  C   UNL     1      -3.540   2.573  -1.224  0.00  0.00    +0.006 A 
ATOM     12  C   UNL     1      -4.779   1.959  -1.200  0.00  0.00    -0.022 A 
ATOM     13  C   UNL     1      -5.548   1.911  -2.347  0.00  0.00    +0.006 A 
ATOM     14  C   UNL     1      -5.084   2.486  -3.515  0.00  0.00    +0.004 A 
ENDBRANCH   1  12
BRANCH   2  15
ATOM     15  C   UNL     1      -4.115  -1.024  -0.278  0.00  0.00    +0.195 C 
ATOM     16  O   UNL     1      -4.017  -1.648  -1.319  0.00  0.00    -0.287 OA
BRANCH  15  17
ATOM     17  C   UNL     1      -3.059  -1.130   0.748  0.00  0.00    +0.026 A 
ATOM     18  C   UNL     1      -3.138  -0.365   1.915  0.00  0.00    +0.015 A 
ATOM     19  C   UNL     1      -2.149  -0.462   2.868  0.00  0.00    +0.050 A 
ATOM     20  C   UNL     1      -1.073  -1.323   2.678  0.00  0.00    +0.162 A 
ATOM     21  C   UNL     1      -0.990  -2.089   1.517  0.00  0.00    +0.163 A 
ATOM     22  C   UNL     1      -1.978  -1.994   0.554  0.00  0.00    +0.061 A 
ATOM     23  O   UNL     1       0.055  -2.937   1.316  0.00  0.00    -0.485 OA
ATOM     24  C   UNL     1       1.216  -2.731   2.128  0.00  0.00    +0.270 C 
ATOM     25  C   UNL     1       0.758  -2.540   3.580  0.00  0.00    +0.270 C 
ATOM     26  O   UNL     1      -0.108  -1.401   3.632  0.00  0.00    -0.485 OA
ENDBRANCH  15  17
ENDBRANCH   2  15
BRANCH   6  27
ATOM     27  C   UNL     1      -7.180   3.092   0.484  0.00  0.00    +0.090 C 
BRANCH  27  28
ATOM     28  C   UNL     1      -7.557   3.680  -0.877  0.00  0.00    -0.060 C 
BRANCH  28  29
ATOM     29  N   UNL     1      -8.055   5.050  -0.699  0.00  0.00    +0.377 N 
ATOM     30  C   UNL     1      -6.989   5.939  -0.218  0.00  0.00    -0.097 C 
ATOM     31  C   UNL     1      -8.646   5.562  -1.942  0.00  0.00    -0.097 C 
ATOM     32  H   UNL     1      -8.845   5.026   0.066  0.00  0.00    -0.083 HD
ENDBRANCH  28  29
ENDBRANCH  27  28
ENDBRANCH   6  27
TORSDOF 6
