REMARK  Name = ZINC05422205
REMARK  5 active torsions:
REMARK  status: ('A' for Active; 'I' for Inactive)
REMARK    1  A    between atoms: C_7  and  N_15
REMARK    2  A    between atoms: N_15  and  N_16
REMARK    3  A    between atoms: C_17  and  C_18
REMARK    4  A    between atoms: C_21  and  O_25
REMARK    5  A    between atoms: C_23  and  O_24
REMARK                            x       y       z     vdW  Elec       q    Type
REMARK                         _______ _______ _______ _____ _____    ______ ____
ROOT
ATOM      1  C   UNL     1      -0.038   1.083  -0.408  0.00  0.00    +0.001 A 
ATOM      2  C   UNL     1       1.168   1.784  -0.422  0.00  0.00    +0.002 A 
ATOM      3  C   UNL     1       1.197   3.136  -0.287  0.00  0.00    +0.028 A 
ATOM      4  C   UNL     1      -0.008   3.852  -0.131  0.00  0.00    +0.073 A 
ATOM      5  C   UNL     1      -1.233   3.135  -0.118  0.00  0.00    +0.024 A 
ATOM      6  C   UNL     1      -1.223   1.738  -0.265  0.00  0.00    +0.012 A 
ATOM      7  C   UNL     1      -2.446   3.838   0.037  0.00  0.00    +0.067 A 
ATOM      8  C   UNL     1      -2.378   5.240   0.174  0.00  0.00    +0.024 A 
ATOM      9  C   UNL     1      -3.545   6.006   0.334  0.00  0.00    +0.012 A 
ATOM     10  C   UNL     1      -3.451   7.357   0.464  0.00  0.00    +0.001 A 
ATOM     11  C   UNL     1      -2.211   7.993   0.442  0.00  0.00    +0.002 A 
ATOM     12  C   UNL     1      -1.060   7.285   0.290  0.00  0.00    +0.028 A 
ATOM     13  C   UNL     1      -1.113   5.883   0.151  0.00  0.00    +0.073 A 
ATOM     14  N   UNL     1       0.007   5.177   0.001  0.00  0.00    -0.247 NA
ENDROOT
BRANCH   7  15
ATOM     15  N   UNL     1      -3.653   3.178   0.055  0.00  0.00    -0.236 N 
ATOM     16  H   UNL     1      -4.436   3.591  -0.342  0.00  0.00    +0.174 HD
BRANCH  15  17
ATOM     17  N   UNL     1      -3.751   1.911   0.645  0.00  0.00    -0.190 NA
ATOM     18  C   UNL     1      -4.864   1.246   0.573  0.00  0.00    +0.141 C 
BRANCH  18  19
ATOM     19  C   UNL     1      -5.008  -0.029   1.296  0.00  0.00    +0.036 A 
ATOM     20  C   UNL     1      -6.235  -0.699   1.300  0.00  0.00    +0.016 A 
ATOM     21  C   UNL     1      -6.365  -1.891   1.978  0.00  0.00    +0.046 A 
ATOM     22  C   UNL     1      -5.280  -2.431   2.659  0.00  0.00    +0.120 A 
ATOM     23  C   UNL     1      -4.058  -1.774   2.661  0.00  0.00    +0.091 A 
ATOM     24  C   UNL     1      -3.913  -0.578   1.979  0.00  0.00    +0.129 A 
BRANCH  24  25
ATOM     25  O   UNL     1      -2.716   0.063   1.976  0.00  0.00    -0.506 OA
ATOM     26  H   UNL     1      -2.573   0.631   2.745  0.00  0.00    +0.292 HD
ENDBRANCH  24  25
BRANCH  22  27
ATOM     27  O   UNL     1      -5.416  -3.607   3.325  0.00  0.00    -0.507 OA
ATOM     28  H   UNL     1      -5.218  -4.388   2.789  0.00  0.00    +0.292 HD
ENDBRANCH  22  27
ENDBRANCH  18  19
ENDBRANCH  15  17
ENDBRANCH   7  15
TORSDOF 5
