REMARK  Name = ZINC09065931
REMARK  3 active torsions:
REMARK  status: ('A' for Active; 'I' for Inactive)
REMARK    1  A    between atoms: C_4  and  N_7
REMARK    2  A    between atoms: N_14  and  N_15
REMARK    3  A    between atoms: C_16  and  C_17
REMARK                            x       y       z     vdW  Elec       q    Type
REMARK                         _______ _______ _______ _____ _____    ______ ____
ROOT
ATOM      1  N   UNL     1       3.612   2.107  -0.235  0.00  0.00    -0.248 N 
ATOM      2  C   UNL     1       3.592   3.454  -0.335  0.00  0.00    +0.264 A 
ATOM      3  O   UNL     1       2.557   4.045  -0.599  0.00  0.00    -0.267 OA
ATOM      4  C   UNL     1       4.785   4.158  -0.129  0.00  0.00    +0.050 A 
ATOM      5  C   UNL     1       5.939   3.447   0.170  0.00  0.00    +0.084 A 
ATOM      6  N   UNL     1       5.898   2.115   0.262  0.00  0.00    -0.214 NA
ATOM      7  C   UNL     1       4.771   1.458   0.071  0.00  0.00    +0.223 A 
ATOM      8  N   UNL     1       4.766   0.091   0.178  0.00  0.00    -0.206 N 
ATOM      9  C   UNL     1       7.200   4.196   0.379  0.00  0.00    +0.004 A 
ATOM     10  C   UNL     1       8.435   3.564   0.266  0.00  0.00    +0.010 A 
ATOM     11  C   UNL     1       9.593   4.287   0.476  0.00  0.00    +0.001 A 
ATOM     12  C   UNL     1       9.525   5.630   0.798  0.00  0.00    +0.000 A 
ATOM     13  C   UNL     1       8.299   6.263   0.909  0.00  0.00    +0.004 A 
ATOM     14  C   UNL     1       7.135   5.553   0.699  0.00  0.00    -0.037 A 
ATOM     15  C   UNL     1       5.795   6.232   0.812  0.00  0.00    +0.047 C 
ATOM     16  C   UNL     1       4.829   5.656  -0.221  0.00  0.00    +0.007 C 
ATOM     17  C   UNL     1       3.420   6.236   0.006  0.00  0.00    +0.012 C 
ATOM     18  C   UNL     1       3.341   7.434  -0.974  0.00  0.00    +0.001 C 
ATOM     19  C   UNL     1       4.099   6.909  -2.219  0.00  0.00    +0.001 C 
ATOM     20  C   UNL     1       5.263   6.082  -1.633  0.00  0.00    +0.012 C 
ATOM     21  H   UNL     1       3.930  -0.398   0.114  0.00  0.00    +0.177 HD
ENDROOT
BRANCH   1  25
ATOM     22  C   UNL     1       0.113  -0.070  -0.852  0.00  0.00    +0.000 A 
ATOM     23  C   UNL     1       0.428   0.385   0.416  0.00  0.00    +0.002 A 
ATOM     24  C   UNL     1       1.587   1.106   0.623  0.00  0.00    +0.026 A 
ATOM     25  C   UNL     1       2.436   1.375  -0.443  0.00  0.00    +0.053 A 
ATOM     26  C   UNL     1       2.117   0.916  -1.714  0.00  0.00    +0.026 A 
ATOM     27  C   UNL     1       0.956   0.195  -1.915  0.00  0.00    +0.002 A 
ENDBRANCH   1  25
BRANCH   8  28
ATOM     28  N   UNL     1       5.968  -0.601   0.380  0.00  0.00    -0.188 NA
ATOM     29  C   UNL     1       5.963  -1.895   0.481  0.00  0.00    +0.138 C 
BRANCH  29  30
ATOM     30  C   UNL     1       7.227  -2.623   0.694  0.00  0.00    -0.003 A 
ATOM     31  C   UNL     1       8.446  -1.938   0.784  0.00  0.00    +0.029 A 
ATOM     32  C   UNL     1       9.604  -2.659   0.988  0.00  0.00    +0.111 A 
ATOM     33  N   UNL     1       9.575  -3.974   1.088  0.00  0.00    -0.263 NA
ATOM     34  C   UNL     1       8.450  -4.659   1.004  0.00  0.00    +0.111 A 
ATOM     35  C   UNL     1       7.244  -4.019   0.806  0.00  0.00    +0.029 A 
ENDBRANCH  29  30
ENDBRANCH   8  28
TORSDOF 3
