REMARK  Name = ZINC66156370
REMARK  12 active torsions:
REMARK  status: ('A' for Active; 'I' for Inactive)
REMARK    1  A    between atoms: C_1  and  C_2
REMARK    2  A    between atoms: C_2  and  C_30
REMARK    3  A    between atoms: C_7  and  C_11
REMARK    4  A    between atoms: C_11  and  O_12
REMARK    5  A    between atoms: O_12  and  C_13
REMARK    6  A    between atoms: C_13  and  C_14
REMARK    7  A    between atoms: C_14  and  C_16
REMARK    8  A    between atoms: C_14  and  O_29
REMARK    9  A    between atoms: C_16  and  N_17
REMARK   10  A    between atoms: C_21  and  C_24
REMARK   11  A    between atoms: C_24  and  C_25
REMARK   12  A    between atoms: C_25  and  C_26
REMARK                            x       y       z     vdW  Elec       q    Type
REMARK                         _______ _______ _______ _____ _____    ______ ____
ROOT
ATOM      1  C   UNL     1       5.030   2.659   4.365  0.00  0.00    +0.124 C 
ENDROOT
BRANCH   1   2
ATOM      2  O   UNL     1       6.082   1.874   3.800  0.00  0.00    -0.391 OA
ATOM      3  H   UNL     1       6.279   1.067   4.295  0.00  0.00    +0.210 HD
ENDBRANCH   1   2
BRANCH   1   4
ATOM      4  C   UNL     1       3.744   1.831   4.412  0.00  0.00    +0.189 C 
BRANCH   4   5
ATOM      5  O   UNL     1       3.320   1.534   3.080  0.00  0.00    -0.373 OA
BRANCH   5   6
ATOM      6  C   UNL     1       2.121   0.759   3.011  0.00  0.00    +0.190 C 
BRANCH   6  12
ATOM      7  C   UNL     1      -0.232   1.907   0.126  0.00  0.00    +0.012 C 
ATOM      8  C   UNL     1      -0.232   0.380   0.034  0.00  0.00    -0.025 C 
ATOM      9  C   UNL     1       0.875  -0.190  -0.876  0.00  0.00    -0.000 C 
ATOM     10  C   UNL     1       2.124   0.701  -0.841  0.00  0.00    +0.031 C 
ATOM     11  C   UNL     1       2.516   0.970   0.592  0.00  0.00    -0.025 C 
ATOM     12  C   UNL     1       1.769   0.506   1.568  0.00  0.00    -0.045 C 
ATOM     13  C   UNL     1       0.524  -0.314   1.182  0.00  0.00    +0.023 C 
ATOM     14  C   UNL     1       0.927  -1.364   0.117  0.00  0.00    +0.013 C 
ATOM     15  C   UNL     1      -1.621  -0.204  -0.235  0.00  0.00    +0.012 C 
ENDBRANCH   6  12
ENDBRANCH   5   6
ENDBRANCH   4   5
ENDBRANCH   1   4
BRANCH   1  16
ATOM     16  C   UNL     1       5.415   3.083   5.784  0.00  0.00    -0.045 C 
BRANCH  16  17
ATOM     17  N   UNL     1       6.641   3.890   5.738  0.00  0.00    +0.382 N 
ATOM     18  C   UNL     1       7.096   4.167   7.106  0.00  0.00    -0.079 C 
ATOM     19  C   UNL     1       8.416   4.939   7.063  0.00  0.00    -0.018 C 
ATOM     20  C   UNL     1       8.205   6.259   6.317  0.00  0.00    -0.000 C 
ATOM     21  C   UNL     1       7.661   5.962   4.917  0.00  0.00    -0.027 C 
ATOM     22  C   UNL     1       6.368   5.152   5.039  0.00  0.00    -0.075 C 
ATOM     23  H   UNL     1       7.359   3.382   5.243  0.00  0.00    -0.082 HD
BRANCH  21  24
ATOM     24  C   UNL     1       7.374   7.277   4.190  0.00  0.00    +0.011 C 
BRANCH  24  25
ATOM     25  C   UNL     1       8.686   8.031   3.962  0.00  0.00    +0.096 C 
BRANCH  25  26
ATOM     26  C   UNL     1       8.403   9.327   3.247  0.00  0.00    +0.210 C 
ATOM     27  O   UNL     1       7.264   9.619   2.948  0.00  0.00    -0.276 OA
ATOM     28  N   UNL     1       9.416  10.161   2.938  0.00  0.00    -0.329 N 
ATOM     29  H   UNL     1      10.326   9.928   3.177  0.00  0.00    +0.145 HD
ATOM     30  H   UNL     1       9.234  10.995   2.478  0.00  0.00    +0.145 HD
ENDBRANCH  25  26
ENDBRANCH  24  25
ENDBRANCH  21  24
ENDBRANCH  16  17
ENDBRANCH   1  16
TORSDOF 10
