REMARK  Name = ZINC35291567
REMARK  7 active torsions:
REMARK  status: ('A' for Active; 'I' for Inactive)
REMARK    1  A    between atoms: C_1  and  C_2
REMARK    2  A    between atoms: C_2  and  C_3
REMARK    3  A    between atoms: C_3  and  C_4
REMARK    4  A    between atoms: C_12  and  S_14
REMARK    5  A    between atoms: S_14  and  C_15
REMARK    6  A    between atoms: C_15  and  C_16
REMARK    7  A    between atoms: C_22  and  C_24
REMARK                            x       y       z     vdW  Elec       q    Type
REMARK                         _______ _______ _______ _____ _____    ______ ____
ROOT
ATOM      1  C   UNL     1      -1.413  -2.041   0.005  0.00  0.00    +0.131 A 
ATOM      2  N   UNL     1      -1.410  -2.660  -1.152  0.00  0.00    -0.232 NA
ATOM      3  C   UNL     1      -1.392  -4.001  -1.206  0.00  0.00    +0.076 A 
ATOM      4  C   UNL     1      -1.387  -4.695  -2.423  0.00  0.00    +0.028 A 
ATOM      5  C   UNL     1      -1.368  -6.058  -2.420  0.00  0.00    +0.002 A 
ATOM      6  C   UNL     1      -1.353  -6.773  -1.225  0.00  0.00    +0.001 A 
ATOM      7  C   UNL     1      -1.357  -6.128  -0.023  0.00  0.00    +0.012 A 
ATOM      8  C   UNL     1      -1.375  -4.730   0.008  0.00  0.00    +0.032 A 
ATOM      9  C   UNL     1      -1.379  -4.004   1.225  0.00  0.00    +0.109 A 
ATOM     10  N   UNL     1      -1.393  -2.678   1.164  0.00  0.00    -0.225 NA
ENDROOT
BRANCH   1  11
ATOM     11  C   UNL     1      -1.433  -0.534   0.013  0.00  0.00    +0.076 C 
BRANCH  11  13
ATOM     12  C   UNL     1      -0.019   1.526   0.010  0.00  0.00    +0.004 C 
ATOM     13  C   UNL     1       0.002  -0.004   0.002  0.00  0.00    +0.004 C 
ENDBRANCH  11  13
ENDBRANCH   1  11
BRANCH   9  14
ATOM     14  S   UNL     1      -1.360  -4.838   2.777  0.00  0.00    -0.096 S 
BRANCH  14  15
ATOM     15  C   UNL     1      -1.373  -3.496   3.997  0.00  0.00    +0.172 C 
BRANCH  15  16
ATOM     16  C   UNL     1      -1.358  -4.080   5.386  0.00  0.00    +0.229 C 
ATOM     17  O   UNL     1      -1.340  -5.283   5.538  0.00  0.00    -0.275 OA
ATOM     18  N   UNL     1      -1.364  -3.264   6.460  0.00  0.00    -0.263 N 
ATOM     19  C   UNL     1      -1.350  -3.803   7.742  0.00  0.00    +0.188 A 
ATOM     20  N   UNL     1      -1.325  -5.068   8.112  0.00  0.00    -0.126 NA
ATOM     21  N   UNL     1      -1.315  -5.408   9.329  0.00  0.00    -0.145 NA
ATOM     22  C   UNL     1      -1.330  -4.471  10.256  0.00  0.00    +0.101 A 
ATOM     23  S   UNL     1      -1.353  -3.009   9.229  0.00  0.00    -0.036 S 
ATOM     24  C   UNL     1      -1.323  -4.598  11.758  0.00  0.00    +0.075 C 
ATOM     25  H   UNL     1      -1.378  -2.302   6.338  0.00  0.00    +0.157 HD
ENDBRANCH  15  16
ENDBRANCH  14  15
ENDBRANCH   9  14
TORSDOF 5
