REMARK  Name = ZINC40879689
REMARK  7 active torsions:
REMARK  status: ('A' for Active; 'I' for Inactive)
REMARK    1  A    between atoms: C_1  and  C_2
REMARK    2  A    between atoms: C_5  and  C_9
REMARK    3  A    between atoms: C_9  and  C_11
REMARK    4  A    between atoms: C_9  and  N_18
REMARK    5  A    between atoms: C_26  and  C_28
REMARK    6  A    between atoms: C_26  and  O_35
REMARK    7  A    between atoms: C_30  and  C_34
REMARK                            x       y       z     vdW  Elec       q    Type
REMARK                         _______ _______ _______ _____ _____    ______ ____
ROOT
ATOM      1  N   UNL     1      -0.520  -4.749  -1.289  0.00  0.00    +0.391 N 
ATOM      2  C   UNL     1      -1.966  -4.408  -1.364  0.00  0.00    -0.064 C 
ATOM      3  C   UNL     1      -2.649  -5.449  -0.448  0.00  0.00    -0.017 C 
ATOM      4  C   UNL     1      -1.688  -6.656  -0.436  0.00  0.00    -0.017 C 
ATOM      5  C   UNL     1      -0.511  -6.235  -1.346  0.00  0.00    -0.064 C 
ATOM      6  C   UNL     1      -0.864  -6.637  -2.787  0.00  0.00    +0.026 C 
ATOM      7  C   UNL     1      -2.291  -6.175  -3.096  0.00  0.00    +0.105 C 
ATOM      8  C   UNL     1      -2.420  -4.663  -2.810  0.00  0.00    +0.026 C 
ATOM      9  H   UNL     1      -0.020  -4.360  -2.075  0.00  0.00    -0.080 HD
ENDROOT
BRANCH   7  10
ATOM     10  C   UNL     1      -2.598  -6.434  -4.549  0.00  0.00    +0.073 A 
ATOM     11  C   UNL     1      -3.650  -7.264  -4.887  0.00  0.00    +0.029 A 
ATOM     12  C   UNL     1      -3.924  -7.495  -6.226  0.00  0.00    -0.047 A 
ATOM     13  C   UNL     1      -3.126  -6.880  -7.179  0.00  0.00    +0.023 A 
ATOM     14  C   UNL     1      -2.091  -6.062  -6.765  0.00  0.00    +0.111 A 
ATOM     15  N   UNL     1      -1.863  -5.861  -5.482  0.00  0.00    -0.257 NA
ATOM     16  C   UNL     1      -5.062  -8.393  -6.637  0.00  0.00    +0.044 C 
ENDBRANCH   7  10
BRANCH   7  17
ATOM     17  O   UNL     1      -3.213  -6.901  -2.280  0.00  0.00    -0.383 OA
ATOM     18  H   UNL     1      -4.138  -6.660  -2.422  0.00  0.00    +0.211 HD
ENDBRANCH   7  17
BRANCH   1  19
ATOM     19  C   UNL     1       0.059  -4.276  -0.024  0.00  0.00    -0.003 C 
BRANCH  19  24
ATOM     20  C   UNL     1      -0.024   1.502   0.090  0.00  0.00    +0.044 C 
ATOM     21  C   UNL     1      -0.003  -0.005   0.061  0.00  0.00    -0.049 A 
ATOM     22  C   UNL     1       0.525  -0.668  -1.032  0.00  0.00    +0.003 A 
ATOM     23  C   UNL     1       0.545  -2.050  -1.059  0.00  0.00    +0.004 A 
ATOM     24  C   UNL     1       0.037  -2.770   0.006  0.00  0.00    -0.038 A 
ATOM     25  C   UNL     1      -0.491  -2.107   1.100  0.00  0.00    +0.043 A 
ATOM     26  C   UNL     1      -0.505  -0.724   1.129  0.00  0.00    +0.023 A 
ATOM     27 CL   UNL     1      -1.129  -3.011   2.438  0.00  0.00    -0.083 Cl
ENDBRANCH  19  24
BRANCH  19  28
ATOM     28  C   UNL     1       1.481  -4.761   0.090  0.00  0.00    -0.038 A 
ATOM     29  C   UNL     1       2.234  -4.969  -1.051  0.00  0.00    +0.004 A 
ATOM     30  C   UNL     1       3.538  -5.414  -0.946  0.00  0.00    +0.000 A 
ATOM     31  C   UNL     1       4.091  -5.650   0.299  0.00  0.00    +0.001 A 
ATOM     32  C   UNL     1       3.339  -5.443   1.440  0.00  0.00    +0.020 A 
ATOM     33  C   UNL     1       2.035  -4.992   1.336  0.00  0.00    +0.043 A 
ATOM     34 CL   UNL     1       1.092  -4.724   2.769  0.00  0.00    -0.083 Cl
ENDBRANCH  19  28
ENDBRANCH   1  19
TORSDOF 5
