REMARK  Name = ZINC20425148
REMARK  11 active torsions:
REMARK  status: ('A' for Active; 'I' for Inactive)
REMARK    1  A    between atoms: C_1  and  C_2
REMARK    2  A    between atoms: C_7  and  C_8
REMARK    3  A    between atoms: C_8  and  O_9
REMARK    4  A    between atoms: O_9  and  C_10
REMARK    5  A    between atoms: C_13  and  C_15
REMARK    6  A    between atoms: N_16  and  N_17
REMARK    7  A    between atoms: C_20  and  S_23
REMARK    8  A    between atoms: S_23  and  C_24
REMARK    9  A    between atoms: C_24  and  C_25
REMARK   10  A    between atoms: N_27  and  C_28
REMARK   11  A    between atoms: C_28  and  C_29
REMARK                            x       y       z     vdW  Elec       q    Type
REMARK                         _______ _______ _______ _____ _____    ______ ____
ROOT
ATOM      1  N   UNL     1       0.812   0.512  -6.241  0.00  0.00    -0.205 N 
ATOM      2  C   UNL     1       0.730   0.570  -4.858  0.00  0.00    +0.232 A 
ATOM      3  N   UNL     1      -0.226   1.228  -4.135  0.00  0.00    -0.186 NA
ATOM      4  C   UNL     1       0.045   1.043  -2.809  0.00  0.00    +0.211 A 
ATOM      5  N   UNL     1       1.127   0.307  -2.715  0.00  0.00    -0.144 NA
ATOM      6  N   UNL     1       1.557   0.003  -4.013  0.00  0.00    -0.245 N 
ATOM      7  H   UNL     1       0.061   1.028  -6.858  0.00  0.00    +0.177 HD
ATOM      8  H   UNL     1       2.408  -0.587  -4.387  0.00  0.00    +0.192 HD
ENDROOT
BRANCH   1  10
ATOM      9  C   UNL     1       1.927  -0.255  -8.151  0.00  0.00    +0.176 C 
ATOM     10  N   UNL     1       1.850  -0.202  -6.853  0.00  0.00    -0.184 NA
BRANCH   9  14
ATOM     11  C   UNL     1       4.811  -2.238  -9.059  0.00  0.00    +0.287 A 
ATOM     12  C   UNL     1       4.359  -1.929 -10.300  0.00  0.00    +0.091 A 
ATOM     13  C   UNL     1       3.208  -1.137 -10.135  0.00  0.00    +0.055 A 
ATOM     14  C   UNL     1       3.013  -1.002  -8.791  0.00  0.00    +0.151 A 
ATOM     15  O   UNL     1       3.997  -1.671  -8.153  0.00  0.00    -0.424 OA
BRANCH  11  16
ATOM     16  O   UNL     1       5.905  -2.990  -8.780  0.00  0.00    -0.459 OA
BRANCH  16  17
ATOM     17  C   UNL     1       6.212  -3.200  -7.400  0.00  0.00    +0.269 C 
BRANCH  17  24
ATOM     18  C   UNL     1       8.816  -1.954  -7.293  0.00  0.00    +0.044 C 
ATOM     19  C   UNL     1       8.696  -3.455  -7.234  0.00  0.00    -0.043 A 
ATOM     20  C   UNL     1       9.833  -4.235  -7.129  0.00  0.00    +0.004 A 
ATOM     21  C   UNL     1       9.723  -5.612  -7.076  0.00  0.00    +0.002 A 
ATOM     22  C   UNL     1       8.478  -6.210  -7.128  0.00  0.00    +0.020 A 
ATOM     23  C   UNL     1       7.340  -5.429  -7.226  0.00  0.00    +0.048 A 
ATOM     24  C   UNL     1       7.451  -4.051  -7.286  0.00  0.00    +0.011 A 
ATOM     25 CL   UNL     1       5.775  -6.178  -7.284  0.00  0.00    -0.083 Cl
ENDBRANCH  17  24
ENDBRANCH  16  17
ENDBRANCH  11  16
ENDBRANCH   9  14
ENDBRANCH   1  10
BRANCH   4  26
ATOM     26  S   UNL     1      -0.890   1.687  -1.462  0.00  0.00    -0.075 S 
BRANCH  26  27
ATOM     27  C   UNL     1      -0.013   1.086   0.008  0.00  0.00    +0.173 C 
BRANCH  27  28
ATOM     28  C   UNL     1      -0.718   1.572   1.248  0.00  0.00    +0.224 C 
ATOM     29  O   UNL     1      -1.714   2.256   1.150  0.00  0.00    -0.275 OA
ATOM     30  N   UNL     1      -0.242   1.246   2.466  0.00  0.00    -0.308 N 
ATOM     31  H   UNL     1       0.662   0.625   2.555  0.00  0.00    +0.149 HD
BRANCH  30  32
ATOM     32  C   UNL     1      -0.927   1.718   3.671  0.00  0.00    +0.178 C 
BRANCH  32  33
ATOM     33  C   UNL     1      -0.198   1.219   4.892  0.00  0.00    +0.122 A 
ATOM     34  C   UNL     1       0.800   1.858   5.528  0.00  0.00    +0.046 A 
ATOM     35  C   UNL     1       1.187   1.037   6.612  0.00  0.00    +0.041 A 
ATOM     36  C   UNL     1       0.402  -0.055   6.573  0.00  0.00    +0.195 A 
ATOM     37  O   UNL     1      -0.439   0.064   5.533  0.00  0.00    -0.466 OA
ENDBRANCH  32  33
ENDBRANCH  30  32
ENDBRANCH  27  28
ENDBRANCH  26  27
ENDBRANCH   4  26
TORSDOF 10
