REMARK  Name = ZINC36628746
REMARK  12 active torsions:
REMARK  status: ('A' for Active; 'I' for Inactive)
REMARK    1  A    between atoms: C_1  and  C_2
REMARK    2  A    between atoms: C_2  and  C_3
REMARK    3  A    between atoms: C_3  and  N_4
REMARK    4  A    between atoms: C_10  and  N_16
REMARK    5  A    between atoms: C_11  and  C_12
REMARK    6  A    between atoms: C_12  and  O_14
REMARK    7  A    between atoms: O_14  and  C_15
REMARK    8  A    between atoms: C_17  and  C_19
REMARK    9  A    between atoms: C_19  and  C_20
REMARK   10  A    between atoms: C_19  and  C_21
REMARK   11  A    between atoms: C_19  and  O_22
REMARK   12  A    between atoms: O_22  and  C_23
REMARK                            x       y       z     vdW  Elec       q    Type
REMARK                         _______ _______ _______ _____ _____    ______ ____
ROOT
ATOM      1  N   UNL     1      -2.624  -3.478  -1.301  0.00  0.00    +0.383 N 
ATOM      2  C   UNL     1      -3.835  -4.305  -1.395  0.00  0.00    -0.074 C 
ATOM      3  C   UNL     1      -3.458  -5.788  -1.468  0.00  0.00    +0.018 C 
ATOM      4  C   UNL     1      -2.519  -6.089  -0.307  0.00  0.00    -0.025 A 
ATOM      5  C   UNL     1      -1.899  -5.080   0.345  0.00  0.00    -0.021 A 
ATOM      6  S   UNL     1      -0.934  -5.879   1.591  0.00  0.00    -0.079 S 
ATOM      7  C   UNL     1      -1.323  -7.481   1.272  0.00  0.00    +0.086 A 
ATOM      8  C   UNL     1      -2.203  -7.410   0.200  0.00  0.00    +0.091 A 
ATOM      9  C   UNL     1      -2.030  -3.621   0.041  0.00  0.00    -0.035 C 
ATOM     10  H   UNL     1      -1.958  -3.779  -1.997  0.00  0.00    -0.081 HD
ENDROOT
BRANCH   7  11
ATOM     11  N   UNL     1      -0.870  -8.615   1.927  0.00  0.00    -0.276 N 
ATOM     12  C   UNL     1      -0.009  -8.499   2.958  0.00  0.00    +0.261 C 
ATOM     13  O   UNL     1       0.369  -7.402   3.311  0.00  0.00    -0.271 OA
ATOM     14  H   UNL     1      -1.172  -9.493   1.645  0.00  0.00    +0.155 HD
BRANCH  12  15
ATOM     15  C   UNL     1       0.485  -9.731   3.670  0.00  0.00    +0.180 C 
ATOM     16  C   UNL     1      -0.705 -10.486   4.266  0.00  0.00    +0.065 C 
ATOM     17  C   UNL     1       1.217 -10.636   2.677  0.00  0.00    +0.065 C 
BRANCH  15  18
ATOM     18  O   UNL     1       1.380  -9.350   4.717  0.00  0.00    -0.477 OA
BRANCH  18  19
ATOM     19  C   UNL     1       2.507  -8.684   4.353  0.00  0.00    +0.122 A 
ATOM     20  C   UNL     1       2.686  -8.290   3.035  0.00  0.00    +0.047 A 
ATOM     21  C   UNL     1       3.832  -7.612   2.667  0.00  0.00    +0.023 A 
ATOM     22  C   UNL     1       4.802  -7.327   3.612  0.00  0.00    +0.041 A 
ATOM     23  C   UNL     1       4.625  -7.720   4.927  0.00  0.00    +0.023 A 
ATOM     24  C   UNL     1       3.477  -8.391   5.300  0.00  0.00    +0.047 A 
ATOM     25 CL   UNL     1       6.242  -6.476   3.147  0.00  0.00    -0.084 Cl
ENDBRANCH  18  19
ENDBRANCH  15  18
ENDBRANCH  12  15
ENDBRANCH   7  11
BRANCH   8  26
ATOM     26  C   UNL     1      -2.787  -8.616  -0.391  0.00  0.00    +0.342 C 
ATOM     27  O   UNL     1      -2.219  -9.180  -1.307  0.00  0.00    -0.245 OA
BRANCH  26  28
ATOM     28  O   UNL     1      -3.954  -9.101   0.079  0.00  0.00    -0.464 OA
ATOM     29  C   UNL     1      -4.465 -10.280  -0.545  0.00  0.00    +0.280 C 
ENDBRANCH  26  28
ENDBRANCH   8  26
BRANCH   1  30
ATOM     30  C   UNL     1      -2.974  -2.071  -1.534  0.00  0.00    -0.079 C 
BRANCH  30  32
ATOM     31  C   UNL     1      -2.062   0.239  -1.808  0.00  0.00    +0.002 C 
ATOM     32  C   UNL     1      -1.698  -1.227  -1.565  0.00  0.00    -0.022 C 
ENDBRANCH  30  32
ENDBRANCH   1  30
TORSDOF 8
