REMARK  Name = ZINC62814027
REMARK  3 active torsions:
REMARK  status: ('A' for Active; 'I' for Inactive)
REMARK    1  A    between atoms: C_1  and  C_2
REMARK    2  A    between atoms: C_6  and  C_10
REMARK    3  A    between atoms: N_12  and  C_13
REMARK                            x       y       z     vdW  Elec       q    Type
REMARK                         _______ _______ _______ _____ _____    ______ ____
ROOT
ATOM      1  C   UNL     1       2.865  -1.978  -0.048  0.00  0.00    +0.228 C 
ATOM      2  O   UNL     1       3.198  -1.073  -0.784  0.00  0.00    -0.274 OA
ATOM      3  N   UNL     1       3.769  -2.543   0.776  0.00  0.00    -0.313 N 
ATOM      4  H   UNL     1       3.503  -3.267   1.365  0.00  0.00    +0.149 HD
ENDROOT
BRANCH   1   9
ATOM      5  C   UNL     1       0.030   1.369   1.116  0.00  0.00    -0.012 C 
ATOM      6  C   UNL     1       0.036  -0.111   0.729  0.00  0.00    -0.061 C 
ATOM      7  C   UNL     1       0.637  -0.271  -0.669  0.00  0.00    +0.065 C 
ATOM      8  N   UNL     1       0.659  -1.695  -1.030  0.00  0.00    -0.309 NA
ATOM      9  C   UNL     1       1.440  -2.469  -0.054  0.00  0.00    +0.123 C 
ATOM     10  C   UNL     1       0.832  -2.291   1.338  0.00  0.00    -0.054 C 
ATOM     11  N   UNL     1       0.840  -0.867   1.698  0.00  0.00    +0.383 N 
ATOM     12  H   UNL     1      -0.278  -2.061  -1.115  0.00  0.00    +0.123 HD
ATOM     13  H   UNL     1       1.789  -0.523   1.688  0.00  0.00    -0.085 HD
ATOM     14  H   UNL     1       0.450  -0.751   2.622  0.00  0.00    -0.085 HD
ENDBRANCH   1   9
BRANCH   3  15
ATOM     15  C   UNL     1       5.154  -2.066   0.782  0.00  0.00    +0.059 C 
ATOM     16  C   UNL     1       5.945  -2.773  -0.320  0.00  0.00    -0.056 C 
ATOM     17  N   UNL     1       7.061  -3.521   0.264  0.00  0.00    +0.381 N 
ATOM     18  C   UNL     1       6.566  -4.552   1.179  0.00  0.00    -0.078 C 
ATOM     19  C   UNL     1       5.795  -3.905   2.332  0.00  0.00    -0.014 C 
ATOM     20  C   UNL     1       5.800  -2.380   2.138  0.00  0.00    +0.004 C 
ATOM     21  C   UNL     1       7.258  -1.902   2.102  0.00  0.00    -0.014 C 
ATOM     22  C   UNL     1       7.982  -2.617   0.955  0.00  0.00    -0.078 C 
ATOM     23  H   UNL     1       7.562  -3.980  -0.481  0.00  0.00    -0.082 HD
ENDBRANCH   3  15
TORSDOF 2
