REMARK  Name = ZINC39915999
REMARK  11 active torsions:
REMARK  status: ('A' for Active; 'I' for Inactive)
REMARK    1  A    between atoms: C_10  and  O_11
REMARK    2  A    between atoms: O_11  and  C_12
REMARK    3  A    between atoms: C_12  and  C_13
REMARK    4  A    between atoms: C_13  and  N_14
REMARK    5  A    between atoms: C_22  and  S_23
REMARK    6  A    between atoms: S_23  and  C_24
REMARK    7  A    between atoms: C_26  and  O_39
REMARK    8  A    between atoms: C_28  and  O_38
REMARK    9  A    between atoms: C_30  and  O_37
REMARK   10  A    between atoms: C_32  and  C_35
REMARK   11  A    between atoms: C_35  and  O_36
REMARK                            x       y       z     vdW  Elec       q    Type
REMARK                         _______ _______ _______ _____ _____    ______ ____
ROOT
ATOM      1  N   UNL     1       8.752  -0.422   0.125  0.00  0.00    -0.315 N 
ATOM      2  C   UNL     1       9.510  -0.874   1.192  0.00  0.00    +0.070 A 
ATOM      3  C   UNL     1       9.402  -0.751   2.569  0.00  0.00    +0.028 A 
ATOM      4  C   UNL     1      10.347  -1.333   3.387  0.00  0.00    +0.002 A 
ATOM      5  C   UNL     1      11.408  -2.042   2.842  0.00  0.00    +0.002 A 
ATOM      6  C   UNL     1      11.531  -2.174   1.477  0.00  0.00    +0.030 A 
ATOM      7  C   UNL     1      10.582  -1.591   0.634  0.00  0.00    +0.090 A 
ATOM      8  N   UNL     1      10.434  -1.547  -0.715  0.00  0.00    -0.222 NA
ATOM      9  C   UNL     1       9.356  -0.866  -1.018  0.00  0.00    +0.172 A 
ENDROOT
BRANCH   1  10
ATOM     10  C   UNL     1       7.526   0.376   0.206  0.00  0.00    +0.165 C 
BRANCH  10  11
ATOM     11  C   UNL     1       6.315  -0.555   0.288  0.00  0.00    +0.250 C 
BRANCH  11  12
ATOM     12  O   UNL     1       5.120   0.224   0.367  0.00  0.00    -0.490 OA
BRANCH  12  22
ATOM     13  C   UNL     1       0.298   1.579   0.689  0.00  0.00    +0.001 A 
ATOM     14  C   UNL     1       1.492   2.294   0.609  0.00  0.00    +0.001 A 
ATOM     15  C   UNL     1       2.689   1.651   0.529  0.00  0.00    +0.012 A 
ATOM     16  C   UNL     1       2.725   0.247   0.527  0.00  0.00    +0.024 A 
ATOM     17  C   UNL     1       1.512  -0.480   0.609  0.00  0.00    -0.014 A 
ATOM     18  C   UNL     1       0.295   0.218   0.690  0.00  0.00    +0.008 A 
ATOM     19  C   UNL     1       1.548  -1.885   0.607  0.00  0.00    +0.009 A 
ATOM     20  C   UNL     1       2.744  -2.530   0.528  0.00  0.00    +0.004 A 
ATOM     21  C   UNL     1       3.939  -1.820   0.447  0.00  0.00    +0.046 A 
ATOM     22  C   UNL     1       3.946  -0.454   0.446  0.00  0.00    +0.128 A 
ENDBRANCH  12  22
ENDBRANCH  11  12
ENDBRANCH  10  11
ENDBRANCH   1  10
BRANCH   9  23
ATOM     23  S   UNL     1       8.775  -0.563  -2.654  0.00  0.00    -0.054 S 
BRANCH  23  24
ATOM     24  C   UNL     1       9.989  -1.398  -3.712  0.00  0.00    +0.214 C 
ATOM     25  C   UNL     1       9.534  -1.318  -5.172  0.00  0.00    +0.185 C 
ATOM     26  C   UNL     1      10.593  -1.972  -6.064  0.00  0.00    +0.177 C 
ATOM     27  C   UNL     1      11.939  -1.276  -5.836  0.00  0.00    +0.176 C 
ATOM     28  C   UNL     1      12.300  -1.358  -4.350  0.00  0.00    +0.176 C 
ATOM     29  O   UNL     1      11.260  -0.760  -3.574  0.00  0.00    -0.355 OA
BRANCH  27  30
ATOM     30  O   UNL     1      12.949  -1.924  -6.611  0.00  0.00    -0.386 OA
ATOM     31  H   UNL     1      12.782  -1.914  -7.563  0.00  0.00    +0.210 HD
ENDBRANCH  27  30
BRANCH  26  32
ATOM     32  O   UNL     1      10.707  -3.358  -5.734  0.00  0.00    -0.386 OA
ATOM     33  H   UNL     1       9.888  -3.858  -5.851  0.00  0.00    +0.210 HD
ENDBRANCH  26  32
BRANCH  25  34
ATOM     34  O   UNL     1       9.371   0.051  -5.547  0.00  0.00    -0.386 OA
ATOM     35  H   UNL     1       8.717   0.529  -5.018  0.00  0.00    +0.210 HD
ENDBRANCH  25  34
BRANCH  28  36
ATOM     36  C   UNL     1      12.461  -2.824  -3.944  0.00  0.00    +0.190 C 
BRANCH  36  37
ATOM     37  O   UNL     1      12.947  -2.896  -2.602  0.00  0.00    -0.392 OA
ATOM     38  H   UNL     1      13.072  -3.799  -2.277  0.00  0.00    +0.210 HD
ENDBRANCH  36  37
ENDBRANCH  28  36
ENDBRANCH  23  24
ENDBRANCH   9  23
TORSDOF 11
