REMARK  Name = ZINC10316241
REMARK  8 active torsions:
REMARK  status: ('A' for Active; 'I' for Inactive)
REMARK    1  A    between atoms: C_1  and  O_2
REMARK    2  A    between atoms: O_2  and  C_3
REMARK    3  A    between atoms: C_3  and  C_5
REMARK    4  A    between atoms: C_5  and  C_15
REMARK    5  A    between atoms: C_15  and  C_17
REMARK    6  A    between atoms: C_17  and  S_18
REMARK    7  A    between atoms: S_18  and  C_19
REMARK    8  A    between atoms: N_24  and  C_25
REMARK                            x       y       z     vdW  Elec       q    Type
REMARK                         _______ _______ _______ _____ _____    ______ ____
ROOT
ATOM      1  C   UNL     1      -1.278   2.194  -0.492  0.00  0.00    +0.183 C 
ATOM      2  O   UNL     1      -1.278   3.384  -0.245  0.00  0.00    -0.291 OA
ENDROOT
BRANCH   1   3
ATOM      3  C   UNL     1      -0.070   1.537  -0.786  0.00  0.00    +0.138 C 
ATOM      4  C   UNL     1       1.139   2.259  -0.800  0.00  0.00    +0.110 C 
ATOM      5  N   UNL     1       1.264   3.586  -0.547  0.00  0.00    -0.301 N 
ATOM      6  C   UNL     1       2.608   3.925  -0.654  0.00  0.00    +0.054 A 
ATOM      7  C   UNL     1       3.299   5.119  -0.501  0.00  0.00    +0.025 A 
ATOM      8  C   UNL     1       4.667   5.149  -0.681  0.00  0.00    +0.002 A 
ATOM      9  C   UNL     1       5.354   3.993  -1.013  0.00  0.00    +0.002 A 
ATOM     10  C   UNL     1       4.676   2.801  -1.168  0.00  0.00    +0.025 A 
ATOM     11  C   UNL     1       3.300   2.760  -0.989  0.00  0.00    +0.054 A 
ATOM     12  N   UNL     1       2.361   1.738  -1.073  0.00  0.00    -0.301 N 
ATOM     13  H   UNL     1       0.540   4.193  -0.329  0.00  0.00    +0.153 HD
ATOM     14  H   UNL     1       2.549   0.811  -1.291  0.00  0.00    +0.153 HD
BRANCH   3  15
ATOM     15  C   UNL     1      -0.070   0.105  -1.083  0.00  0.00    +0.345 C 
ATOM     16  O   UNL     1       0.974  -0.462  -1.342  0.00  0.00    -0.245 OA
BRANCH  15  18
ATOM     17  C   UNL     1      -1.154  -1.981  -1.368  0.00  0.00    +0.280 C 
ATOM     18  O   UNL     1      -1.228  -0.586  -1.069  0.00  0.00    -0.464 OA
ENDBRANCH  15  18
ENDBRANCH   3  15
ENDBRANCH   1   3
BRANCH   1  19
ATOM     19  C   UNL     1      -2.573   1.423  -0.483  0.00  0.00    +0.156 C 
BRANCH  19  20
ATOM     20  S   UNL     1      -3.941   2.542  -0.072  0.00  0.00    -0.089 S 
BRANCH  20  21
ATOM     21  C   UNL     1      -5.364   1.504  -0.102  0.00  0.00    +0.160 A 
ATOM     22  N   UNL     1      -5.453   0.213  -0.364  0.00  0.00    -0.133 NA
ATOM     23  N   UNL     1      -6.679  -0.409  -0.328  0.00  0.00    -0.125 NA
ATOM     24  C   UNL     1      -7.761   0.288  -0.042  0.00  0.00    +0.187 A 
ATOM     25  S   UNL     1      -7.074   1.918   0.207  0.00  0.00    -0.024 S 
ATOM     26  N   UNL     1      -9.084  -0.133   0.043  0.00  0.00    -0.290 N 
ATOM     27  H   UNL     1      -9.791   0.516   0.180  0.00  0.00    +0.154 HD
BRANCH  26  28
ATOM     28  C   UNL     1      -9.393  -1.492  -0.069  0.00  0.00    +0.068 A 
ATOM     29  C   UNL     1      -8.378  -2.439  -0.079  0.00  0.00    +0.026 A 
ATOM     30  C   UNL     1      -8.687  -3.780  -0.190  0.00  0.00    +0.002 A 
ATOM     31  C   UNL     1     -10.006  -4.183  -0.290  0.00  0.00    +0.003 A 
ATOM     32  C   UNL     1     -11.021  -3.244  -0.279  0.00  0.00    +0.040 A 
ATOM     33  C   UNL     1     -10.720  -1.899  -0.164  0.00  0.00    +0.144 A 
ATOM     34  F   UNL     1     -11.712  -0.982  -0.148  0.00  0.00    -0.204 F 
ENDBRANCH  26  28
ENDBRANCH  20  21
ENDBRANCH  19  20
ENDBRANCH   1  19
TORSDOF 7
