REMARK  Name = ZINC57497783
REMARK  6 active torsions:
REMARK  status: ('A' for Active; 'I' for Inactive)
REMARK    1  A    between atoms: C_7  and  N_12
REMARK    2  A    between atoms: C_8  and  C_9
REMARK    3  A    between atoms: C_13  and  C_15
REMARK    4  A    between atoms: C_15  and  C_16
REMARK    5  A    between atoms: C_16  and  N_17
REMARK    6  A    between atoms: C_18  and  C_20
REMARK                            x       y       z     vdW  Elec       q    Type
REMARK                         _______ _______ _______ _____ _____    ______ ____
ROOT
ATOM      1  N   UNL     1       5.640  -1.961  -2.081  0.00  0.00    -0.279 N 
ATOM      2  C   UNL     1       6.015  -3.191  -1.676  0.00  0.00    +0.219 C 
ATOM      3  O   UNL     1       5.383  -3.765  -0.815  0.00  0.00    -0.275 OA
ATOM      4  H   UNL     1       6.146  -1.502  -2.770  0.00  0.00    +0.155 HD
ENDROOT
BRANCH   1  11
ATOM      5  C   UNL     1      -0.019   1.521   0.010  0.00  0.00    +0.001 C 
ATOM      6  C   UNL     1       1.407   2.069  -0.000  0.00  0.00    +0.005 C 
ATOM      7  C   UNL     1       2.129   1.647  -1.276  0.00  0.00    +0.037 C 
ATOM      8  C   UNL     1       2.822   0.310  -1.059  0.00  0.00    -0.023 A 
ATOM      9  C   UNL     1       2.395  -0.600  -0.158  0.00  0.00    -0.004 A 
ATOM     10  S   UNL     1       3.521  -1.957  -0.318  0.00  0.00    -0.077 S 
ATOM     11  C   UNL     1       4.532  -1.352  -1.513  0.00  0.00    +0.084 A 
ATOM     12  C   UNL     1       4.005  -0.105  -1.801  0.00  0.00    +0.068 A 
ATOM     13  C   UNL     1       1.236  -0.480   0.781  0.00  0.00    +0.043 C 
ATOM     14  C   UNL     1       0.002  -0.004   0.002  0.00  0.00    +0.005 C 
BRANCH  12  15
ATOM     15  C   UNL     1       4.612   0.764  -2.813  0.00  0.00    +0.244 C 
ATOM     16  O   UNL     1       5.480   1.555  -2.495  0.00  0.00    -0.270 OA
ATOM     17  N   UNL     1       4.210   0.686  -4.098  0.00  0.00    -0.325 N 
ATOM     18  H   UNL     1       3.518   0.055  -4.352  0.00  0.00    +0.145 HD
ATOM     19  H   UNL     1       4.612   1.260  -4.768  0.00  0.00    +0.145 HD
ENDBRANCH  12  15
ENDBRANCH   1  11
BRANCH   2  20
ATOM     20  C   UNL     1       7.220  -3.853  -2.293  0.00  0.00    +0.115 C 
BRANCH  20  21
ATOM     21  C   UNL     1       7.425  -5.231  -1.661  0.00  0.00    +0.113 C 
BRANCH  21  22
ATOM     22  N   UNL     1       8.597  -5.874  -2.261  0.00  0.00    -0.314 N 
ATOM     23  C   UNL     1       8.972  -7.104  -1.856  0.00  0.00    +0.219 C 
ATOM     24  O   UNL     1       8.339  -7.678  -0.995  0.00  0.00    -0.275 OA
ATOM     25  H   UNL     1       9.103  -5.415  -2.950  0.00  0.00    +0.149 HD
BRANCH  23  26
ATOM     26  C   UNL     1      10.177  -7.766  -2.473  0.00  0.00    +0.048 C 
ATOM     27  C   UNL     1       9.956  -7.924  -3.979  0.00  0.00    +0.019 C 
ATOM     28  C   UNL     1      11.180  -8.595  -4.606  0.00  0.00    -0.009 C 
ATOM     29  C   UNL     1      11.385  -9.973  -3.973  0.00  0.00    +0.007 C 
ATOM     30  C   UNL     1      11.605  -9.815  -2.467  0.00  0.00    -0.009 C 
ATOM     31  C   UNL     1      10.382  -9.143  -1.840  0.00  0.00    +0.019 C 
ATOM     32  C   UNL     1      12.844  -8.952  -2.221  0.00  0.00    +0.007 C 
ATOM     33  C   UNL     1      12.639  -7.574  -2.853  0.00  0.00    -0.009 C 
ATOM     34  C   UNL     1      12.418  -7.732  -4.359  0.00  0.00    +0.007 C 
ATOM     35  C   UNL     1      11.415  -6.902  -2.227  0.00  0.00    +0.019 C 
ENDBRANCH  23  26
ENDBRANCH  21  22
ENDBRANCH  20  21
ENDBRANCH   2  20
TORSDOF 6
