REMARK  Name = ZINC51614061
REMARK  9 active torsions:
REMARK  status: ('A' for Active; 'I' for Inactive)
REMARK    1  A    between atoms: C_1  and  C_2
REMARK    2  A    between atoms: C_2  and  C_3
REMARK    3  A    between atoms: C_3  and  C_4
REMARK    4  A    between atoms: C_4  and  C_6
REMARK    5  A    between atoms: C_4  and  N_7
REMARK    6  A    between atoms: C_8  and  C_10
REMARK    7  A    between atoms: N_19  and  C_20
REMARK    8  A    between atoms: C_23  and  C_30
REMARK    9  A    between atoms: N_25  and  C_29
REMARK                            x       y       z     vdW  Elec       q    Type
REMARK                         _______ _______ _______ _____ _____    ______ ____
ROOT
ATOM      1  C   UNL     1      -3.128  -4.367  -0.049  0.00  0.00    +0.092 C 
ATOM      2  C   UNL     1      -2.876  -5.874   0.039  0.00  0.00    +0.016 C 
ATOM      3  C   UNL     1      -4.071  -6.627  -0.550  0.00  0.00    +0.020 C 
ATOM      4  C   UNL     1      -4.231  -6.248  -2.026  0.00  0.00    +0.109 C 
ATOM      5  N   UNL     1      -4.328  -4.786  -2.131  0.00  0.00    -0.285 N 
ATOM      6  C   UNL     1      -3.277  -3.962  -1.518  0.00  0.00    +0.122 C 
ATOM      7  C   UNL     1      -5.362  -4.211  -2.778  0.00  0.00    +0.307 C 
ATOM      8  O   UNL     1      -5.482  -3.001  -2.776  0.00  0.00    -0.252 OA
ATOM      9  N   UNL     1      -6.262  -4.978  -3.425  0.00  0.00    -0.268 N 
ATOM     10  H   UNL     1      -6.210  -5.944  -3.363  0.00  0.00    +0.156 HD
ENDROOT
BRANCH   9  11
ATOM     11  C   UNL     1      -7.272  -4.378  -4.190  0.00  0.00    +0.054 A 
ATOM     12  C   UNL     1      -8.523  -4.968  -4.283  0.00  0.00    +0.038 A 
ATOM     13  C   UNL     1      -9.496  -4.327  -5.059  0.00  0.00    +0.043 A 
ATOM     14  C   UNL     1     -10.884  -4.622  -5.394  0.00  0.00    +0.069 A 
ATOM     15  N   UNL     1     -11.316  -3.667  -6.167  0.00  0.00    -0.174 NA
ATOM     16  N   UNL     1     -10.302  -2.729  -6.384  0.00  0.00    -0.249 N 
ATOM     17  C   UNL     1      -9.175  -3.119  -5.710  0.00  0.00    +0.158 A 
ATOM     18  N   UNL     1      -7.961  -2.599  -5.585  0.00  0.00    -0.234 NA
ATOM     19  C   UNL     1      -7.031  -3.179  -4.858  0.00  0.00    +0.136 A 
ATOM     20  C   UNL     1     -10.425  -1.521  -7.203  0.00  0.00    +0.174 C 
ATOM     21  C   UNL     1     -11.677  -5.817  -4.930  0.00  0.00    +0.068 C 
ENDBRANCH   9  11
BRANCH   1  23
ATOM     22  N   UNL     1      -1.967  -2.279   0.594  0.00  0.00    -0.312 N 
ATOM     23  C   UNL     1      -1.965  -3.627   0.561  0.00  0.00    +0.218 C 
ATOM     24  O   UNL     1      -1.028  -4.243   1.021  0.00  0.00    -0.275 OA
ATOM     25  H   UNL     1      -2.716  -1.786   0.226  0.00  0.00    +0.149 HD
BRANCH  22  26
ATOM     26  C   UNL     1      -0.837  -1.560   1.187  0.00  0.00    +0.070 C 
ATOM     27  C   UNL     1       0.264  -1.386   0.138  0.00  0.00    +0.028 C 
BRANCH  26  28
ATOM     28  C   UNL     1      -1.303  -0.185   1.669  0.00  0.00    +0.022 C 
BRANCH  28  30
ATOM     29  C   UNL     1      -2.780   1.017   3.287  0.00  0.00    +0.004 C 
ATOM     30  C   UNL     1      -2.313  -0.358   2.805  0.00  0.00    -0.002 C 
ENDBRANCH  28  30
ENDBRANCH  26  28
ENDBRANCH  22  26
ENDBRANCH   1  23
TORSDOF 5
