REMARK  Name = ZINC41026383
REMARK  6 active torsions:
REMARK  status: ('A' for Active; 'I' for Inactive)
REMARK    1  A    between atoms: C_4  and  C_7
REMARK    2  A    between atoms: C_7  and  C_8
REMARK    3  A    between atoms: C_17  and  N_33
REMARK    4  A    between atoms: C_18  and  N_20
REMARK    5  A    between atoms: N_20  and  C_21
REMARK    6  A    between atoms: C_22  and  C_30
REMARK                            x       y       z     vdW  Elec       q    Type
REMARK                         _______ _______ _______ _____ _____    ______ ____
ROOT
ATOM      1  C   UNL     1       4.171  -0.963   1.399  0.00  0.00    -0.004 C 
ATOM      2  C   UNL     1       4.462   0.372   2.087  0.00  0.00    +0.023 C 
ATOM      3  C   UNL     1       4.889   0.114   3.535  0.00  0.00    +0.108 C 
ATOM      4  N   UNL     1       6.021  -0.823   3.534  0.00  0.00    -0.300 N 
ATOM      5  C   UNL     1       5.879  -2.101   2.823  0.00  0.00    +0.108 C 
ATOM      6  C   UNL     1       5.441  -1.818   1.383  0.00  0.00    +0.023 C 
ATOM      7  C   UNL     1       7.197  -0.508   4.191  0.00  0.00    +0.221 A 
ATOM      8  N   UNL     1       7.291   0.650   4.827  0.00  0.00    -0.197 NA
ATOM      9  C   UNL     1       8.407   0.987   5.470  0.00  0.00    +0.154 A 
ATOM     10  C   UNL     1       9.483   0.103   5.466  0.00  0.00    +0.205 A 
ATOM     11  C   UNL     1       9.347  -1.104   4.787  0.00  0.00    +0.161 A 
ATOM     12  N   UNL     1       8.199  -1.375   4.171  0.00  0.00    -0.197 NA
ATOM     13  N   UNL     1       8.497   2.200   6.133  0.00  0.00    -0.341 N 
ATOM     14  H   UNL     1       7.743   2.811   6.130  0.00  0.00    +0.144 HD
ATOM     15  H   UNL     1       9.313   2.439   6.599  0.00  0.00    +0.144 HD
ENDROOT
BRANCH  10  16
ATOM     16  N   UNL     1      10.742   0.440   6.169  0.00  0.00    +0.063 N 
ATOM     17  O   UNL     1      10.890   0.129   7.327  0.00  0.00    -0.126 OA
ATOM     18  O   UNL     1      11.622   1.027   5.583  0.00  0.00    -0.126 OA
ENDBRANCH  10  16
BRANCH  11  19
ATOM     19  N   UNL     1      10.394  -2.015   4.757  0.00  0.00    -0.291 N 
ATOM     20  H   UNL     1      11.226  -1.812   5.211  0.00  0.00    +0.154 HD
BRANCH  19  21
ATOM     21  C   UNL     1      10.249  -3.213   4.079  0.00  0.00    +0.084 A 
ATOM     22  C   UNL     1      11.176  -4.236   3.947  0.00  0.00    +0.068 A 
ATOM     23  C   UNL     1      10.774  -5.401   3.177  0.00  0.00    -0.023 A 
ATOM     24  C   UNL     1       9.521  -5.329   2.680  0.00  0.00    -0.004 A 
ATOM     25  S   UNL     1       8.907  -3.764   3.232  0.00  0.00    -0.077 S 
ATOM     26  C   UNL     1       8.821  -6.360   1.850  0.00  0.00    +0.043 C 
ATOM     27  C   UNL     1       9.871  -7.352   1.328  0.00  0.00    +0.005 C 
ATOM     28  C   UNL     1      10.767  -7.784   2.493  0.00  0.00    +0.005 C 
ATOM     29  C   UNL     1      11.655  -6.616   2.928  0.00  0.00    +0.037 C 
BRANCH  22  30
ATOM     30  C   UNL     1      12.504  -4.146   4.559  0.00  0.00    +0.244 C 
ATOM     31  O   UNL     1      12.683  -4.559   5.689  0.00  0.00    -0.270 OA
ATOM     32  N   UNL     1      13.528  -3.605   3.869  0.00  0.00    -0.325 N 
ATOM     33  H   UNL     1      13.386  -3.275   2.968  0.00  0.00    +0.145 HD
ATOM     34  H   UNL     1      14.408  -3.546   4.274  0.00  0.00    +0.145 HD
ENDBRANCH  22  30
ENDBRANCH  19  21
ENDBRANCH  11  19
BRANCH   1  35
ATOM     35  C   UNL     1       3.711  -0.707  -0.038  0.00  0.00    +0.038 C 
BRANCH  35  39
ATOM     36  C   UNL     1      -0.017   1.378   0.010  0.00  0.00    +0.000 A 
ATOM     37  C   UNL     1       1.171   2.086   0.002  0.00  0.00    +0.000 A 
ATOM     38  C   UNL     1       2.377   1.411  -0.013  0.00  0.00    +0.003 A 
ATOM     39  C   UNL     1       2.396   0.029  -0.020  0.00  0.00    -0.047 A 
ATOM     40  C   UNL     1       1.208  -0.679  -0.012  0.00  0.00    +0.003 A 
ATOM     41  C   UNL     1       0.002  -0.004   0.002  0.00  0.00    +0.000 A 
ENDBRANCH  35  39
ENDBRANCH   1  35
TORSDOF 6
