REMARK  Name = ZINC63068984
REMARK  7 active torsions:
REMARK  status: ('A' for Active; 'I' for Inactive)
REMARK    1  A    between atoms: C_1  and  C_2
REMARK    2  A    between atoms: C_3  and  C_9
REMARK    3  A    between atoms: C_4  and  C_8
REMARK    4  A    between atoms: N_5  and  C_7
REMARK    5  A    between atoms: C_9  and  C_10
REMARK    6  A    between atoms: C_9  and  N_11
REMARK    7  A    between atoms: N_14  and  C_15
REMARK                            x       y       z     vdW  Elec       q    Type
REMARK                         _______ _______ _______ _____ _____    ______ ____
ROOT
ATOM      1  N   UNL     1       0.955   0.751  -2.726  0.00  0.00    -0.293 N 
ATOM      2  C   UNL     1       1.494   1.003  -3.936  0.00  0.00    +0.301 C 
ATOM      3  O   UNL     1       1.182   0.322  -4.893  0.00  0.00    -0.253 OA
ATOM      4  N   UNL     1       2.377   2.010  -4.083  0.00  0.00    -0.293 N 
ATOM      5  H   UNL     1       1.203   1.295  -1.962  0.00  0.00    +0.151 HD
ATOM      6  H   UNL     1       2.625   2.553  -3.319  0.00  0.00    +0.151 HD
ENDROOT
BRANCH   4   7
ATOM      7  C   UNL     1       2.963   2.283  -5.398  0.00  0.00    +0.107 C 
ATOM      8  C   UNL     1       3.290   3.763  -5.485  0.00  0.00    +0.038 C 
ATOM      9  C   UNL     1       3.858   4.071  -6.878  0.00  0.00    +0.076 C 
ATOM     10  S   UNL     1       5.528   3.358  -6.944  0.00  0.00    -0.122 S 
ATOM     11  C   UNL     1       5.310   1.749  -6.250  0.00  0.00    +0.048 A 
ATOM     12  C   UNL     1       4.152   1.388  -5.588  0.00  0.00    -0.011 A 
ATOM     13  C   UNL     1       4.058   0.105  -5.053  0.00  0.00    +0.007 A 
ATOM     14  C   UNL     1       5.090  -0.798  -5.184  0.00  0.00    +0.003 A 
ATOM     15  C   UNL     1       6.245  -0.438  -5.856  0.00  0.00    +0.039 A 
ATOM     16  C   UNL     1       6.354   0.832  -6.386  0.00  0.00    +0.137 A 
ATOM     17  F   UNL     1       7.480   1.189  -7.042  0.00  0.00    -0.204 F 
ENDBRANCH   4   7
BRANCH   1  18
ATOM     18  C   UNL     1      -0.006  -0.343  -2.566  0.00  0.00    +0.105 C 
ATOM     19  C   UNL     1      -1.408   0.152  -2.925  0.00  0.00    +0.033 C 
BRANCH  18  22
ATOM     20  C   UNL     1      -0.018   1.503   0.010  0.00  0.00    +0.068 C 
ATOM     21  C   UNL     1       0.002  -0.004   0.002  0.00  0.00    +0.065 A 
ATOM     22  C   UNL     1       0.008  -0.818  -1.135  0.00  0.00    +0.016 A 
ATOM     23  C   UNL     1       0.028  -2.107  -0.725  0.00  0.00    +0.041 A 
ATOM     24  N   UNL     1       0.034  -2.109   0.625  0.00  0.00    -0.271 N 
ATOM     25  N   UNL     1       0.023  -0.777   1.058  0.00  0.00    -0.176 NA
ATOM     26  C   UNL     1       0.055  -3.295   1.485  0.00  0.00    +0.172 C 
ATOM     27  C   UNL     1       0.040  -3.323  -1.615  0.00  0.00    +0.065 C 
ENDBRANCH  18  22
ENDBRANCH   1  18
TORSDOF 3
