REMARK  Name = ZINC36558423
REMARK  17 active torsions:
REMARK  status: ('A' for Active; 'I' for Inactive)
REMARK    1  A    between atoms: C_1  and  C_2
REMARK    2  A    between atoms: C_2  and  C_3
REMARK    3  A    between atoms: C_3  and  C_5
REMARK    4  A    between atoms: C_3  and  C_11
REMARK    5  A    between atoms: N_13  and  C_14
REMARK    6  A    between atoms: N_13  and  C_21
REMARK    7  A    between atoms: C_14  and  C_15
REMARK    8  A    between atoms: C_18  and  C_20
REMARK    9  A    between atoms: C_21  and  C_23
REMARK   10  A    between atoms: C_21  and  C_32
REMARK   11  A    between atoms: C_24  and  O_31
REMARK   12  A    between atoms: C_26  and  O_30
REMARK   13  A    between atoms: C_28  and  O_29
REMARK   14  A    between atoms: N_34  and  C_35
REMARK   15  A    between atoms: C_35  and  C_36
REMARK   16  A    between atoms: C_35  and  C_37
REMARK   17  A    between atoms: C_35  and  C_38
REMARK                            x       y       z     vdW  Elec       q    Type
REMARK                         _______ _______ _______ _____ _____    ______ ____
ROOT
ATOM      1  C   UNL     1       2.842   0.737  -0.928  0.00  0.00    +0.200 C 
ENDROOT
BRANCH   1   2
ATOM      2  C   UNL     1       3.658  -0.280  -1.685  0.00  0.00    +0.065 A 
ATOM      3  C   UNL     1       3.848  -0.139  -3.051  0.00  0.00    +0.129 A 
ATOM      4  C   UNL     1       4.598  -1.075  -3.747  0.00  0.00    +0.091 A 
ATOM      5  C   UNL     1       5.158  -2.152  -3.077  0.00  0.00    +0.124 A 
ATOM      6  C   UNL     1       4.968  -2.293  -1.710  0.00  0.00    +0.091 A 
ATOM      7  C   UNL     1       4.222  -1.354  -1.014  0.00  0.00    +0.129 A 
BRANCH   7   8
ATOM      8  O   UNL     1       4.040  -1.490   0.326  0.00  0.00    -0.506 OA
ATOM      9  H   UNL     1       3.257  -2.005   0.567  0.00  0.00    +0.292 HD
ENDBRANCH   7   8
BRANCH   5  10
ATOM     10  O   UNL     1       5.893  -3.069  -3.759  0.00  0.00    -0.507 OA
ATOM     11  H   UNL     1       6.836  -2.861  -3.807  0.00  0.00    +0.292 HD
ENDBRANCH   5  10
BRANCH   3  12
ATOM     12  O   UNL     1       3.299   0.917  -3.708  0.00  0.00    -0.506 OA
ATOM     13  H   UNL     1       3.901   1.666  -3.821  0.00  0.00    +0.292 HD
ENDBRANCH   3  12
ENDBRANCH   1   2
BRANCH   1  14
ATOM     14  C   UNL     1       3.611   2.030  -0.839  0.00  0.00    +0.239 C 
ATOM     15  O   UNL     1       3.017   3.088  -0.822  0.00  0.00    -0.273 OA
ATOM     16  N   UNL     1       4.957   2.012  -0.779  0.00  0.00    -0.309 N 
ATOM     17  H   UNL     1       5.434   1.170  -0.846  0.00  0.00    +0.149 HD
BRANCH  16  18
ATOM     18  C   UNL     1       5.700   3.264  -0.612  0.00  0.00    +0.026 C 
ATOM     19  C   UNL     1       5.252   3.954   0.678  0.00  0.00    +0.031 C 
ATOM     20  C   UNL     1       7.198   2.961  -0.535  0.00  0.00    +0.031 C 
ATOM     21  C   UNL     1       5.426   4.182  -1.804  0.00  0.00    +0.031 C 
ENDBRANCH  16  18
ENDBRANCH   1  14
BRANCH   1  24
ATOM     22  C   UNL     1       0.574   0.074  -1.522  0.00  0.00    +0.224 C 
ATOM     23  O   UNL     1       0.740  -0.951  -0.894  0.00  0.00    -0.275 OA
ATOM     24  N   UNL     1       1.577   0.968  -1.630  0.00  0.00    -0.278 N 
BRANCH  22  25
ATOM     25  C   UNL     1      -0.752   0.347  -2.183  0.00  0.00    +0.105 C 
BRANCH  25  26
ATOM     26  C   UNL     1      -0.786  -0.316  -3.535  0.00  0.00    -0.036 A 
ATOM     27  C   UNL     1      -0.644  -1.688  -3.637  0.00  0.00    +0.004 A 
ATOM     28  C   UNL     1      -0.675  -2.296  -4.878  0.00  0.00    +0.000 A 
ATOM     29  C   UNL     1      -0.849  -1.533  -6.017  0.00  0.00    +0.000 A 
ATOM     30  C   UNL     1      -0.992  -0.162  -5.916  0.00  0.00    +0.000 A 
ATOM     31  C   UNL     1      -0.965   0.446  -4.675  0.00  0.00    +0.004 A 
ENDBRANCH  25  26
BRANCH  25  33
ATOM     32  C   UNL     1      -2.000   0.622  -0.035  0.00  0.00    +0.005 C 
ATOM     33  C   UNL     1      -1.880  -0.212  -1.312  0.00  0.00    +0.014 C 
ENDBRANCH  25  33
ENDBRANCH  22  25
BRANCH  24  34
ATOM     34  C   UNL     1       1.402   2.171  -2.447  0.00  0.00    +0.183 C 
BRANCH  34  35
ATOM     35  C   UNL     1       0.676   3.221  -1.647  0.00  0.00    +0.122 A 
ATOM     36  C   UNL     1       1.051   4.506  -1.513  0.00  0.00    +0.046 A 
ATOM     37  C   UNL     1       0.090   5.129  -0.683  0.00  0.00    +0.045 A 
ATOM     38  C   UNL     1      -0.813   4.186  -0.358  0.00  0.00    +0.102 A 
ATOM     39  O   UNL     1      -0.456   3.035  -0.950  0.00  0.00    -0.463 OA
ATOM     40  C   UNL     1      -2.024   4.390   0.516  0.00  0.00    +0.086 C 
ENDBRANCH  34  35
ENDBRANCH  24  34
ENDBRANCH   1  24
TORSDOF 12
