REMARK  Name = ZINC05022537
REMARK  11 active torsions:
REMARK  status: ('A' for Active; 'I' for Inactive)
REMARK    1  A    between atoms: C_1  and  C_2
REMARK    2  A    between atoms: C_17  and  C_31
REMARK    3  A    between atoms: C_22  and  C_23
REMARK    4  A    between atoms: C_22  and  O_30
REMARK    5  A    between atoms: C_23  and  N_71
REMARK    6  A    between atoms: C_24  and  C_25
REMARK    7  A    between atoms: C_24  and  N_71
REMARK    8  A    between atoms: C_25  and  O_26
REMARK    9  A    between atoms: C_27  and  C_28
REMARK   10  A    between atoms: C_27  and  N_71
REMARK   11  A    between atoms: C_28  and  O_29
REMARK                            x       y       z     vdW  Elec       q    Type
REMARK                         _______ _______ _______ _____ _____    ______ ____
ROOT
ATOM      1  C   UNL     1       1.996  -3.853   2.772  0.00  0.00    +0.012 C 
ATOM      2  C   UNL     1       2.417  -3.633   1.321  0.00  0.00    -0.026 C 
ATOM      3  C   UNL     1       1.693  -4.719   0.567  0.00  0.00    +0.007 C 
ATOM      4  C   UNL     1       2.425  -5.340  -0.597  0.00  0.00    +0.001 C 
ATOM      5  C   UNL     1       3.888  -5.612  -0.270  0.00  0.00    +0.000 C 
ATOM      6  C   UNL     1       4.555  -4.290   0.102  0.00  0.00    +0.004 C 
ATOM      7  C   UNL     1       3.906  -3.704   1.338  0.00  0.00    -0.005 C 
ATOM      8  C   UNL     1       4.666  -2.499   1.843  0.00  0.00    +0.004 C 
ATOM      9  C   UNL     1       4.101  -1.185   1.292  0.00  0.00    +0.004 C 
ATOM     10  C   UNL     1       2.629  -1.150   1.678  0.00  0.00    -0.004 C 
ATOM     11  C   UNL     1       1.900  -2.264   0.929  0.00  0.00    -0.001 C 
ATOM     12  C   UNL     1       0.401  -2.065   1.076  0.00  0.00    +0.005 C 
ATOM     13  C   UNL     1      -0.032  -0.840   0.241  0.00  0.00    +0.010 C 
ATOM     14  C   UNL     1       1.040   0.211   0.234  0.00  0.00    -0.002 C 
ATOM     15  C   UNL     1       1.933   0.160   1.489  0.00  0.00    +0.001 C 
ATOM     16  C   UNL     1       2.813   1.405   1.310  0.00  0.00    +0.007 C 
ATOM     17  C   UNL     1       1.846   2.456   0.702  0.00  0.00    +0.034 C 
ATOM     18  C   UNL     1       0.573   1.680   0.271  0.00  0.00    +0.057 C 
ATOM     19  C   UNL     1       1.880   0.085  -1.051  0.00  0.00    +0.014 C 
ENDROOT
BRANCH  18  20
ATOM     20  O   UNL     1       0.166   2.083  -1.036  0.00  0.00    -0.390 OA
ATOM     21  H   UNL     1       0.097   3.041  -1.149  0.00  0.00    +0.210 HD
ENDBRANCH  18  20
BRANCH  18  22
ATOM     22  C   UNL     1      -0.541   1.904   1.283  0.00  0.00    -0.043 C 
BRANCH  22  23
ATOM     23  N   UNL     1      -0.873   3.344   1.308  0.00  0.00    +0.384 N 
ATOM     24  H   UNL     1      -0.021   3.885   1.120  0.00  0.00    -0.082 HD
BRANCH  23  25
ATOM     25  C   UNL     1      -1.876   3.650   0.267  0.00  0.00    -0.050 C 
BRANCH  25  26
ATOM     26  C   UNL     1      -3.191   2.925   0.559  0.00  0.00    +0.137 C 
BRANCH  26  27
ATOM     27  O   UNL     1      -3.883   3.600   1.612  0.00  0.00    -0.397 OA
ATOM     28  H   UNL     1      -4.728   3.194   1.851  0.00  0.00    +0.209 HD
ENDBRANCH  26  27
ENDBRANCH  25  26
ENDBRANCH  23  25
BRANCH  23  29
ATOM     29  C   UNL     1      -1.396   3.719   2.639  0.00  0.00    -0.050 C 
BRANCH  29  30
ATOM     30  C   UNL     1      -1.370   5.244   2.765  0.00  0.00    +0.137 C 
BRANCH  30  31
ATOM     31  O   UNL     1      -2.321   5.812   1.862  0.00  0.00    -0.397 OA
ATOM     32  H   UNL     1      -2.307   6.779   1.833  0.00  0.00    +0.209 HD
ENDBRANCH  30  31
ENDBRANCH  29  30
ENDBRANCH  23  29
ENDBRANCH  22  23
ENDBRANCH  18  22
TORSDOF 9
