REMARK  Name = ZINC04111532
REMARK  10 active torsions:
REMARK  status: ('A' for Active; 'I' for Inactive)
REMARK    1  A    between atoms: C_1  and  C_2
REMARK    2  A    between atoms: C_2  and  O_3
REMARK    3  A    between atoms: O_3  and  C_4
REMARK    4  A    between atoms: C_12  and  C_14
REMARK    5  A    between atoms: N_19  and  C_30
REMARK    6  A    between atoms: C_20  and  C_22
REMARK    7  A    between atoms: C_25  and  O_28
REMARK    8  A    between atoms: O_28  and  C_29
REMARK    9  A    between atoms: C_33  and  O_36
REMARK   10  A    between atoms: O_36  and  C_37
REMARK                            x       y       z     vdW  Elec       q    Type
REMARK                         _______ _______ _______ _____ _____    ______ ____
ROOT
ATOM      1  C   UNL     1       2.293  -5.256   6.277  0.00  0.00    +0.109 C 
ATOM      2  C   UNL     1       2.909  -5.864   4.996  0.00  0.00    +0.111 C 
ATOM      3  C   UNL     1       4.394  -5.906   5.282  0.00  0.00    +0.221 C 
ATOM      4  O   UNL     1       5.259  -6.050   4.444  0.00  0.00    -0.275 OA
ATOM      5  N   UNL     1       4.615  -5.758   6.599  0.00  0.00    -0.263 N 
ATOM      6  C   UNL     1       3.355  -5.615   7.339  0.00  0.00    +0.124 C 
ENDROOT
BRANCH   1  15
ATOM      7  C   UNL     1      -2.231  -1.435   7.998  0.00  0.00    +0.403 C 
ATOM      8  O   UNL     1      -2.955  -2.054   8.753  0.00  0.00    -0.226 OA
ATOM      9  N   UNL     1      -1.292  -2.084   7.282  0.00  0.00    -0.264 N 
ATOM     10  C   UNL     1      -0.406  -1.348   6.370  0.00  0.00    +0.130 C 
ATOM     11  C   UNL     1       1.049  -1.656   6.745  0.00  0.00    +0.127 C 
ATOM     12  N   UNL     1       1.205  -3.113   6.862  0.00  0.00    -0.298 N 
ATOM     13  C   UNL     1       0.319  -3.849   7.774  0.00  0.00    +0.127 C 
ATOM     14  C   UNL     1      -1.132  -3.540   7.403  0.00  0.00    +0.130 C 
ATOM     15  C   UNL     1       2.145  -3.762   6.146  0.00  0.00    +0.221 C 
ATOM     16  O   UNL     1       2.870  -3.143   5.396  0.00  0.00    -0.275 OA
BRANCH   7  17
ATOM     17  O   UNL     1      -2.368  -0.101   7.878  0.00  0.00    -0.451 OA
BRANCH  17  19
ATOM     18  C   UNL     1      -3.387   2.027   8.398  0.00  0.00    +0.048 C 
ATOM     19  C   UNL     1      -3.383   0.521   8.667  0.00  0.00    +0.230 C 
ENDBRANCH  17  19
ENDBRANCH   7  17
ENDBRANCH   1  15
BRANCH   6  20
ATOM     20  C   UNL     1       3.470  -4.509   8.357  0.00  0.00    -0.026 A 
ATOM     21  C   UNL     1       4.202  -3.374   8.062  0.00  0.00    +0.009 A 
ATOM     22  C   UNL     1       4.309  -2.359   8.993  0.00  0.00    +0.046 A 
ATOM     23  C   UNL     1       3.680  -2.479  10.224  0.00  0.00    +0.120 A 
ATOM     24  C   UNL     1       2.946  -3.619  10.517  0.00  0.00    +0.046 A 
ATOM     25  C   UNL     1       2.837  -4.628   9.581  0.00  0.00    +0.009 A 
BRANCH  23  26
ATOM     26  O   UNL     1       3.784  -1.482  11.142  0.00  0.00    -0.495 OA
ATOM     27  C   UNL     1       3.111  -1.674  12.387  0.00  0.00    +0.277 C 
ENDBRANCH  23  26
ENDBRANCH   6  20
BRANCH   5  28
ATOM     28  C   UNL     1       5.886  -5.743   7.191  0.00  0.00    +0.037 A 
ATOM     29  C   UNL     1       6.007  -5.724   8.574  0.00  0.00    +0.027 A 
ATOM     30  C   UNL     1       7.259  -5.710   9.156  0.00  0.00    +0.047 A 
ATOM     31  C   UNL     1       8.395  -5.714   8.360  0.00  0.00    +0.120 A 
ATOM     32  C   UNL     1       8.274  -5.733   6.978  0.00  0.00    +0.047 A 
ATOM     33  C   UNL     1       7.023  -5.754   6.395  0.00  0.00    +0.027 A 
BRANCH  31  34
ATOM     34  O   UNL     1       9.628  -5.700   8.934  0.00  0.00    -0.495 OA
ATOM     35  C   UNL     1      10.753  -5.706   8.054  0.00  0.00    +0.277 C 
ENDBRANCH  31  34
ENDBRANCH   5  28
TORSDOF 7
