REMARK  Name = ZINC35606529
REMARK  5 active torsions:
REMARK  status: ('A' for Active; 'I' for Inactive)
REMARK    1  A    between atoms: C_1  and  C_2
REMARK    2  A    between atoms: C_6  and  C_24
REMARK    3  A    between atoms: C_7  and  N_8
REMARK    4  A    between atoms: C_9  and  C_13
REMARK    5  A    between atoms: C_13  and  N_23
REMARK                            x       y       z     vdW  Elec       q    Type
REMARK                         _______ _______ _______ _____ _____    ______ ____
ROOT
ATOM      1  C   UNL     1       0.202  -2.380   3.886  0.00  0.00    -0.002 C 
ATOM      2  C   UNL     1      -0.745  -3.456   3.350  0.00  0.00    -0.014 C 
ATOM      3  C   UNL     1      -0.187  -4.840   3.687  0.00  0.00    +0.006 C 
ATOM      4  C   UNL     1      -0.060  -4.983   5.205  0.00  0.00    -0.010 C 
ATOM      5  C   UNL     1      -1.438  -4.817   5.850  0.00  0.00    +0.007 C 
ATOM      6  C   UNL     1      -1.996  -3.433   5.513  0.00  0.00    -0.010 C 
ATOM      7  C   UNL     1      -2.123  -3.290   3.995  0.00  0.00    +0.006 C 
ATOM      8  C   UNL     1      -1.049  -2.357   6.049  0.00  0.00    +0.006 C 
ATOM      9  C   UNL     1       0.329  -2.523   5.404  0.00  0.00    -0.014 C 
ATOM     10  C   UNL     1       0.886  -3.907   5.742  0.00  0.00    +0.006 C 
ENDROOT
BRANCH   1  12
ATOM     11  N   UNL     1       0.372   0.104   3.329  0.00  0.00    -0.198 N 
ATOM     12  C   UNL     1      -0.347  -1.016   3.554  0.00  0.00    +0.146 A 
ATOM     13  N   UNL     1      -1.610  -0.698   3.431  0.00  0.00    -0.114 NA
ATOM     14  N   UNL     1      -1.737   0.547   3.143  0.00  0.00    -0.023 NA
ATOM     15  N   UNL     1      -0.578   1.107   3.068  0.00  0.00    -0.039 NA
BRANCH  11  22
ATOM     16  C   UNL     1       1.611   0.831   5.786  0.00  0.00    +0.046 C 
ATOM     17  C   UNL     1       2.412   0.592   4.532  0.00  0.00    -0.025 A 
ATOM     18  C   UNL     1       3.787   0.718   4.556  0.00  0.00    +0.005 A 
ATOM     19  C   UNL     1       4.522   0.498   3.406  0.00  0.00    +0.001 A 
ATOM     20  C   UNL     1       3.884   0.152   2.229  0.00  0.00    +0.005 A 
ATOM     21  C   UNL     1       2.509   0.025   2.199  0.00  0.00    -0.025 A 
ATOM     22  C   UNL     1       1.768   0.238   3.354  0.00  0.00    +0.075 A 
ATOM     23  C   UNL     1       1.814  -0.352   0.916  0.00  0.00    +0.046 C 
ENDBRANCH  11  22
ENDBRANCH   1  12
BRANCH   1  24
ATOM     24  N   UNL     1       1.525  -2.539   3.268  0.00  0.00    +0.387 N 
ATOM     25  H   UNL     1       2.178  -1.905   3.703  0.00  0.00    -0.089 HD
ATOM     26  H   UNL     1       1.842  -3.488   3.392  0.00  0.00    -0.089 HD
ATOM     27  H   UNL     1       1.462  -2.332   2.282  0.00  0.00    -0.089 HD
ENDBRANCH   1  24
TORSDOF 3
