REMARK  Name = ZINC05931415
REMARK  9 active torsions:
REMARK  status: ('A' for Active; 'I' for Inactive)
REMARK    1  A    between atoms: C_1  and  C_2
REMARK    2  A    between atoms: C_2  and  C_3
REMARK    3  A    between atoms: C_3  and  C_5
REMARK    4  A    between atoms: C_3  and  S_6
REMARK    5  A    between atoms: S_6  and  C_7
REMARK    6  A    between atoms: C_18  and  C_20
REMARK    7  A    between atoms: C_23  and  N_26
REMARK    8  A    between atoms: N_26  and  C_27
REMARK    9  A    between atoms: N_26  and  C_28
REMARK                            x       y       z     vdW  Elec       q    Type
REMARK                         _______ _______ _______ _____ _____    ______ ____
ROOT
ATOM      1  C   UNL     1      -1.861  -1.433   3.487  0.00  0.00    +0.171 A 
ATOM      2  N   UNL     1      -0.589  -0.954   3.570  0.00  0.00    -0.302 N 
ATOM      3  H   UNL     1      -0.067  -0.945   4.538  0.00  0.00    +0.171 HD
ATOM      4  C   UNL     1       0.033  -0.489   2.466  0.00  0.00    +0.258 A 
ATOM      5  O   UNL     1       1.173  -0.058   2.530  0.00  0.00    -0.267 OA
ATOM      6  C   UNL     1      -0.653  -0.512   1.247  0.00  0.00    +0.069 A 
ATOM      7  C   UNL     1      -1.945  -1.009   1.216  0.00  0.00    +0.135 A 
ATOM      8  N   UNL     1      -2.513  -1.456   2.342  0.00  0.00    -0.208 NA
ATOM      9  N   UNL     1      -2.637  -1.042   0.022  0.00  0.00    -0.302 N 
ATOM     10  C   UNL     1      -1.970  -0.978  -1.171  0.00  0.00    +0.017 C 
ATOM     11  C   UNL     1      -0.711  -0.500  -1.235  0.00  0.00    +0.024 C 
ATOM     12  C   UNL     1       0.003  -0.004  -0.003  0.00  0.00    +0.092 C 
ATOM     13  C   UNL     1      -0.017  -0.447  -2.459  0.00  0.00    +0.162 C 
ATOM     14  O   UNL     1       1.113  -0.002  -2.485  0.00  0.00    -0.292 OA
ATOM     15  C   UNL     1      -0.647  -0.932  -3.735  0.00  0.00    +0.080 C 
ATOM     16  C   UNL     1      -1.667  -2.026  -3.403  0.00  0.00    +0.014 C 
ATOM     17  C   UNL     1      -2.684  -1.454  -2.413  0.00  0.00    +0.051 C 
ATOM     18  H   UNL     1      -3.734  -1.120   0.024  0.00  0.00    +0.153 HD
ENDROOT
BRANCH  12  19
ATOM     19  C   UNL     1      -0.018   1.503   0.007  0.00  0.00    -0.035 A 
ATOM     20  C   UNL     1      -1.226   2.176   0.031  0.00  0.00    +0.006 A 
ATOM     21  C   UNL     1      -1.248   3.557   0.046  0.00  0.00    +0.023 A 
ATOM     22  C   UNL     1      -0.056   4.269   0.024  0.00  0.00    +0.029 A 
ATOM     23  C   UNL     1       1.155   3.590  -0.006  0.00  0.00    +0.023 A 
ATOM     24  C   UNL     1       1.171   2.209  -0.015  0.00  0.00    +0.006 A 
BRANCH  22  25
ATOM     25  N   UNL     1      -0.075   5.666   0.034  0.00  0.00    -0.336 N 
ATOM     26  C   UNL     1       1.180   6.415   0.138  0.00  0.00    +0.129 C 
ATOM     27  C   UNL     1      -1.349   6.382  -0.061  0.00  0.00    +0.129 C 
ENDBRANCH  22  25
ENDBRANCH  12  19
BRANCH   1  28
ATOM     28  S   UNL     1      -2.653  -2.035   4.942  0.00  0.00    -0.085 S 
BRANCH  28  29
ATOM     29  C   UNL     1      -4.254  -2.519   4.250  0.00  0.00    +0.051 C 
ATOM     30  C   UNL     1      -4.056  -3.671   3.262  0.00  0.00    +0.019 C 
BRANCH  29  32
ATOM     31  C   UNL     1      -5.481  -1.786   6.300  0.00  0.00    +0.005 C 
ATOM     32  C   UNL     1      -5.182  -2.971   5.380  0.00  0.00    +0.011 C 
ENDBRANCH  29  32
ENDBRANCH  28  29
ENDBRANCH   1  28
TORSDOF 5
