REMARK  Name = ZINC39012421
REMARK  6 active torsions:
REMARK  status: ('A' for Active; 'I' for Inactive)
REMARK    1  A    between atoms: C_1  and  C_2
REMARK    2  A    between atoms: C_2  and  O_3
REMARK    3  A    between atoms: O_3  and  C_4
REMARK    4  A    between atoms: C_8  and  C_10
REMARK    5  A    between atoms: N_16  and  N_17
REMARK    6  A    between atoms: C_18  and  C_19
REMARK                            x       y       z     vdW  Elec       q    Type
REMARK                         _______ _______ _______ _____ _____    ______ ____
ROOT
ATOM      1  C   UNL     1       2.451  -4.352  -3.947  0.00  0.00    +0.264 C 
ATOM      2  N   UNL     1       2.513  -3.613  -5.218  0.00  0.00    -0.189 NA
ATOM      3  N   UNL     1       2.036  -4.330  -6.102  0.00  0.00    -0.219 N 
ATOM      4  C   UNL     1       1.614  -5.540  -5.646  0.00  0.00    +0.174 C 
ATOM      5  S   UNL     1       0.907  -6.760  -6.617  0.00  0.00    -0.015 S 
ATOM      6  N   UNL     1       1.836  -5.641  -4.314  0.00  0.00    -0.172 N 
ATOM      7  H   UNL     1       1.968  -4.057  -7.030  0.00  0.00    +0.176 HD
ENDROOT
BRANCH   1  12
ATOM      8  C   UNL     1       0.764  -1.564  -2.035  0.00  0.00    +0.121 A 
ATOM      9  C   UNL     1       0.008  -2.279  -1.117  0.00  0.00    +0.045 A 
ATOM     10  C   UNL     1       0.045  -3.660  -1.120  0.00  0.00    +0.004 A 
ATOM     11  C   UNL     1       0.836  -4.330  -2.036  0.00  0.00    +0.007 A 
ATOM     12  C   UNL     1       1.591  -3.619  -2.951  0.00  0.00    +0.001 A 
ATOM     13  C   UNL     1       1.552  -2.238  -2.956  0.00  0.00    +0.053 A 
BRANCH   8  14
ATOM     14  O   UNL     1       0.729  -0.205  -2.034  0.00  0.00    -0.492 OA
BRANCH  14  16
ATOM     15  C   UNL     1      -0.016   1.941  -1.211  0.00  0.00    +0.048 C 
ATOM     16  C   UNL     1      -0.105   0.421  -1.057  0.00  0.00    +0.225 C 
ENDBRANCH  14  16
ENDBRANCH   8  14
ENDBRANCH   1  12
BRANCH   6  17
ATOM     17  N   UNL     1       1.547  -6.724  -3.473  0.00  0.00    -0.183 NA
ATOM     18  C   UNL     1       0.891  -7.746  -3.932  0.00  0.00    +0.139 C 
BRANCH  18  19
ATOM     19  C   UNL     1       0.723  -8.950  -3.098  0.00  0.00    +0.009 A 
ATOM     20  C   UNL     1       0.023 -10.054  -3.591  0.00  0.00    +0.010 A 
ATOM     21  C   UNL     1      -0.130 -11.176  -2.805  0.00  0.00    +0.001 A 
ATOM     22  C   UNL     1       0.408 -11.211  -1.530  0.00  0.00    +0.001 A 
ATOM     23  C   UNL     1       1.102 -10.123  -1.034  0.00  0.00    +0.016 A 
ATOM     24  C   UNL     1       1.269  -8.994  -1.812  0.00  0.00    +0.027 A 
ATOM     25 BR   UNL     1       2.226  -7.510  -1.136  0.00  0.00    -0.050 Br
ENDBRANCH  18  19
ENDBRANCH   6  17
TORSDOF 5
