REMARK  Name = ZINC02483493
REMARK  11 active torsions:
REMARK  status: ('A' for Active; 'I' for Inactive)
REMARK    1  A    between atoms: C_1  and  C_2
REMARK    2  A    between atoms: C_3  and  C_23
REMARK    3  A    between atoms: N_11  and  C_14
REMARK    4  A    between atoms: C_14  and  C_15
REMARK    5  A    between atoms: C_17  and  C_21
REMARK    6  A    between atoms: C_18  and  N_20
REMARK    7  A    between atoms: C_23  and  O_25
REMARK    8  A    between atoms: O_25  and  C_26
REMARK    9  A    between atoms: C_26  and  C_27
REMARK   10  A    between atoms: C_26  and  C_28
REMARK   11  A    between atoms: C_26  and  C_29
REMARK                            x       y       z     vdW  Elec       q    Type
REMARK                         _______ _______ _______ _____ _____    ______ ____
ROOT
ATOM      1  C   UNL     1       5.281   0.513  -2.385  0.00  0.00    +0.087 C 
ATOM      2  C   UNL     1       4.407   0.496  -1.157  0.00  0.00    +0.116 C 
ATOM      3  C   UNL     1       3.109   0.805  -1.282  0.00  0.00    +0.099 C 
ATOM      4  C   UNL     1       2.201   0.804  -0.086  0.00  0.00    +0.148 C 
ATOM      5  C   UNL     1       1.284  -0.393  -0.119  0.00  0.00    -0.001 A 
ATOM      6  C   UNL     1       1.511  -1.751  -0.105  0.00  0.00    +0.007 A 
ATOM      7  C   UNL     1       0.443  -2.630  -0.145  0.00  0.00    +0.000 A 
ATOM      8  C   UNL     1      -0.850  -2.140  -0.199  0.00  0.00    +0.002 A 
ATOM      9  C   UNL     1      -1.080  -0.780  -0.213  0.00  0.00    +0.024 A 
ATOM     10  C   UNL     1      -0.010   0.112  -0.173  0.00  0.00    +0.042 A 
ATOM     11  N   UNL     1       0.016   1.507  -0.178  0.00  0.00    -0.258 N 
ATOM     12  C   UNL     1       1.270   1.993  -0.130  0.00  0.00    +0.241 C 
ATOM     13  O   UNL     1       1.591   3.162  -0.123  0.00  0.00    -0.273 OA
ATOM     14  C   UNL     1       3.004   0.817   1.183  0.00  0.00    +0.110 C 
ATOM     15  C   UNL     1       4.324   0.505   1.163  0.00  0.00    +0.199 C 
ATOM     16  O   UNL     1       4.955   0.174   0.023  0.00  0.00    -0.445 OA
ENDROOT
BRANCH  15  17
ATOM     17  N   UNL     1       5.034   0.528   2.338  0.00  0.00    -0.328 N 
ATOM     18  H   UNL     1       5.978   0.307   2.338  0.00  0.00    +0.145 HD
ATOM     19  H   UNL     1       4.591   0.765   3.168  0.00  0.00    +0.145 HD
ENDBRANCH  15  17
BRANCH  14  20
ATOM     20  C   UNL     1       2.372   1.159   2.421  0.00  0.00    +0.102 C 
ATOM     21  N   UNL     1       1.871   1.431   3.404  0.00  0.00    -0.191 NA
ENDBRANCH  14  20
BRANCH   3  22
ATOM     22  C   UNL     1       2.587   1.135  -2.557  0.00  0.00    +0.341 C 
ATOM     23  O   UNL     1       3.334   1.245  -3.510  0.00  0.00    -0.245 OA
BRANCH  22  24
ATOM     24  O   UNL     1       1.260   1.327  -2.713  0.00  0.00    -0.456 OA
BRANCH  24  25
ATOM     25  C   UNL     1       0.804   1.657  -4.027  0.00  0.00    +0.106 C 
ATOM     26  C   UNL     1       1.173   0.530  -4.993  0.00  0.00    +0.055 C 
ATOM     27  C   UNL     1      -0.716   1.835  -4.008  0.00  0.00    +0.055 C 
ATOM     28  C   UNL     1       1.464   2.959  -4.484  0.00  0.00    +0.055 C 
ENDBRANCH  24  25
ENDBRANCH  22  24
ENDBRANCH   3  22
BRANCH  11  29
ATOM     29  C   UNL     1      -1.183   2.346  -0.236  0.00  0.00    +0.202 C 
BRANCH  29  30
ATOM     30  C   UNL     1      -1.647   2.633   1.131  0.00  0.00    -0.086 C 
ATOM     31  C   UNL     1      -2.017   2.862   2.222  0.00  0.00    +0.005 C 
ENDBRANCH  29  30
ENDBRANCH  11  29
TORSDOF 7
