REMARK  Name = ZINC13639951
REMARK  6 active torsions:
REMARK  status: ('A' for Active; 'I' for Inactive)
REMARK    1  A    between atoms: C_1  and  C_2
REMARK    2  A    between atoms: C_2  and  O_3
REMARK    3  A    between atoms: O_3  and  C_4
REMARK    4  A    between atoms: C_11  and  C_20
REMARK    5  A    between atoms: C_23  and  O_27
REMARK    6  A    between atoms: C_25  and  O_26
REMARK                            x       y       z     vdW  Elec       q    Type
REMARK                         _______ _______ _______ _____ _____    ______ ____
ROOT
ATOM      1  C   UNL     1      -0.214  -4.323   0.298  0.00  0.00    +0.142 A 
ATOM      2  C   UNL     1       0.319  -5.331  -0.481  0.00  0.00    +0.047 A 
ATOM      3  C   UNL     1       0.553  -5.118  -1.828  0.00  0.00    +0.004 A 
ATOM      4  C   UNL     1       0.260  -3.889  -2.387  0.00  0.00    +0.006 A 
ATOM      5  C   UNL     1      -0.264  -2.873  -1.615  0.00  0.00    -0.016 A 
ATOM      6  C   UNL     1      -0.523  -3.076  -0.258  0.00  0.00    +0.074 A 
ATOM      7  N   UNL     1      -1.078  -2.112   0.585  0.00  0.00    -0.334 N 
ATOM      8  C   UNL     1      -1.293  -0.775   0.010  0.00  0.00    +0.109 C 
ATOM      9  C   UNL     1      -1.783  -0.974  -1.409  0.00  0.00    +0.029 C 
ATOM     10  C   UNL     1      -0.546  -1.535  -2.178  0.00  0.00    +0.049 C 
ATOM     11  C   UNL     1      -0.931  -1.326  -3.595  0.00  0.00    -0.023 C 
ATOM     12  C   UNL     1      -1.742  -0.276  -3.662  0.00  0.00    -0.030 C 
ATOM     13  C   UNL     1      -1.991   0.281  -2.259  0.00  0.00    +0.033 C 
ATOM     14  H   UNL     1      -0.567  -2.054   1.453  0.00  0.00    +0.147 HD
ENDROOT
BRANCH   8  15
ATOM     15  C   UNL     1       0.002  -0.004   0.002  0.00  0.00    +0.015 A 
ATOM     16  C   UNL     1       1.208  -0.680  -0.013  0.00  0.00    +0.012 A 
ATOM     17  C   UNL     1       2.396   0.024  -0.021  0.00  0.00    +0.046 A 
ATOM     18  C   UNL     1       2.383   1.412  -0.014  0.00  0.00    +0.120 A 
ATOM     19  C   UNL     1       1.175   2.092   0.002  0.00  0.00    +0.091 A 
ATOM     20  C   UNL     1      -0.017   1.383   0.010  0.00  0.00    +0.125 A 
BRANCH  20  21
ATOM     21  O   UNL     1      -1.202   2.047   0.019  0.00  0.00    -0.506 OA
ATOM     22  H   UNL     1      -1.541   2.235   0.905  0.00  0.00    +0.292 HD
ENDBRANCH  20  21
BRANCH  18  23
ATOM     23  O   UNL     1       3.553   2.103  -0.021  0.00  0.00    -0.507 OA
ATOM     24  H   UNL     1       3.883   2.308  -0.906  0.00  0.00    +0.292 HD
ENDBRANCH  18  23
ENDBRANCH   8  15
BRANCH   1  25
ATOM     25  O   UNL     1      -0.441  -4.544   1.621  0.00  0.00    -0.490 OA
BRANCH  25  27
ATOM     26  C   UNL     1      -0.427  -5.897   3.624  0.00  0.00    +0.048 C 
ATOM     27  C   UNL     1      -0.104  -5.837   2.130  0.00  0.00    +0.226 C 
ENDBRANCH  25  27
ENDBRANCH   1  25
TORSDOF 5
