REMARK  Name = ZINC08762469
REMARK  9 active torsions:
REMARK  status: ('A' for Active; 'I' for Inactive)
REMARK    1  A    between atoms: C_1  and  C_2
REMARK    2  A    between atoms: C_9  and  O_20
REMARK    3  A    between atoms: C_12  and  C_14
REMARK    4  A    between atoms: C_23  and  O_35
REMARK    5  A    between atoms: C_24  and  C_31
REMARK    6  A    between atoms: C_27  and  O_30
REMARK    7  A    between atoms: C_32  and  C_33
REMARK    8  A    between atoms: C_32  and  N_69
REMARK    9  A    between atoms: C_33  and  O_34
REMARK                            x       y       z     vdW  Elec       q    Type
REMARK                         _______ _______ _______ _____ _____    ______ ____
ROOT
ATOM      1  C   UNL     1       4.075   0.402  -1.818  0.00  0.00    +0.014 C 
ATOM      2  C   UNL     1       5.346   0.561  -0.981  0.00  0.00    +0.004 C 
ATOM      3  C   UNL     1       6.563   0.881  -1.852  0.00  0.00    +0.010 C 
ATOM      4  C   UNL     1       6.988  -0.344  -2.658  0.00  0.00    +0.005 C 
ATOM      5  C   UNL     1       7.402  -1.452  -1.684  0.00  0.00    +0.009 C 
ATOM      6  C   UNL     1       6.183  -1.845  -0.851  0.00  0.00    +0.025 C 
ATOM      7  C   UNL     1       5.619  -0.667  -0.095  0.00  0.00    +0.075 C 
ATOM      8  C   UNL     1       6.587  -0.130   0.975  0.00  0.00    +0.036 C 
ATOM      9  C   UNL     1       6.036   1.281   1.284  0.00  0.00    +0.011 C 
ATOM     10  C   UNL     1       5.221   1.714   0.051  0.00  0.00    +0.027 C 
ATOM     11  C   UNL     1       6.564  -2.969   0.115  0.00  0.00    +0.009 C 
ATOM     12  C   UNL     1       7.053  -4.181  -0.680  0.00  0.00    +0.036 C 
ATOM     13  C   UNL     1       8.274  -3.787  -1.513  0.00  0.00    +0.079 C 
ATOM     14  C   UNL     1       7.891  -2.665  -2.479  0.00  0.00    +0.036 C 
ATOM     15  C   UNL     1       9.112  -2.270  -3.312  0.00  0.00    +0.018 C 
ATOM     16  C   UNL     1      10.228  -1.785  -2.384  0.00  0.00    +0.032 C 
ATOM     17  C   UNL     1      10.611  -2.908  -1.417  0.00  0.00    +0.117 C 
ATOM     18  C   UNL     1       9.389  -3.303  -0.584  0.00  0.00    +0.067 C 
ENDROOT
BRANCH  10  19
ATOM     19  C   UNL     1       3.777   1.916   0.429  0.00  0.00    -0.022 C 
ATOM     20  C   UNL     1       3.031   2.986   0.165  0.00  0.00    +0.094 C 
ATOM     21  C   UNL     1       1.682   2.787   0.703  0.00  0.00    +0.332 C 
ATOM     22  O   UNL     1       0.771   3.587   0.615  0.00  0.00    -0.246 OA
ATOM     23  O   UNL     1       1.600   1.585   1.304  0.00  0.00    -0.457 OA
ATOM     24  C   UNL     1       2.900   0.943   1.182  0.00  0.00    +0.264 C 
ENDBRANCH  10  19
BRANCH  14  25
ATOM     25  C   UNL     1       6.793  -3.142  -3.394  0.00  0.00    +0.060 C 
ATOM     26  N   UNL     1       7.041  -3.144  -4.684  0.00  0.00    -0.391 N 
ATOM     27  H   UNL     1       7.954  -2.829  -5.032  0.00  0.00    +0.159 HD
BRANCH  26  28
ATOM     28  C   UNL     1       5.988  -3.609  -5.651  0.00  0.00    +0.139 C 
BRANCH  28  29
ATOM     29  C   UNL     1       5.584  -2.426  -6.533  0.00  0.00    +0.176 C 
BRANCH  29  30
ATOM     30  O   UNL     1       6.712  -1.993  -7.297  0.00  0.00    -0.393 OA
ATOM     31  H   UNL     1       6.528  -1.244  -7.880  0.00  0.00    +0.209 HD
ENDBRANCH  29  30
ENDBRANCH  28  29
ENDBRANCH  26  28
ENDBRANCH  14  25
BRANCH   7  32
ATOM     32  O   UNL     1       4.405  -1.060   0.548  0.00  0.00    -0.388 OA
ATOM     33  H   UNL     1       4.497  -1.830   1.125  0.00  0.00    +0.210 HD
ENDBRANCH   7  32
BRANCH  17  34
ATOM     34  O   UNL     1      11.067  -4.041  -2.160  0.00  0.00    -0.392 OA
ATOM     35  H   UNL     1      11.841  -3.863  -2.712  0.00  0.00    +0.210 HD
ENDBRANCH  17  34
BRANCH  13  36
ATOM     36  O   UNL     1       8.730  -4.920  -2.255  0.00  0.00    -0.388 OA
ATOM     37  H   UNL     1       8.990  -5.672  -1.705  0.00  0.00    +0.210 HD
ENDBRANCH  13  36
TORSDOF 8
