REMARK  Name = ZINC35447970
REMARK  7 active torsions:
REMARK  status: ('A' for Active; 'I' for Inactive)
REMARK    1  A    between atoms: C_1  and  C_2
REMARK    2  A    between atoms: C_5  and  C_8
REMARK    3  A    between atoms: N_10  and  C_11
REMARK    4  A    between atoms: C_13  and  C_33
REMARK    5  A    between atoms: C_16  and  O_17
REMARK    6  A    between atoms: O_17  and  C_18
REMARK    7  A    between atoms: C_18  and  C_19
REMARK                            x       y       z     vdW  Elec       q    Type
REMARK                         _______ _______ _______ _____ _____    ______ ____
ROOT
ATOM      1  C   UNL     1       0.002  -6.329   1.189  0.00  0.00    +0.076 A 
ATOM      2  C   UNL     1       0.017  -7.066   0.014  0.00  0.00    +0.030 A 
ATOM      3  C   UNL     1      -0.054  -8.446   0.063  0.00  0.00    -0.048 A 
ATOM      4  C   UNL     1      -0.140  -9.094   1.282  0.00  0.00    +0.007 A 
ATOM      5  C   UNL     1      -0.156  -8.366   2.457  0.00  0.00    +0.048 A 
ATOM      6  C   UNL     1      -0.079  -6.983   2.417  0.00  0.00    +0.142 A 
ATOM      7  C   UNL     1      -0.037  -9.245  -1.214  0.00  0.00    +0.044 C 
ENDROOT
BRANCH   1  10
ATOM      8  C   UNL     1      -0.513  -4.260   0.131  0.00  0.00    +0.248 C 
ATOM      9  O   UNL     1      -1.034  -4.870  -0.782  0.00  0.00    -0.270 OA
ATOM     10  N   UNL     1       0.074  -4.931   1.142  0.00  0.00    -0.279 N 
ATOM     11  H   UNL     1       0.546  -4.446   1.837  0.00  0.00    +0.155 HD
BRANCH   8  16
ATOM     12  C   UNL     1      -0.551   1.494   0.138  0.00  0.00    +0.044 C 
ATOM     13  C   UNL     1      -0.541  -0.013   0.137  0.00  0.00    -0.050 A 
ATOM     14  C   UNL     1      -1.135  -0.704  -0.905  0.00  0.00    +0.004 A 
ATOM     15  C   UNL     1      -1.129  -2.084  -0.913  0.00  0.00    +0.013 A 
ATOM     16  C   UNL     1      -0.522  -2.782   0.133  0.00  0.00    +0.037 A 
ATOM     17  C   UNL     1       0.075  -2.078   1.180  0.00  0.00    +0.013 A 
ATOM     18  C   UNL     1       0.067  -0.699   1.173  0.00  0.00    +0.004 A 
ENDBRANCH   8  16
ENDBRANCH   1  10
BRANCH   6  19
ATOM     19  O   UNL     1      -0.089  -6.266   3.572  0.00  0.00    -0.484 OA
BRANCH  19  20
ATOM     20  C   UNL     1      -0.174  -7.004   4.793  0.00  0.00    +0.282 C 
BRANCH  20  21
ATOM     21  C   UNL     1      -0.172  -6.049   5.958  0.00  0.00    +0.061 A 
ATOM     22  C   UNL     1      -0.101  -4.688   5.750  0.00  0.00    +0.095 A 
ATOM     23  C   UNL     1      -0.100  -3.819   6.841  0.00  0.00    +0.259 A 
ATOM     24  O   UNL     1      -0.037  -2.612   6.663  0.00  0.00    -0.267 OA
ATOM     25  N   UNL     1      -0.169  -4.321   8.111  0.00  0.00    -0.260 N 
ATOM     26  C   UNL     1      -0.176  -3.567   9.277  0.00  0.00    +0.039 A 
ATOM     27  C   UNL     1      -0.250  -4.211  10.449  0.00  0.00    +0.013 A 
ATOM     28  S   UNL     1      -0.314  -5.923   9.988  0.00  0.00    -0.056 S 
ATOM     29  C   UNL     1      -0.237  -5.680   8.226  0.00  0.00    +0.159 A 
ATOM     30  N   UNL     1      -0.244  -6.503   7.207  0.00  0.00    -0.336 N 
ATOM     31  C   UNL     1      -0.272  -3.621  11.822  0.00  0.00    +0.044 C 
ATOM     32  C   UNL     1       0.169  -2.153  11.726  0.00  0.00    +0.006 C 
ATOM     33  C   UNL     1      -0.594  -1.489  10.575  0.00  0.00    +0.006 C 
ATOM     34  C   UNL     1      -0.103  -2.042   9.238  0.00  0.00    +0.055 C 
ATOM     35  H   UNL     1      -0.299  -7.459   7.365  0.00  0.00    +0.168 HD
ENDBRANCH  20  21
ENDBRANCH  19  20
ENDBRANCH   6  19
TORSDOF 5
