REMARK  Name = ZINC04664849
REMARK  8 active torsions:
REMARK  status: ('A' for Active; 'I' for Inactive)
REMARK    1  A    between atoms: C_1  and  C_2
REMARK    2  A    between atoms: C_7  and  C_23
REMARK    3  A    between atoms: C_9  and  C_10
REMARK    4  A    between atoms: C_9  and  N_45
REMARK    5  A    between atoms: C_10  and  C_12
REMARK    6  A    between atoms: C_10  and  O_13
REMARK    7  A    between atoms: O_13  and  C_14
REMARK    8  A    between atoms: C_14  and  C_16
REMARK                            x       y       z     vdW  Elec       q    Type
REMARK                         _______ _______ _______ _____ _____    ______ ____
ROOT
ATOM      1  C   UNL     1      -4.543   1.325   0.642  0.00  0.00    +0.157 C 
ATOM      2  C   UNL     1      -4.778   0.797  -0.775  0.00  0.00    +0.050 C 
ENDROOT
BRANCH   1   3
ATOM      3  C   UNL     1      -5.688   2.261   1.033  0.00  0.00    -0.033 C 
BRANCH   3  11
ATOM      4  C   UNL     1      -7.895   2.017   2.761  0.00  0.00    -0.013 C 
ATOM      5  C   UNL     1      -6.832   3.092   2.998  0.00  0.00    -0.071 C 
ATOM      6  C   UNL     1      -6.683   3.340   4.501  0.00  0.00    -0.016 C 
ATOM      7  C   UNL     1      -5.604   4.401   4.734  0.00  0.00    -0.003 C 
ATOM      8  C   UNL     1      -4.290   3.928   4.107  0.00  0.00    -0.016 C 
ATOM      9  C   UNL     1      -4.509   3.664   2.615  0.00  0.00    -0.071 C 
ATOM     10  C   UNL     1      -4.949   4.958   1.927  0.00  0.00    -0.013 C 
ATOM     11  N   UNL     1      -5.540   2.616   2.460  0.00  0.00    +0.385 N 
ATOM     12  H   UNL     1      -5.249   1.782   2.982  0.00  0.00    -0.081 HD
ENDBRANCH   3  11
ENDBRANCH   1   3
BRANCH   1  13
ATOM     13  O   UNL     1      -3.287   2.051   0.686  0.00  0.00    -0.460 OA
BRANCH  13  14
ATOM     14  C   UNL     1      -2.181   1.342   0.986  0.00  0.00    +0.340 C 
ATOM     15  O   UNL     1      -2.265   0.150   1.206  0.00  0.00    -0.245 OA
BRANCH  14  16
ATOM     16  C   UNL     1      -0.868   2.014   1.049  0.00  0.00    +0.072 A 
ATOM     17  C   UNL     1      -0.769   3.386   0.803  0.00  0.00    +0.016 A 
ATOM     18  C   UNL     1       0.461   4.006   0.858  0.00  0.00    +0.001 A 
ATOM     19  C   UNL     1       1.596   3.274   1.161  0.00  0.00    +0.001 A 
ATOM     20  C   UNL     1       1.506   1.917   1.412  0.00  0.00    +0.015 A 
ATOM     21  C   UNL     1       0.281   1.283   1.361  0.00  0.00    +0.027 A 
ATOM     22  I   UNL     1       0.145  -0.773   1.741  0.00  0.00    -0.043 I 
ENDBRANCH  14  16
ENDBRANCH  13  14
ENDBRANCH   1  13
TORSDOF 5
