REMARK  Name = ZINC42187531
REMARK  6 active torsions:
REMARK  status: ('A' for Active; 'I' for Inactive)
REMARK    1  A    between atoms: C_1  and  C_2
REMARK    2  A    between atoms: C_2  and  N_3
REMARK    3  A    between atoms: C_4  and  N_19
REMARK    4  A    between atoms: C_5  and  N_12
REMARK    5  A    between atoms: N_12  and  C_13
REMARK    6  A    between atoms: C_13  and  C_18
REMARK                            x       y       z     vdW  Elec       q    Type
REMARK                         _______ _______ _______ _____ _____    ______ ____
ROOT
ATOM      1  N   UNL     1       1.585  -0.427  -1.317  0.00  0.00    -0.281 N 
ATOM      2  C   UNL     1       0.661  -0.643  -2.314  0.00  0.00    +0.127 A 
ATOM      3  C   UNL     1       1.091  -1.008  -3.560  0.00  0.00    +0.131 A 
ATOM      4  C   UNL     1       2.472  -1.153  -3.790  0.00  0.00    +0.277 A 
ATOM      5  O   UNL     1       2.880  -1.477  -4.892  0.00  0.00    -0.266 OA
ATOM      6  N   UNL     1       3.340  -0.930  -2.784  0.00  0.00    -0.273 N 
ATOM      7  H   UNL     1       4.292  -1.029  -2.941  0.00  0.00    +0.173 HD
ATOM      8  C   UNL     1       2.900  -0.567  -1.566  0.00  0.00    +0.331 A 
ATOM      9  O   UNL     1       3.702  -0.367  -0.674  0.00  0.00    -0.246 OA
ENDROOT
BRANCH   2  10
ATOM     10  N   UNL     1      -0.684  -0.495  -2.059  0.00  0.00    -0.343 N 
ATOM     11  H   UNL     1      -0.984  -0.236  -1.174  0.00  0.00    +0.144 HD
ATOM     12  H   UNL     1      -1.331  -0.649  -2.765  0.00  0.00    +0.144 HD
ENDBRANCH   2  10
BRANCH   1  14
ATOM     13  C   UNL     1       1.054   1.490   0.106  0.00  0.00    +0.027 C 
ATOM     14  C   UNL     1       1.134  -0.035   0.021  0.00  0.00    +0.125 C 
ENDBRANCH   1  14
BRANCH   3  15
ATOM     15  N   UNL     1       0.163  -1.238  -4.602  0.00  0.00    -0.332 N 
ATOM     16  H   UNL     1      -0.779  -1.055  -4.461  0.00  0.00    +0.147 HD
BRANCH  15  17
ATOM     17  C   UNL     1       0.624  -1.750  -5.895  0.00  0.00    +0.030 C 
ATOM     18  C   UNL     1       1.579  -0.738  -6.553  0.00  0.00    +0.025 C 
ATOM     19  C   UNL     1       0.929  -0.324  -7.889  0.00  0.00    +0.002 C 
ATOM     20  C   UNL     1      -0.580  -0.606  -7.682  0.00  0.00    +0.002 C 
ATOM     21  C   UNL     1      -0.572  -1.915  -6.855  0.00  0.00    +0.025 C 
ATOM     22  C   UNL     1       1.333  -3.092  -5.703  0.00  0.00    +0.031 C 
ENDBRANCH  15  17
ENDBRANCH   3  15
TORSDOF 4
