REMARK  Name = ZINC32909572
REMARK  6 active torsions:
REMARK  status: ('A' for Active; 'I' for Inactive)
REMARK    1  A    between atoms: C_1  and  C_2
REMARK    2  A    between atoms: C_4  and  C_17
REMARK    3  A    between atoms: N_8  and  C_11
REMARK    4  A    between atoms: C_11  and  C_12
REMARK    5  A    between atoms: N_19  and  N_20
REMARK    6  A    between atoms: C_21  and  C_23
REMARK                            x       y       z     vdW  Elec       q    Type
REMARK                         _______ _______ _______ _____ _____    ______ ____
ROOT
ATOM      1  C   UNL     1      -7.188   1.892  -0.209  0.00  0.00    +0.261 C 
ATOM      2  O   UNL     1      -7.299   0.847  -0.820  0.00  0.00    -0.269 OA
ATOM      3  N   UNL     1      -5.965   2.358   0.111  0.00  0.00    -0.230 N 
ATOM      4  H   UNL     1      -5.864   3.304   0.664  0.00  0.00    +0.173 HD
ENDROOT
BRANCH   1   8
ATOM      5  C   UNL     1      -9.335   5.829   1.994  0.00  0.00    +0.065 C 
ATOM      6  C   UNL     1      -9.450   4.532   1.235  0.00  0.00    +0.041 A 
ATOM      7  C   UNL     1      -8.294   3.847   0.889  0.00  0.00    +0.037 A 
ATOM      8  C   UNL     1      -8.395   2.651   0.183  0.00  0.00    +0.052 A 
ATOM      9  C   UNL     1      -9.688   2.183  -0.140  0.00  0.00    +0.051 A 
ATOM     10  C   UNL     1     -10.176   1.047  -0.820  0.00  0.00    +0.145 A 
ATOM     11  N   UNL     1     -11.477   1.102  -0.840  0.00  0.00    -0.177 NA
ATOM     12  N   UNL     1     -11.912   2.260  -0.184  0.00  0.00    -0.241 N 
ATOM     13  C   UNL     1     -10.807   2.942   0.257  0.00  0.00    +0.159 A 
ATOM     14  N   UNL     1     -10.642   4.076   0.922  0.00  0.00    -0.233 NA
BRANCH  12  15
ATOM     15  C   UNL     1     -13.306   2.671  -0.000  0.00  0.00    +0.188 C 
BRANCH  15  16
ATOM     16  C   UNL     1     -13.735   3.526  -1.164  0.00  0.00    +0.011 A 
ATOM     17  C   UNL     1     -14.295   3.149  -2.340  0.00  0.00    +0.013 A 
ATOM     18  C   UNL     1     -14.614   4.119  -3.272  0.00  0.00    +0.008 A 
ATOM     19  C   UNL     1     -14.347   5.417  -2.987  0.00  0.00    +0.045 A 
ATOM     20  S   UNL     1     -13.631   5.298  -1.357  0.00  0.00    -0.100 S 
ENDBRANCH  15  16
ENDBRANCH  12  15
ENDBRANCH   1   8
BRANCH   3  21
ATOM     21  N   UNL     1      -4.821   1.639  -0.261  0.00  0.00    -0.231 N 
ATOM     22  C   UNL     1      -3.598   2.106   0.059  0.00  0.00    +0.273 C 
ATOM     23  O   UNL     1      -3.487   3.148   0.669  0.00  0.00    -0.270 OA
ATOM     24  H   UNL     1      -4.922   0.694  -0.814  0.00  0.00    +0.173 HD
BRANCH  22  25
ATOM     25  C   UNL     1      -2.368   1.333  -0.341  0.00  0.00    +0.297 C 
ATOM     26  C   UNL     1      -2.343  -0.015   0.393  0.00  0.00    +0.283 C 
ATOM     27  O   UNL     1      -1.158  -0.716   0.002  0.00  0.00    -0.484 OA
ATOM     28  C   UNL     1       0.002  -0.004   0.002  0.00  0.00    +0.162 A 
ATOM     29  C   UNL     1       1.215  -0.677  -0.009  0.00  0.00    +0.049 A 
ATOM     30  C   UNL     1       2.401   0.032  -0.015  0.00  0.00    +0.004 A 
ATOM     31  C   UNL     1       2.382   1.414  -0.011  0.00  0.00    +0.004 A 
ATOM     32  C   UNL     1       1.177   2.091   0.002  0.00  0.00    +0.049 A 
ATOM     33  C   UNL     1      -0.017   1.385   0.010  0.00  0.00    +0.163 A 
ATOM     34  O   UNL     1      -1.195   2.066   0.030  0.00  0.00    -0.472 OA
ENDBRANCH  22  25
ENDBRANCH   3  21
TORSDOF 5
