REMARK  Name = ZINC36145814
REMARK  11 active torsions:
REMARK  status: ('A' for Active; 'I' for Inactive)
REMARK    1  A    between atoms: C_1  and  C_2
REMARK    2  A    between atoms: C_7  and  C_8
REMARK    3  A    between atoms: C_11  and  C_14
REMARK    4  A    between atoms: C_14  and  N_15
REMARK    5  A    between atoms: N_15  and  C_16
REMARK    6  A    between atoms: N_15  and  C_25
REMARK    7  A    between atoms: C_16  and  C_17
REMARK    8  A    between atoms: C_25  and  C_26
REMARK    9  A    between atoms: C_26  and  C_28
REMARK   10  A    between atoms: C_26  and  O_35
REMARK   11  A    between atoms: C_28  and  C_29
REMARK                            x       y       z     vdW  Elec       q    Type
REMARK                         _______ _______ _______ _____ _____    ______ ____
ROOT
ATOM      1  N   UNL     1      -0.459   1.675   6.842  0.00  0.00    +0.387 N 
ATOM      2  H   UNL     1      -1.326   1.756   7.352  0.00  0.00    -0.081 HD
ENDROOT
BRANCH   1   3
ATOM      3  C   UNL     1      -0.548   0.549   5.902  0.00  0.00    -0.030 C 
BRANCH   3   7
ATOM      4  C   UNL     1      -2.484  -2.533   6.359  0.00  0.00    +0.091 C 
ATOM      5  N   UNL     1      -2.934  -1.737   7.270  0.00  0.00    -0.089 NA
ATOM      6  O   UNL     1      -2.218  -0.520   7.339  0.00  0.00    -0.392 OA
ATOM      7  C   UNL     1      -0.962  -0.715   6.658  0.00  0.00    +0.194 C 
ATOM      8  C   UNL     1      -1.306  -1.861   5.680  0.00  0.00    +0.104 C 
BRANCH   4  15
ATOM      9  C   UNL     1      -4.792  -3.531   7.791  0.00  0.00    +0.044 C 
ATOM     10  C   UNL     1      -4.134  -4.363   6.721  0.00  0.00    -0.041 A 
ATOM     11  C   UNL     1      -4.633  -5.611   6.411  0.00  0.00    +0.004 A 
ATOM     12  C   UNL     1      -4.030  -6.377   5.429  0.00  0.00    +0.000 A 
ATOM     13  C   UNL     1      -2.923  -5.897   4.752  0.00  0.00    +0.001 A 
ATOM     14  C   UNL     1      -2.413  -4.651   5.051  0.00  0.00    +0.010 A 
ATOM     15  C   UNL     1      -3.021  -3.871   6.037  0.00  0.00    +0.002 A 
ENDBRANCH   4  15
ENDBRANCH   3   7
ENDBRANCH   1   3
BRANCH   1  16
ATOM     16  C   UNL     1      -0.211   2.917   6.097  0.00  0.00    -0.040 C 
BRANCH  16  17
ATOM     17  C   UNL     1      -1.359   3.176   5.156  0.00  0.00    -0.029 A 
ATOM     18  C   UNL     1      -1.199   2.974   3.798  0.00  0.00    +0.007 A 
ATOM     19  C   UNL     1      -2.251   3.211   2.934  0.00  0.00    +0.039 A 
ATOM     20  C   UNL     1      -3.468   3.651   3.428  0.00  0.00    +0.126 A 
ATOM     21  C   UNL     1      -3.630   3.854   4.788  0.00  0.00    +0.076 A 
ATOM     22  C   UNL     1      -2.576   3.611   5.653  0.00  0.00    +0.127 A 
ATOM     23  F   UNL     1      -2.735   3.802   6.981  0.00  0.00    -0.205 F 
ATOM     24  F   UNL     1      -4.496   3.884   2.583  0.00  0.00    -0.205 F 
ENDBRANCH  16  17
ENDBRANCH   1  16
BRANCH   1  25
ATOM     25  C   UNL     1       0.643   1.441   7.784  0.00  0.00    -0.046 C 
BRANCH  25  26
ATOM     26  C   UNL     1       0.616   2.511   8.877  0.00  0.00    +0.102 C 
BRANCH  26  27
ATOM     27  O   UNL     1       0.958   3.778   8.311  0.00  0.00    -0.393 OA
ATOM     28  H   UNL     1       1.836   3.805   7.907  0.00  0.00    +0.210 HD
ENDBRANCH  26  27
BRANCH  26  29
ATOM     29  C   UNL     1       1.626   2.151   9.968  0.00  0.00    +0.064 C 
BRANCH  29  30
ATOM     30  C   UNL     1       1.514   3.137  11.102  0.00  0.00    -0.045 A 
ATOM     31  C   UNL     1       2.275   4.291  11.093  0.00  0.00    +0.004 A 
ATOM     32  C   UNL     1       2.172   5.196  12.133  0.00  0.00    +0.000 A 
ATOM     33  C   UNL     1       1.306   4.947  13.182  0.00  0.00    +0.000 A 
ATOM     34  C   UNL     1       0.544   3.794  13.191  0.00  0.00    +0.000 A 
ATOM     35  C   UNL     1       0.644   2.891  12.149  0.00  0.00    +0.004 A 
ENDBRANCH  29  30
ENDBRANCH  26  29
ENDBRANCH  25  26
ENDBRANCH   1  25
TORSDOF 10
