REMARK  Name = ZINC38556370
REMARK  7 active torsions:
REMARK  status: ('A' for Active; 'I' for Inactive)
REMARK    1  A    between atoms: C_6  and  C_7
REMARK    2  A    between atoms: C_9  and  C_13
REMARK    3  A    between atoms: C_17  and  S_21
REMARK    4  A    between atoms: N_19  and  N_20
REMARK    5  A    between atoms: S_21  and  C_22
REMARK    6  A    between atoms: C_22  and  C_23
REMARK    7  A    between atoms: C_23  and  C_25
REMARK                            x       y       z     vdW  Elec       q    Type
REMARK                         _______ _______ _______ _____ _____    ______ ____
ROOT
ATOM      1  C   UNL     1      -3.321  -3.193   1.123  0.00  0.00    +0.244 C 
ATOM      2  N   UNL     1      -3.051  -2.459   2.366  0.00  0.00    -0.167 NA
ATOM      3  N   UNL     1      -4.092  -2.005   2.852  0.00  0.00    -0.159 NA
ATOM      4  C   UNL     1      -5.257  -2.349   2.027  0.00  0.00    +0.272 C 
ATOM      5  N   UNL     1      -4.784  -3.445   1.140  0.00  0.00    -0.183 NA
ENDROOT
BRANCH   1   8
ATOM      6  C   UNL     1      -1.274  -0.819  -0.058  0.00  0.00    +0.091 C 
ATOM      7  C   UNL     1      -1.436  -2.152  -0.161  0.00  0.00    +0.035 C 
ATOM      8  C   UNL     1      -2.940  -2.343  -0.091  0.00  0.00    +0.195 C 
ATOM      9  N   UNL     1      -3.447  -0.969   0.053  0.00  0.00    -0.176 NA
ATOM     10  N   UNL     1      -2.480  -0.204   0.068  0.00  0.00    -0.154 NA
BRANCH   6  16
ATOM     11  C   UNL     1       0.088   1.267   0.044  0.00  0.00    +0.011 A 
ATOM     12  C   UNL     1       1.308   1.911   0.029  0.00  0.00    +0.020 A 
ATOM     13  C   UNL     1       2.478   1.182  -0.104  0.00  0.00    +0.041 A 
ATOM     14  C   UNL     1       2.429  -0.196  -0.223  0.00  0.00    +0.020 A 
ATOM     15  C   UNL     1       1.214  -0.850  -0.209  0.00  0.00    +0.011 A 
ATOM     16  C   UNL     1       0.035  -0.121  -0.075  0.00  0.00    +0.002 A 
ATOM     17 CL   UNL     1       4.009   1.999  -0.123  0.00  0.00    -0.084 Cl
ENDBRANCH   6  16
ENDBRANCH   1   8
BRANCH   5  18
ATOM     18  N   UNL     1      -5.083  -4.747   1.714  0.00  0.00    -0.263 NA
ATOM     19  H   UNL     1      -6.066  -4.960   1.635  0.00  0.00    +0.137 HD
ATOM     20  H   UNL     1      -4.521  -5.468   1.287  0.00  0.00    +0.137 HD
ENDBRANCH   5  18
BRANCH   4  21
ATOM     21  S   UNL     1      -6.624  -2.924   3.072  0.00  0.00    -0.108 S 
BRANCH  21  22
ATOM     22  C   UNL     1      -7.270  -1.405   3.825  0.00  0.00    +0.152 C 
BRANCH  22  23
ATOM     23  C   UNL     1      -8.344  -1.756   4.822  0.00  0.00    +0.173 C 
ATOM     24  O   UNL     1      -8.644  -2.917   5.006  0.00  0.00    -0.291 OA
BRANCH  23  25
ATOM     25  C   UNL     1      -9.029  -0.692   5.571  0.00  0.00    +0.018 A 
ATOM     26  C   UNL     1      -8.689   0.648   5.356  0.00  0.00    +0.013 A 
ATOM     27  C   UNL     1      -9.335   1.641   6.062  0.00  0.00    +0.020 A 
ATOM     28  C   UNL     1     -10.319   1.314   6.982  0.00  0.00    +0.041 A 
ATOM     29  C   UNL     1     -10.660  -0.011   7.199  0.00  0.00    +0.020 A 
ATOM     30  C   UNL     1     -10.027  -1.014   6.497  0.00  0.00    +0.013 A 
ATOM     31 CL   UNL     1     -11.126   2.570   7.866  0.00  0.00    -0.084 Cl
ENDBRANCH  23  25
ENDBRANCH  22  23
ENDBRANCH  21  22
ENDBRANCH   4  21
TORSDOF 7
