REMARK  Name = ZINC36038467
REMARK  8 active torsions:
REMARK  status: ('A' for Active; 'I' for Inactive)
REMARK    1  A    between atoms: C_1  and  C_2
REMARK    2  A    between atoms: C_2  and  C_3
REMARK    3  A    between atoms: C_2  and  C_4
REMARK    4  A    between atoms: C_4  and  C_5
REMARK    5  A    between atoms: N_9  and  C_28
REMARK    6  A    between atoms: N_14  and  S_17
REMARK    7  A    between atoms: S_17  and  C_20
REMARK    8  A    between atoms: C_28  and  C_29
REMARK                            x       y       z     vdW  Elec       q    Type
REMARK                         _______ _______ _______ _____ _____    ______ ____
ROOT
ATOM      1  C   UNL     1       2.508   0.118  -1.139  0.00  0.00    +0.019 C 
ATOM      2  C   UNL     1       3.226  -0.454  -2.343  0.00  0.00    +0.200 C 
ATOM      3  O   UNL     1       3.284   0.056  -3.441  0.00  0.00    -0.277 OA
ATOM      4  N   UNL     1       3.791  -1.626  -1.987  0.00  0.00    -0.313 N 
ATOM      5  C   UNL     1       3.493  -1.906  -0.580  0.00  0.00    +0.006 C 
ATOM      6  N   UNL     1       3.061  -0.623   0.021  0.00  0.00    +0.401 N 
ATOM      7  C   UNL     1       4.744  -2.413   0.135  0.00  0.00    +0.023 C 
ATOM      8  C   UNL     1       5.207  -3.721  -0.517  0.00  0.00    +0.109 C 
ATOM      9  N   UNL     1       4.082  -4.666  -0.529  0.00  0.00    -0.177 NA
ATOM     10  C   UNL     1       2.809  -4.243  -1.129  0.00  0.00    +0.109 C 
ATOM     11  C   UNL     1       2.367  -2.932  -0.472  0.00  0.00    +0.023 C 
ATOM     12  H   UNL     1       3.848  -0.130   0.416  0.00  0.00    -0.082 HD
ATOM     13  H   UNL     1       2.348  -0.776   0.718  0.00  0.00    -0.082 HD
ENDROOT
BRANCH   9  14
ATOM     14  S   UNL     1       4.247  -6.181   0.120  0.00  0.00    +0.062 S 
ATOM     15  O   UNL     1       3.398  -7.039  -0.631  0.00  0.00    -0.153 OA
ATOM     16  O   UNL     1       5.642  -6.416   0.254  0.00  0.00    -0.153 OA
BRANCH  14  17
ATOM     17  C   UNL     1       3.587  -6.122   1.752  0.00  0.00    +0.125 A 
ATOM     18  C   UNL     1       2.429  -6.816   2.055  0.00  0.00    +0.030 A 
ATOM     19  C   UNL     1       1.911  -6.770   3.336  0.00  0.00    +0.003 A 
ATOM     20  C   UNL     1       2.548  -6.031   4.315  0.00  0.00    +0.021 A 
ATOM     21  C   UNL     1       3.706  -5.337   4.013  0.00  0.00    +0.061 A 
ATOM     22  C   UNL     1       4.229  -5.387   2.732  0.00  0.00    +0.086 A 
ATOM     23 CL   UNL     1       5.686  -4.523   2.354  0.00  0.00    -0.080 Cl
ATOM     24 CL   UNL     1       4.507  -4.408   5.242  0.00  0.00    -0.082 Cl
ENDBRANCH  14  17
ENDBRANCH   9  14
BRANCH   1  25
ATOM     25  C   UNL     1       1.001  -0.121  -1.255  0.00  0.00    -0.004 C 
BRANCH  25  27
ATOM     26  C   UNL     1       0.467   1.956   0.027  0.00  0.00    +0.007 C 
ATOM     27  C   UNL     1       0.300   0.436  -0.014  0.00  0.00    -0.018 C 
ATOM     28  C   UNL     1      -1.189   0.088  -0.071  0.00  0.00    +0.007 C 
ENDBRANCH  25  27
ENDBRANCH   1  25
BRANCH   4  29
ATOM     29  C   UNL     1       4.581  -2.487  -2.871  0.00  0.00    +0.109 C 
BRANCH  29  30
ATOM     30  C   UNL     1       6.053  -2.078  -2.800  0.00  0.00    +0.006 C 
ATOM     31  C   UNL     1       6.699  -1.540  -4.078  0.00  0.00    +0.005 C 
ATOM     32  C   UNL     1       7.063  -2.935  -3.566  0.00  0.00    +0.005 C 
ENDBRANCH  29  30
ENDBRANCH   4  29
TORSDOF 6
