REMARK  Name = ZINC08690918
REMARK  9 active torsions:
REMARK  status: ('A' for Active; 'I' for Inactive)
REMARK    1  A    between atoms: C_1  and  C_2
REMARK    2  A    between atoms: C_2  and  C_3
REMARK    3  A    between atoms: C_8  and  N_9
REMARK    4  A    between atoms: C_10  and  N_11
REMARK    5  A    between atoms: N_12  and  C_13
REMARK    6  A    between atoms: C_16  and  S_24
REMARK    7  A    between atoms: N_20  and  C_23
REMARK    8  A    between atoms: C_21  and  O_22
REMARK    9  A    between atoms: S_24  and  N_27
REMARK                            x       y       z     vdW  Elec       q    Type
REMARK                         _______ _______ _______ _____ _____    ______ ____
ROOT
ATOM      1  C   UNL     1      -5.306  -0.399   4.846  0.00  0.00    +0.155 A 
ATOM      2  C   UNL     1      -6.197  -0.603   6.006  0.00  0.00    +0.033 A 
ATOM      3  C   UNL     1      -5.991  -1.036   7.313  0.00  0.00    +0.040 A 
ATOM      4  C   UNL     1      -7.059  -1.122   8.181  0.00  0.00    +0.106 A 
ATOM      5  C   UNL     1      -8.334  -0.780   7.755  0.00  0.00    +0.030 A 
ATOM      6  C   UNL     1      -8.550  -0.351   6.462  0.00  0.00    +0.028 A 
ATOM      7  C   UNL     1      -7.486  -0.257   5.574  0.00  0.00    +0.054 A 
ATOM      8  N   UNL     1      -7.401   0.134   4.247  0.00  0.00    -0.313 N 
ATOM      9  C   UNL     1      -6.120   0.059   3.809  0.00  0.00    +0.222 A 
ATOM     10  C   UNL     1      -8.537   0.571   3.433  0.00  0.00    +0.152 C 
ENDROOT
BRANCH   4  11
ATOM     11  S   UNL     1      -6.804  -1.669   9.836  0.00  0.00    +0.061 S 
ATOM     12  O   UNL     1      -8.049  -2.183  10.290  0.00  0.00    -0.153 OA
ATOM     13  O   UNL     1      -5.616  -2.448   9.828  0.00  0.00    -0.153 OA
BRANCH  11  14
ATOM     14  N   UNL     1      -6.484  -0.327  10.751  0.00  0.00    -0.172 NA
ATOM     15  C   UNL     1      -5.106   0.156  10.931  0.00  0.00    +0.137 C 
ATOM     16  C   UNL     1      -5.073   1.654  10.606  0.00  0.00    +0.177 C 
ATOM     17  O   UNL     1      -6.084   2.322  11.365  0.00  0.00    -0.377 OA
ATOM     18  C   UNL     1      -7.416   1.903  11.061  0.00  0.00    +0.177 C 
ATOM     19  C   UNL     1      -7.570   0.421  11.405  0.00  0.00    +0.137 C 
ENDBRANCH  11  14
ENDBRANCH   4  11
BRANCH   1  21
ATOM     20  N   UNL     1      -3.333  -0.375   3.712  0.00  0.00    -0.123 NA
ATOM     21  N   UNL     1      -3.984  -0.605   4.801  0.00  0.00    -0.141 NA
BRANCH  20  23
ATOM     22  N   UNL     1      -1.308  -0.339   2.506  0.00  0.00    -0.332 N 
ATOM     23  C   UNL     1      -2.002  -0.583   3.666  0.00  0.00    +0.199 C 
ATOM     24  S   UNL     1      -1.201  -1.133   5.012  0.00  0.00    -0.009 SA
ATOM     25  H   UNL     1      -1.786  -0.109   1.694  0.00  0.00    +0.168 HD
BRANCH  22  31
ATOM     26  C   UNL     1       0.739  -1.060   1.448  0.00  0.00    -0.024 A 
ATOM     27  C   UNL     1       2.118  -1.135   1.438  0.00  0.00    +0.005 A 
ATOM     28  C   UNL     1       2.850  -0.581   2.471  0.00  0.00    +0.000 A 
ATOM     29  C   UNL     1       2.204   0.051   3.519  0.00  0.00    +0.002 A 
ATOM     30  C   UNL     1       0.826   0.130   3.535  0.00  0.00    +0.026 A 
ATOM     31  C   UNL     1       0.088  -0.422   2.495  0.00  0.00    +0.044 A 
BRANCH  26  33
ATOM     32  C   UNL     1      -0.366  -0.589  -0.722  0.00  0.00    +0.009 C 
ATOM     33  C   UNL     1      -0.058  -1.665   0.321  0.00  0.00    +0.034 C 
ENDBRANCH  26  33
ENDBRANCH  22  31
ENDBRANCH  20  23
ENDBRANCH   1  21
BRANCH   9  34
ATOM     34  O   UNL     1      -5.699   0.374   2.565  0.00  0.00    -0.492 OA
ATOM     35  H   UNL     1      -5.716  -0.367   1.945  0.00  0.00    +0.294 HD
ENDBRANCH   9  34
TORSDOF 7
