REMARK  Name = ZINC31057809
REMARK  8 active torsions:
REMARK  status: ('A' for Active; 'I' for Inactive)
REMARK    1  A    between atoms: C_1  and  C_2
REMARK    2  A    between atoms: C_2  and  C_4
REMARK    3  A    between atoms: C_2  and  N_15
REMARK    4  A    between atoms: C_7  and  N_10
REMARK    5  A    between atoms: C_16  and  C_18
REMARK    6  A    between atoms: N_23  and  C_25
REMARK    7  A    between atoms: C_25  and  C_26
REMARK    8  A    between atoms: C_28  and  C_31
REMARK                            x       y       z     vdW  Elec       q    Type
REMARK                         _______ _______ _______ _____ _____    ______ ____
ROOT
ATOM      1  C   UNL     1      -3.801   7.725  -2.796  0.00  0.00    +0.058 C 
ATOM      2  C   UNL     1      -4.533   6.717  -3.686  0.00  0.00    +0.009 C 
ATOM      3  C   UNL     1      -3.833   5.359  -3.587  0.00  0.00    -0.018 C 
ATOM      4  C   UNL     1      -3.809   4.908  -2.125  0.00  0.00    -0.078 C 
ATOM      5  N   UNL     1      -3.098   5.905  -1.315  0.00  0.00    +0.386 N 
ATOM      6  C   UNL     1      -3.778   7.206  -1.357  0.00  0.00    -0.065 C 
ATOM      7  H   UNL     1      -2.096   6.037  -1.750  0.00  0.00    -0.081 HD
ENDROOT
BRANCH   1   9
ATOM      8  N   UNL     1      -4.662   9.699  -4.014  0.00  0.00    -0.309 N 
ATOM      9  C   UNL     1      -4.519   9.050  -2.842  0.00  0.00    +0.215 C 
ATOM     10  O   UNL     1      -4.968   9.532  -1.823  0.00  0.00    -0.276 OA
ATOM     11  H   UNL     1      -4.255   9.262  -4.938  0.00  0.00    +0.149 HD
BRANCH   8  13
ATOM     12  C   UNL     1      -4.376  12.111  -3.724  0.00  0.00    +0.033 C 
ATOM     13  C   UNL     1      -5.359  10.987  -4.059  0.00  0.00    +0.100 C 
BRANCH  13  14
ATOM     14  C   UNL     1      -5.922  11.206  -5.439  0.00  0.00    -0.027 A 
ATOM     15  C   UNL     1      -5.181  10.850  -6.551  0.00  0.00    +0.007 A 
ATOM     16  C   UNL     1      -5.696  11.044  -7.817  0.00  0.00    +0.023 A 
ATOM     17  C   UNL     1      -6.955  11.609  -7.974  0.00  0.00    +0.030 A 
ATOM     18  C   UNL     1      -7.695  11.970  -6.855  0.00  0.00    +0.023 A 
ATOM     19  C   UNL     1      -7.176  11.768  -5.591  0.00  0.00    +0.007 A 
BRANCH  17  20
ATOM     20  N   UNL     1      -7.477  11.812  -9.254  0.00  0.00    -0.330 N 
ATOM     21  C   UNL     1      -8.705  11.003  -9.463  0.00  0.00    +0.105 C 
ATOM     22  C   UNL     1      -9.406  11.722 -10.643  0.00  0.00    +0.020 C 
ATOM     23  C   UNL     1      -9.125  13.214 -10.356  0.00  0.00    +0.020 C 
ATOM     24  C   UNL     1      -7.886  13.221  -9.441  0.00  0.00    +0.105 C 
ENDBRANCH  17  20
ENDBRANCH  13  14
ENDBRANCH   8  13
ENDBRANCH   1   9
BRANCH   5  25
ATOM     25  C   UNL     1      -2.934   5.441   0.069  0.00  0.00    +0.022 C 
BRANCH  25  26
ATOM     26  C   UNL     1      -2.461   4.010   0.065  0.00  0.00    +0.211 A 
ATOM     27  N   UNL     1      -1.217   3.602   0.062  0.00  0.00    -0.192 NA
ATOM     28  C   UNL     1      -1.278   2.250   0.057  0.00  0.00    +0.209 A 
ATOM     29  N   UNL     1      -2.546   1.921   0.066  0.00  0.00    -0.056 NA
ATOM     30  O   UNL     1      -3.234   2.919   0.071  0.00  0.00    -0.340 OA
BRANCH  28  31
ATOM     31  C   UNL     1      -0.130   1.320   0.048  0.00  0.00    +0.060 A 
ATOM     32  C   UNL     1      -0.128  -0.050   0.048  0.00  0.00    +0.019 A 
ATOM     33  C   UNL     1       1.079  -0.711   0.034  0.00  0.00    +0.008 A 
ATOM     34  C   UNL     1       2.229   0.013   0.021  0.00  0.00    +0.046 A 
ATOM     35  S   UNL     1       1.617   1.690   0.028  0.00  0.00    -0.093 S 
ENDBRANCH  28  31
ENDBRANCH  25  26
ENDBRANCH   5  25
TORSDOF 7
