REMARK  Name = ZINC67073584
REMARK  9 active torsions:
REMARK  status: ('A' for Active; 'I' for Inactive)
REMARK    1  A    between atoms: C_1  and  C_2
REMARK    2  A    between atoms: C_2  and  N_3
REMARK    3  A    between atoms: C_7  and  C_8
REMARK    4  A    between atoms: N_10  and  C_11
REMARK    5  A    between atoms: C_11  and  C_12
REMARK    6  A    between atoms: C_12  and  C_13
REMARK    7  A    between atoms: N_17  and  C_18
REMARK    8  A    between atoms: C_18  and  C_19
REMARK    9  A    between atoms: C_18  and  C_20
REMARK                            x       y       z     vdW  Elec       q    Type
REMARK                         _______ _______ _______ _____ _____    ______ ____
ROOT
ATOM      1  C   UNL     1       3.042  -0.568  -0.258  0.00  0.00    +0.261 C 
ATOM      2  O   UNL     1       4.225  -0.682  -0.519  0.00  0.00    -0.269 OA
ATOM      3  N   UNL     1       2.653  -0.300   1.005  0.00  0.00    -0.310 N 
ATOM      4  H   UNL     1       1.710  -0.284   1.229  0.00  0.00    +0.149 HD
ENDROOT
BRANCH   1   9
ATOM      5  N   UNL     1       2.283  -1.093  -2.619  0.00  0.00    -0.342 N 
ATOM      6  C   UNL     1       1.103  -1.129  -3.288  0.00  0.00    +0.101 A 
ATOM      7  C   UNL     1       0.107  -0.782  -2.437  0.00  0.00    +0.036 A 
ATOM      8  C   UNL     1       0.681  -0.519  -1.189  0.00  0.00    +0.047 A 
ATOM      9  C   UNL     1       2.039  -0.722  -1.317  0.00  0.00    +0.105 A 
ATOM     10 BR   UNL     1      -1.732  -0.673  -2.861  0.00  0.00    -0.049 Br
BRANCH   5  12
ATOM     11  C   UNL     1       3.984  -2.839  -2.823  0.00  0.00    +0.027 C 
ATOM     12  C   UNL     1       3.596  -1.405  -3.188  0.00  0.00    +0.118 C 
ENDBRANCH   5  12
ENDBRANCH   1   9
BRANCH   3  13
ATOM     13  C   UNL     1       3.656  -0.034   2.039  0.00  0.00    +0.112 C 
BRANCH  13  14
ATOM     14  C   UNL     1       2.955   0.238   3.372  0.00  0.00    +0.095 C 
BRANCH  14  15
ATOM     15  C   UNL     1       3.986   0.511   4.436  0.00  0.00    +0.134 A 
ATOM     16  N   UNL     1       5.268   0.523   4.257  0.00  0.00    -0.158 NA
ATOM     17  N   UNL     1       5.877   0.816   5.485  0.00  0.00    -0.254 N 
ATOM     18  C   UNL     1       4.892   0.976   6.393  0.00  0.00    +0.176 A 
ATOM     19  N   UNL     1       3.720   0.796   5.752  0.00  0.00    -0.305 N 
ATOM     20  S   UNL     1       5.094   1.347   8.052  0.00  0.00    -0.011 S 
ATOM     21  H   UNL     1       6.830   0.889   5.651  0.00  0.00    +0.191 HD
BRANCH  19  22
ATOM     22  C   UNL     1       2.389   0.884   6.358  0.00  0.00    +0.085 C 
ATOM     23  C   UNL     1       2.269  -0.151   7.479  0.00  0.00    +0.030 C 
ATOM     24  C   UNL     1       2.183   2.286   6.935  0.00  0.00    +0.030 C 
ENDBRANCH  19  22
ENDBRANCH  14  15
ENDBRANCH  13  14
ENDBRANCH   3  13
TORSDOF 6
