REMARK  Name = ZINC18254833
REMARK  5 active torsions:
REMARK  status: ('A' for Active; 'I' for Inactive)
REMARK    1  A    between atoms: C_4  and  C_7
REMARK    2  A    between atoms: C_7  and  N_8
REMARK    3  A    between atoms: C_10  and  C_17
REMARK    4  A    between atoms: C_22  and  N_24
REMARK    5  A    between atoms: N_24  and  C_25
REMARK                            x       y       z     vdW  Elec       q    Type
REMARK                         _______ _______ _______ _____ _____    ______ ____
ROOT
ATOM      1  N   UNL     1       4.433  -1.084   1.250  0.00  0.00    -0.342 N 
ATOM      2  C   UNL     1       5.276  -0.312   1.980  0.00  0.00    +0.095 A 
ATOM      3  C   UNL     1       5.215  -0.681   3.295  0.00  0.00    +0.001 A 
ATOM      4  C   UNL     1       4.240  -1.786   3.374  0.00  0.00    +0.007 A 
ATOM      5  C   UNL     1       3.781  -1.989   2.063  0.00  0.00    +0.050 A 
ATOM      6  C   UNL     1       2.835  -2.978   1.817  0.00  0.00    +0.026 A 
ATOM      7  C   UNL     1       2.355  -3.745   2.857  0.00  0.00    +0.002 A 
ATOM      8  C   UNL     1       2.808  -3.541   4.152  0.00  0.00    +0.001 A 
ATOM      9  C   UNL     1       3.751  -2.571   4.414  0.00  0.00    +0.010 A 
ENDROOT
BRANCH   3  10
ATOM     10  C   UNL     1       5.968  -0.097   4.404  0.00  0.00    +0.030 C 
ATOM     11  C   UNL     1       6.274   1.230   4.396  0.00  0.00    +0.080 C 
ATOM     12  C   UNL     1       5.837   2.295   3.471  0.00  0.00    +0.276 C 
ATOM     13  O   UNL     1       5.086   2.067   2.535  0.00  0.00    -0.267 OA
ATOM     14  N   UNL     1       6.299   3.503   3.709  0.00  0.00    -0.152 NA
ATOM     15  C   UNL     1       7.113   3.765   4.720  0.00  0.00    +0.175 C 
ATOM     16  S   UNL     1       7.313   2.173   5.504  0.00  0.00    -0.050 S 
BRANCH  15  17
ATOM     17  N   UNL     1       7.665   4.968   5.080  0.00  0.00    -0.190 NA
BRANCH  17  18
ATOM     18  C   UNL     1       7.234   6.148   4.465  0.00  0.00    +0.075 A 
ATOM     19  C   UNL     1       5.964   6.217   3.905  0.00  0.00    +0.027 A 
ATOM     20  C   UNL     1       5.541   7.383   3.298  0.00  0.00    +0.003 A 
ATOM     21  C   UNL     1       6.379   8.482   3.245  0.00  0.00    +0.021 A 
ATOM     22  C   UNL     1       7.645   8.417   3.801  0.00  0.00    +0.061 A 
ATOM     23  C   UNL     1       8.072   7.255   4.416  0.00  0.00    +0.082 A 
ATOM     24 CL   UNL     1       9.658   7.176   5.120  0.00  0.00    -0.080 Cl
ATOM     25 CL   UNL     1       8.694   9.799   3.731  0.00  0.00    -0.082 Cl
ENDBRANCH  17  18
ENDBRANCH  15  17
ENDBRANCH   3  10
BRANCH   1  26
ATOM     26  C   UNL     1       4.237  -0.969  -0.198  0.00  0.00    +0.157 C 
BRANCH  26  30
ATOM     27  C   UNL     1       0.874   1.544  -0.986  0.00  0.00    +0.000 A 
ATOM     28  C   UNL     1       2.138   2.094  -0.879  0.00  0.00    +0.000 A 
ATOM     29  C   UNL     1       3.226   1.281  -0.624  0.00  0.00    +0.005 A 
ATOM     30  C   UNL     1       3.050  -0.082  -0.475  0.00  0.00    -0.028 A 
ATOM     31  C   UNL     1       1.786  -0.632  -0.581  0.00  0.00    +0.005 A 
ATOM     32  C   UNL     1       0.698   0.181  -0.838  0.00  0.00    +0.000 A 
ENDBRANCH  26  30
ENDBRANCH   1  26
TORSDOF 5
