REMARK  Name = ZINC14461091
REMARK  6 active torsions:
REMARK  status: ('A' for Active; 'I' for Inactive)
REMARK    1  A    between atoms: C_1  and  C_2
REMARK    2  A    between atoms: C_2  and  C_3
REMARK    3  A    between atoms: C_2  and  N_4
REMARK    4  A    between atoms: C_5  and  C_7
REMARK    5  A    between atoms: C_14  and  C_23
REMARK    6  A    between atoms: C_28  and  O_29
REMARK                            x       y       z     vdW  Elec       q    Type
REMARK                         _______ _______ _______ _____ _____    ______ ____
ROOT
ATOM      1  C   UNL     1      -3.886   0.217   0.926  0.00  0.00    +0.058 A 
ATOM      2  C   UNL     1      -4.252  -0.063   2.241  0.00  0.00    +0.015 A 
ATOM      3  C   UNL     1      -3.379   0.207   3.272  0.00  0.00    +0.001 A 
ATOM      4  C   UNL     1      -2.140   0.763   2.999  0.00  0.00    +0.006 A 
ATOM      5  C   UNL     1      -1.764   1.050   1.705  0.00  0.00    -0.019 A 
ATOM      6  C   UNL     1      -2.624   0.775   0.638  0.00  0.00    +0.044 A 
ATOM      7  N   UNL     1      -2.309   0.995  -0.693  0.00  0.00    -0.336 N 
ATOM      8  C   UNL     1      -1.013   1.631  -0.990  0.00  0.00    +0.108 C 
ATOM      9  C   UNL     1      -0.013   1.086   0.008  0.00  0.00    +0.029 C 
ATOM     10  C   UNL     1      -0.451   1.656   1.393  0.00  0.00    +0.049 C 
ATOM     11  C   UNL     1       0.750   1.447   2.238  0.00  0.00    -0.023 C 
ATOM     12  C   UNL     1       1.825   1.472   1.457  0.00  0.00    -0.030 C 
ATOM     13  C   UNL     1       1.405   1.668  -0.002  0.00  0.00    +0.033 C 
ATOM     14  H   UNL     1      -3.064   1.464  -1.170  0.00  0.00    +0.147 HD
ENDROOT
BRANCH   8  15
ATOM     15  C   UNL     1      -1.164   3.119  -0.804  0.00  0.00    +0.015 A 
ATOM     16  C   UNL     1      -2.183   3.618  -0.016  0.00  0.00    +0.024 A 
ATOM     17  C   UNL     1      -2.322   4.984   0.154  0.00  0.00    +0.018 A 
ATOM     18  C   UNL     1      -1.441   5.853  -0.465  0.00  0.00    +0.019 A 
ATOM     19  C   UNL     1      -0.421   5.358  -1.253  0.00  0.00    +0.047 A 
ATOM     20  C   UNL     1      -0.277   3.989  -1.421  0.00  0.00    +0.122 A 
ATOM     21 BR   UNL     1      -3.718   5.663   1.234  0.00  0.00    -0.050 Br
BRANCH  20  22
ATOM     22  O   UNL     1       0.730   3.500  -2.192  0.00  0.00    -0.506 OA
ATOM     23  H   UNL     1       0.495   3.393  -3.124  0.00  0.00    +0.292 HD
ENDBRANCH  20  22
ENDBRANCH   8  15
BRANCH   1  25
ATOM     24  N   UNL     1      -6.034  -0.608   0.097  0.00  0.00    -0.309 N 
ATOM     25  C   UNL     1      -4.826  -0.074  -0.173  0.00  0.00    +0.246 C 
ATOM     26  O   UNL     1      -4.511   0.168  -1.322  0.00  0.00    -0.270 OA
ATOM     27  H   UNL     1      -6.285  -0.801   1.014  0.00  0.00    +0.149 HD
BRANCH  24  29
ATOM     28  C   UNL     1      -7.929  -2.006  -0.563  0.00  0.00    +0.027 C 
ATOM     29  C   UNL     1      -6.967  -0.896  -0.994  0.00  0.00    +0.067 C 
ATOM     30  C   UNL     1      -7.764   0.366  -1.331  0.00  0.00    +0.027 C 
ENDBRANCH  24  29
ENDBRANCH   1  25
TORSDOF 4
