REMARK  Name = ZINC11791078
REMARK  10 active torsions:
REMARK  status: ('A' for Active; 'I' for Inactive)
REMARK    1  A    between atoms: C_1  and  C_2
REMARK    2  A    between atoms: C_3  and  C_4
REMARK    3  A    between atoms: C_4  and  N_5
REMARK    4  A    between atoms: C_8  and  C_12
REMARK    5  A    between atoms: C_8  and  C_20
REMARK    6  A    between atoms: C_12  and  C_13
REMARK    7  A    between atoms: C_25  and  C_27
REMARK    8  A    between atoms: C_25  and  C_28
REMARK    9  A    between atoms: C_25  and  N_65
REMARK   10  A    between atoms: C_28  and  C_29
REMARK                            x       y       z     vdW  Elec       q    Type
REMARK                         _______ _______ _______ _____ _____    ______ ____
ROOT
ATOM      1  N   UNL     1      -1.915   4.080   3.680  0.00  0.00    -0.212 N 
ATOM      2  C   UNL     1      -0.817   4.728   4.117  0.00  0.00    +0.248 C 
ATOM      3  O   UNL     1       0.207   4.233   4.537  0.00  0.00    -0.273 OA
ATOM      4  C   UNL     1      -1.129   6.205   3.975  0.00  0.00    +0.119 C 
ATOM      5  N   UNL     1      -2.497   6.218   3.429  0.00  0.00    -0.284 N 
ATOM      6  C   UNL     1      -2.869   4.933   3.292  0.00  0.00    +0.310 C 
ATOM      7  O   UNL     1      -3.952   4.586   2.863  0.00  0.00    -0.252 OA
ATOM      8  H   UNL     1      -3.026   7.002   3.211  0.00  0.00    +0.151 HD
ENDROOT
BRANCH   4   9
ATOM      9  C   UNL     1      -0.154   6.873   3.003  0.00  0.00    +0.018 C 
ATOM     10  C   UNL     1      -0.575   8.328   2.778  0.00  0.00    -0.013 C 
ATOM     11  C   UNL     1       0.367   8.974   1.758  0.00  0.00    -0.078 C 
ATOM     12  C   UNL     1       0.754   6.840   0.677  0.00  0.00    -0.078 C 
ATOM     13  C   UNL     1      -0.176   6.130   1.664  0.00  0.00    -0.013 C 
ATOM     14  N   UNL     1       0.281   8.227   0.485  0.00  0.00    +0.382 N 
ATOM     15  H   UNL     1      -0.698   8.206   0.178  0.00  0.00    -0.081 HD
BRANCH  14  16
ATOM     16  C   UNL     1       1.094   8.899  -0.549  0.00  0.00    -0.066 C 
ATOM     17  C   UNL     1       2.508   9.168  -0.031  0.00  0.00    -0.013 C 
BRANCH  16  18
ATOM     18  C   UNL     1       0.425  10.224  -0.918  0.00  0.00    +0.040 C 
BRANCH  18  19
ATOM     19  C   UNL     1      -0.917   9.952  -1.546  0.00  0.00    +0.040 A 
ATOM     20  C   UNL     1      -2.051  10.539  -1.017  0.00  0.00    +0.023 A 
ATOM     21  C   UNL     1      -3.281  10.282  -1.602  0.00  0.00    +0.003 A 
ATOM     22  C   UNL     1      -3.325   9.440  -2.703  0.00  0.00    +0.020 A 
ATOM     23  C   UNL     1      -2.150   8.889  -3.177  0.00  0.00    +0.111 A 
ATOM     24  N   UNL     1      -0.996   9.160  -2.597  0.00  0.00    -0.260 NA
ENDBRANCH  18  19
ENDBRANCH  16  18
ENDBRANCH  14  16
ENDBRANCH   4   9
BRANCH   1  25
ATOM     25  C   UNL     1      -2.048   2.622   3.640  0.00  0.00    +0.206 C 
BRANCH  25  28
ATOM     26  C   UNL     1      -0.735   1.222  -0.003  0.00  0.00    +0.106 C 
ATOM     27  C   UNL     1      -1.204   1.722   1.299  0.00  0.00    -0.104 C 
ATOM     28  C   UNL     1      -1.579   2.121   2.338  0.00  0.00    -0.083 C 
ENDBRANCH  25  28
ENDBRANCH   1  25
BRANCH   4  29
ATOM     29  C   UNL     1      -1.086   6.897   5.339  0.00  0.00    +0.070 C 
BRANCH  29  30
ATOM     30  C   UNL     1      -2.014   6.188   6.291  0.00  0.00    -0.042 A 
ATOM     31  C   UNL     1      -1.544   5.143   7.065  0.00  0.00    +0.004 A 
ATOM     32  C   UNL     1      -2.394   4.492   7.939  0.00  0.00    +0.003 A 
ATOM     33  C   UNL     1      -3.715   4.884   8.040  0.00  0.00    +0.038 A 
ATOM     34  C   UNL     1      -4.187   5.930   7.266  0.00  0.00    +0.124 A 
ATOM     35  C   UNL     1      -3.333   6.586   6.395  0.00  0.00    +0.042 A 
ATOM     36  F   UNL     1      -5.479   6.315   7.364  0.00  0.00    -0.205 F 
ENDBRANCH  29  30
ENDBRANCH   4  29
TORSDOF 8
