REMARK  Name = ZINC06462152
REMARK  13 active torsions:
REMARK  status: ('A' for Active; 'I' for Inactive)
REMARK    1  A    between atoms: C_1  and  C_2
REMARK    2  A    between atoms: C_2  and  C_3
REMARK    3  A    between atoms: C_3  and  C_4
REMARK    4  A    between atoms: C_3  and  C_5
REMARK    5  A    between atoms: C_3  and  N_6
REMARK    6  A    between atoms: C_7  and  C_9
REMARK    7  A    between atoms: C_9  and  C_11
REMARK    8  A    between atoms: C_9  and  N_21
REMARK    9  A    between atoms: N_21  and  C_22
REMARK   10  A    between atoms: C_22  and  C_23
REMARK   11  A    between atoms: C_28  and  C_30
REMARK   12  A    between atoms: C_31  and  N_38
REMARK   13  A    between atoms: C_32  and  C_35
REMARK                            x       y       z     vdW  Elec       q    Type
REMARK                         _______ _______ _______ _____ _____    ______ ____
ROOT
ATOM      1  N   UNL     1      -3.937   1.942  -0.017  0.00  0.00    -0.277 N 
ATOM      2  C   UNL     1      -4.163   2.653  -1.139  0.00  0.00    +0.258 C 
ATOM      3  O   UNL     1      -3.368   2.607  -2.060  0.00  0.00    -0.269 OA
ENDROOT
BRANCH   2   4
ATOM      4  C   UNL     1      -5.365   3.482  -1.251  0.00  0.00    +0.115 A 
ATOM      5  C   UNL     1      -5.826   4.231  -2.336  0.00  0.00    +0.076 A 
ATOM      6  C   UNL     1      -7.021   4.893  -2.058  0.00  0.00    +0.155 A 
ATOM      7  N   UNL     1      -7.571   4.759  -0.871  0.00  0.00    -0.203 NA
ATOM      8  S   UNL     1      -6.635   3.798  -0.043  0.00  0.00    +0.019 S 
BRANCH   6   9
ATOM      9  C   UNL     1      -7.662   5.736  -3.084  0.00  0.00    +0.262 C 
ATOM     10  O   UNL     1      -7.148   5.856  -4.179  0.00  0.00    -0.269 OA
ATOM     11  N   UNL     1      -8.818   6.373  -2.808  0.00  0.00    -0.324 N 
ATOM     12  H   UNL     1      -9.228   6.277  -1.934  0.00  0.00    +0.145 HD
ATOM     13  H   UNL     1      -9.239   6.927  -3.483  0.00  0.00    +0.145 HD
ENDBRANCH   6   9
BRANCH   5  14
ATOM     14  N   UNL     1      -5.167   4.308  -3.555  0.00  0.00    -0.355 N 
ATOM     15  H   UNL     1      -4.337   3.824  -3.690  0.00  0.00    +0.142 HD
ATOM     16  H   UNL     1      -5.536   4.846  -4.273  0.00  0.00    +0.142 HD
ENDBRANCH   5  14
ENDBRANCH   2   4
BRANCH   1  17
ATOM     17  C   UNL     1      -2.794   1.029   0.054  0.00  0.00    +0.195 C 
BRANCH  17  18
ATOM     18  C   UNL     1      -2.956  -0.060  -0.975  0.00  0.00    +0.007 A 
ATOM     19  C   UNL     1      -3.730  -0.015  -2.071  0.00  0.00    +0.089 A 
ATOM     20  N   UNL     1      -3.620  -1.186  -2.769  0.00  0.00    -0.360 N 
ATOM     21  H   UNL     1      -4.084  -1.387  -3.598  0.00  0.00    +0.165 HD
ATOM     22  C   UNL     1      -2.758  -2.040  -2.118  0.00  0.00    +0.047 A 
ATOM     23  C   UNL     1      -2.305  -1.372  -0.966  0.00  0.00    +0.005 A 
ATOM     24  C   UNL     1      -1.408  -2.004  -0.102  0.00  0.00    +0.010 A 
ATOM     25  C   UNL     1      -0.975  -3.270  -0.381  0.00  0.00    +0.001 A 
ATOM     26  C   UNL     1      -1.420  -3.933  -1.516  0.00  0.00    +0.002 A 
ATOM     27  C   UNL     1      -2.305  -3.328  -2.382  0.00  0.00    +0.026 A 
ENDBRANCH  17  18
BRANCH  17  29
ATOM     28  N   UNL     1      -0.337   1.153  -0.207  0.00  0.00    -0.308 N 
ATOM     29  C   UNL     1      -1.524   1.792  -0.220  0.00  0.00    +0.239 C 
ATOM     30  O   UNL     1      -1.569   2.982  -0.451  0.00  0.00    -0.273 OA
ATOM     31  H   UNL     1      -0.301   0.201  -0.022  0.00  0.00    +0.149 HD
BRANCH  28  32
ATOM     32  C   UNL     1       0.897   1.894  -0.479  0.00  0.00    +0.029 C 
ATOM     33  C   UNL     1       0.822   2.517  -1.874  0.00  0.00    +0.031 C 
ATOM     34  C   UNL     1       1.068   3.000   0.565  0.00  0.00    +0.031 C 
BRANCH  32  36
ATOM     35  C   UNL     1       3.380   1.713  -0.694  0.00  0.00    +0.006 C 
ATOM     36  C   UNL     1       2.091   0.939  -0.410  0.00  0.00    +0.022 C 
ENDBRANCH  32  36
ENDBRANCH  28  32
ENDBRANCH  17  29
ENDBRANCH   1  17
BRANCH   1  37
ATOM     37  C   UNL     1      -4.835   2.082   1.132  0.00  0.00    +0.151 C 
BRANCH  37  38
ATOM     38  C   UNL     1      -5.926   1.046   1.046  0.00  0.00    +0.007 A 
ATOM     39  C   UNL     1      -5.996  -0.172   1.638  0.00  0.00    +0.013 A 
ATOM     40  C   UNL     1      -7.107  -0.963   1.414  0.00  0.00    +0.008 A 
ATOM     41  C   UNL     1      -8.094  -0.498   0.609  0.00  0.00    +0.045 A 
ATOM     42  S   UNL     1      -7.466   1.107   0.144  0.00  0.00    -0.100 S 
ENDBRANCH  37  38
ENDBRANCH   1  37
TORSDOF 10
