REMARK  Name = ZINC36280551
REMARK  5 active torsions:
REMARK  status: ('A' for Active; 'I' for Inactive)
REMARK    1  A    between atoms: C_3  and  O_22
REMARK    2  A    between atoms: C_6  and  C_7
REMARK    3  A    between atoms: N_8  and  N_9
REMARK    4  A    between atoms: C_10  and  C_12
REMARK    5  A    between atoms: C_14  and  N_20
REMARK                            x       y       z     vdW  Elec       q    Type
REMARK                         _______ _______ _______ _____ _____    ______ ____
ROOT
ATOM      1  N   UNL     1      -2.446  -2.778   0.011  0.00  0.00    -0.202 N 
ATOM      2  C   UNL     1      -2.425  -4.125   0.004  0.00  0.00    +0.283 C 
ATOM      3  O   UNL     1      -1.363  -4.717  -0.010  0.00  0.00    -0.267 OA
ATOM      4  H   UNL     1      -3.293  -2.306   0.022  0.00  0.00    +0.178 HD
ENDROOT
BRANCH   2   5
ATOM      5  C   UNL     1      -3.695  -4.885   0.013  0.00  0.00    +0.149 A 
ATOM      6  C   UNL     1      -3.666  -6.277   0.011  0.00  0.00    +0.094 A 
ATOM      7  C   UNL     1      -4.872  -6.978   0.019  0.00  0.00    +0.067 A 
ATOM      8  C   UNL     1      -6.061  -6.250   0.029  0.00  0.00    +0.100 A 
ATOM      9  C   UNL     1      -6.007  -4.865   0.030  0.00  0.00    +0.150 A 
ATOM     10  N   UNL     1      -4.852  -4.231   0.028  0.00  0.00    -0.228 NA
ATOM     11 CL   UNL     1      -7.483  -3.952   0.042  0.00  0.00    -0.060 Cl
ATOM     12 CL   UNL     1      -7.591  -7.069   0.038  0.00  0.00    -0.078 Cl
ATOM     13 CL   UNL     1      -2.152  -7.127  -0.003  0.00  0.00    -0.079 Cl
BRANCH   7  14
ATOM     14  N   UNL     1      -4.888  -8.371   0.017  0.00  0.00    -0.356 N 
ATOM     15  H   UNL     1      -4.054  -8.866   0.009  0.00  0.00    +0.142 HD
ATOM     16  H   UNL     1      -5.734  -8.846   0.022  0.00  0.00    +0.142 HD
ENDBRANCH   7  14
ENDBRANCH   2   5
BRANCH   1  18
ATOM     17  C   UNL     1      -1.263  -0.761   0.011  0.00  0.00    +0.138 C 
ATOM     18  N   UNL     1      -1.243  -2.059   0.003  0.00  0.00    -0.187 NA
BRANCH  17  24
ATOM     19  C   UNL     1      -0.017   1.393   0.010  0.00  0.00    +0.013 A 
ATOM     20  C   UNL     1       1.168   2.096   0.002  0.00  0.00    +0.046 A 
ATOM     21  C   UNL     1       2.380   1.418  -0.013  0.00  0.00    +0.117 A 
ATOM     22  C   UNL     1       2.404   0.029  -0.022  0.00  0.00    +0.046 A 
ATOM     23  C   UNL     1       1.224  -0.682  -0.014  0.00  0.00    +0.013 A 
ATOM     24  C   UNL     1       0.002  -0.004   0.002  0.00  0.00    -0.005 A 
BRANCH  21  25
ATOM     25  O   UNL     1       3.546   2.115  -0.021  0.00  0.00    -0.507 OA
ATOM     26  H   UNL     1       3.893   2.313   0.860  0.00  0.00    +0.292 HD
ENDBRANCH  21  25
ENDBRANCH  17  24
ENDBRANCH   1  18
TORSDOF 5
