REMARK  Name = ZINC56796392
REMARK  11 active torsions:
REMARK  status: ('A' for Active; 'I' for Inactive)
REMARK    1  A    between atoms: C_1  and  C_2
REMARK    2  A    between atoms: C_2  and  C_3
REMARK    3  A    between atoms: C_3  and  C_5
REMARK    4  A    between atoms: C_3  and  N_6
REMARK    5  A    between atoms: C_7  and  C_9
REMARK    6  A    between atoms: C_9  and  C_10
REMARK    7  A    between atoms: C_10  and  N_11
REMARK    8  A    between atoms: N_14  and  C_15
REMARK    9  A    between atoms: C_15  and  C_16
REMARK   10  A    between atoms: C_16  and  C_18
REMARK   11  A    between atoms: C_16  and  N_23
REMARK                            x       y       z     vdW  Elec       q    Type
REMARK                         _______ _______ _______ _____ _____    ______ ____
ROOT
ATOM      1  N   UNL     1       0.083   0.898   7.239  0.00  0.00    -0.299 N 
ATOM      2  C   UNL     1       0.733   1.145   8.394  0.00  0.00    +0.300 C 
ATOM      3  O   UNL     1       1.948   1.184   8.412  0.00  0.00    -0.253 OA
ATOM      4  N   UNL     1       0.035   1.349   9.529  0.00  0.00    -0.301 N 
ATOM      5  H   UNL     1      -0.886   0.867   7.225  0.00  0.00    +0.150 HD
ATOM      6  H   UNL     1      -0.934   1.318   9.515  0.00  0.00    +0.150 HD
ENDROOT
BRANCH   1   7
ATOM      7  C   UNL     1       0.842   0.677   6.005  0.00  0.00    +0.115 C 
BRANCH   7   8
ATOM      8  C   UNL     1      -0.128   0.421   4.850  0.00  0.00    +0.114 C 
BRANCH   8  10
ATOM      9  N   UNL     1       0.003  -0.053   2.426  0.00  0.00    -0.313 N 
ATOM     10  C   UNL     1       0.652   0.193   3.581  0.00  0.00    +0.215 C 
ATOM     11  O   UNL     1       1.864   0.232   3.599  0.00  0.00    -0.276 OA
ATOM     12  H   UNL     1      -0.966  -0.085   2.411  0.00  0.00    +0.149 HD
BRANCH   9  13
ATOM     13  C   UNL     1       0.761  -0.275   1.192  0.00  0.00    +0.070 C 
ATOM     14  C   UNL     1       1.174  -1.746   1.104  0.00  0.00    +0.028 C 
BRANCH  13  16
ATOM     15  C   UNL     1      -0.419   1.582   0.008  0.00  0.00    +0.005 C 
ATOM     16  C   UNL     1      -0.110   0.084  -0.013  0.00  0.00    +0.018 C 
ENDBRANCH  13  16
ENDBRANCH   9  13
ENDBRANCH   8  10
ENDBRANCH   7   8
ENDBRANCH   1   7
BRANCH   4  17
ATOM     17  C   UNL     1       0.741   1.617  10.785  0.00  0.00    +0.095 C 
BRANCH  17  18
ATOM     18  C   UNL     1      -0.276   1.940  11.882  0.00  0.00    -0.013 C 
BRANCH  18  19
ATOM     19  N   UNL     1       0.420   2.081  13.168  0.00  0.00    +0.386 N 
ATOM     20  C   UNL     1      -0.555   2.375  14.249  0.00  0.00    -0.078 C 
ATOM     21  C   UNL     1       0.196   1.939  15.532  0.00  0.00    -0.020 C 
ATOM     22  C   UNL     1       0.961   0.676  15.073  0.00  0.00    -0.020 C 
ATOM     23  C   UNL     1       1.064   0.803  13.542  0.00  0.00    -0.078 C 
ATOM     24  H   UNL     1       1.111   2.815  13.112  0.00  0.00    -0.081 HD
ENDBRANCH  18  19
BRANCH  18  25
ATOM     25  C   UNL     1      -0.981   3.229  11.549  0.00  0.00    -0.022 A 
ATOM     26  C   UNL     1      -2.208   3.415  11.003  0.00  0.00    +0.009 A 
ATOM     27  C   UNL     1      -2.657   4.704  10.785  0.00  0.00    +0.008 A 
ATOM     28  C   UNL     1      -1.857   5.745  11.124  0.00  0.00    +0.045 A 
ATOM     29  S   UNL     1      -0.422   4.909  11.779  0.00  0.00    -0.103 S 
ENDBRANCH  18  25
ENDBRANCH  17  18
ENDBRANCH   4  17
TORSDOF 9
