REMARK  Name = ZINC39639279
REMARK  7 active torsions:
REMARK  status: ('A' for Active; 'I' for Inactive)
REMARK    1  A    between atoms: C_1  and  C_2
REMARK    2  A    between atoms: C_5  and  C_8
REMARK    3  A    between atoms: C_8  and  C_10
REMARK    4  A    between atoms: C_8  and  N_11
REMARK    5  A    between atoms: C_12  and  C_14
REMARK    6  A    between atoms: C_25  and  C_27
REMARK    7  A    between atoms: C_29  and  C_34
REMARK                            x       y       z     vdW  Elec       q    Type
REMARK                         _______ _______ _______ _____ _____    ______ ____
ROOT
ATOM      1  C   UNL     1       2.720  -6.233   1.408  0.00  0.00    +0.100 C 
ATOM      2  C   UNL     1       3.989  -5.436   1.784  0.00  0.00    +0.121 C 
ATOM      3  N   UNL     1       4.992  -6.470   2.130  0.00  0.00    -0.296 N 
ATOM      4  C   UNL     1       4.767  -7.548   1.138  0.00  0.00    +0.115 C 
ATOM      5  C   UNL     1       3.235  -7.619   0.983  0.00  0.00    -0.004 C 
ATOM      6  C   UNL     1       2.864  -7.898  -0.470  0.00  0.00    -0.010 C 
ATOM      7  C   UNL     1       3.335  -9.304  -0.851  0.00  0.00    -0.082 C 
ATOM      8  N   UNL     1       2.704 -10.290   0.035  0.00  0.00    +0.379 N 
ATOM      9  C   UNL     1       3.140 -10.072   1.419  0.00  0.00    -0.082 C 
ATOM     10  C   UNL     1       2.661  -8.698   1.896  0.00  0.00    -0.010 C 
ATOM     11  C   UNL     1       5.902  -6.439   3.124  0.00  0.00    +0.247 C 
ATOM     12  O   UNL     1       5.880  -5.538   3.940  0.00  0.00    -0.270 OA
ATOM     13  H   UNL     1       1.701 -10.196  -0.020  0.00  0.00    -0.086 HD
ATOM     14  H   UNL     1       2.968 -11.220  -0.257  0.00  0.00    -0.086 HD
ENDROOT
BRANCH  11  15
ATOM     15  C   UNL     1       6.928  -7.499   3.220  0.00  0.00    +0.040 A 
ATOM     16  C   UNL     1       7.577  -7.737   4.433  0.00  0.00    +0.025 A 
ATOM     17  C   UNL     1       8.533  -8.728   4.518  0.00  0.00    +0.058 A 
ATOM     18  C   UNL     1       8.850  -9.486   3.405  0.00  0.00    +0.050 A 
ATOM     19  C   UNL     1       8.211  -9.255   2.198  0.00  0.00    +0.125 A 
ATOM     20  C   UNL     1       7.247  -8.269   2.102  0.00  0.00    +0.051 A 
ATOM     21  F   UNL     1       8.526  -9.998   1.115  0.00  0.00    -0.205 F 
BRANCH  17  22
ATOM     22  C   UNL     1       9.234  -8.985   5.827  0.00  0.00    +0.418 C 
ATOM     23  F   UNL     1       8.518  -9.937   6.561  0.00  0.00    -0.166 F 
ATOM     24  F   UNL     1      10.525  -9.463   5.579  0.00  0.00    -0.166 F 
ATOM     25  F   UNL     1       9.310  -7.795   6.557  0.00  0.00    -0.166 F 
ENDBRANCH  17  22
ENDBRANCH  11  15
BRANCH   1  27
ATOM     26  N   UNL     1       0.663  -5.672   0.153  0.00  0.00    -0.308 N 
ATOM     27  C   UNL     1       2.002  -5.566   0.262  0.00  0.00    +0.219 C 
ATOM     28  O   UNL     1       2.629  -4.935  -0.561  0.00  0.00    -0.275 OA
ATOM     29  H   UNL     1       0.161  -6.177   0.812  0.00  0.00    +0.149 HD
BRANCH  26  30
ATOM     30  C   UNL     1      -0.035  -5.024  -0.960  0.00  0.00    +0.100 C 
ATOM     31  C   UNL     1      -0.010  -5.945  -2.182  0.00  0.00    +0.033 C 
BRANCH  30  36
ATOM     32  C   UNL     1      -5.514  -3.976   0.547  0.00  0.00    +0.044 C 
ATOM     33  C   UNL     1      -4.085  -4.249   0.154  0.00  0.00    -0.050 A 
ATOM     34  C   UNL     1      -3.379  -3.313  -0.578  0.00  0.00    +0.004 A 
ATOM     35  C   UNL     1      -2.068  -3.564  -0.938  0.00  0.00    +0.006 A 
ATOM     36  C   UNL     1      -1.464  -4.751  -0.566  0.00  0.00    -0.027 A 
ATOM     37  C   UNL     1      -2.170  -5.686   0.166  0.00  0.00    +0.006 A 
ATOM     38  C   UNL     1      -3.480  -5.434   0.530  0.00  0.00    +0.004 A 
ENDBRANCH  30  36
ENDBRANCH  26  30
ENDBRANCH   1  27
TORSDOF 5
