REMARK  Name = ZINC44786067
REMARK  4 active torsions:
REMARK  status: ('A' for Active; 'I' for Inactive)
REMARK    1  A    between atoms: C_4  and  N_8
REMARK    2  A    between atoms: C_9  and  C_11
REMARK    3  A    between atoms: C_11  and  C_17
REMARK    4  A    between atoms: N_18  and  O_19
REMARK                            x       y       z     vdW  Elec       q    Type
REMARK                         _______ _______ _______ _____ _____    ______ ____
ROOT
ATOM      1  C   UNL     1       4.991  -2.767   0.159  0.00  0.00    +0.109 C 
ATOM      2  C   UNL     1       5.545  -2.163   1.454  0.00  0.00    +0.052 C 
ATOM      3  C   UNL     1       4.722  -2.675   2.639  0.00  0.00    +0.161 C 
ATOM      4  O   UNL     1       4.763  -4.103   2.665  0.00  0.00    -0.380 OA
ATOM      5  C   UNL     1       4.215  -4.723   1.500  0.00  0.00    +0.161 C 
ATOM      6  C   UNL     1       5.017  -4.294   0.269  0.00  0.00    +0.052 C 
ENDROOT
BRANCH   1   7
ATOM      7  C   UNL     1       5.840  -2.330  -1.007  0.00  0.00    +0.147 C 
ATOM      8  N   UNL     1       5.496  -2.647  -2.211  0.00  0.00    -0.076 NA
ATOM      9  N   UNL     1       6.983  -1.594  -0.788  0.00  0.00    -0.343 N 
ATOM     10  H   UNL     1       7.283  -1.421   0.118  0.00  0.00    +0.144 HD
ATOM     11  H   UNL     1       7.488  -1.248  -1.541  0.00  0.00    +0.144 HD
BRANCH   8  12
ATOM     12  O   UNL     1       4.243  -3.262  -2.450  0.00  0.00    -0.408 OA
ATOM     13  H   UNL     1       4.075  -3.462  -3.382  0.00  0.00    +0.328 HD
ENDBRANCH   8  12
ENDBRANCH   1   7
BRANCH   1  15
ATOM     14  N   UNL     1       3.288  -0.983  -0.032  0.00  0.00    -0.284 N 
ATOM     15  C   UNL     1       3.573  -2.300  -0.048  0.00  0.00    +0.231 C 
ATOM     16  O   UNL     1       2.688  -3.110  -0.229  0.00  0.00    -0.274 OA
ATOM     17  H   UNL     1       4.005  -0.332   0.015  0.00  0.00    +0.155 HD
BRANCH  14  21
ATOM     18  C   UNL     1      -0.677   0.294  -0.182  0.00  0.00    +0.016 A 
ATOM     19  C   UNL     1       0.270   1.060   0.473  0.00  0.00    +0.018 A 
ATOM     20  C   UNL     1       1.585   0.639   0.525  0.00  0.00    +0.039 A 
ATOM     21  C   UNL     1       1.956  -0.555  -0.082  0.00  0.00    +0.049 A 
ATOM     22  C   UNL     1       1.003  -1.321  -0.738  0.00  0.00    +0.039 A 
ATOM     23  C   UNL     1      -0.311  -0.895  -0.787  0.00  0.00    +0.020 A 
ATOM     24 BR   UNL     1      -1.610  -1.939  -1.681  0.00  0.00    -0.050 Br
ATOM     25 BR   UNL     1       2.880   1.688   1.420  0.00  0.00    -0.048 Br
ENDBRANCH  14  21
ENDBRANCH   1  15
TORSDOF 4
