REMARK  Name = ZINC20151840
REMARK  12 active torsions:
REMARK  status: ('A' for Active; 'I' for Inactive)
REMARK    1  A    between atoms: C_1  and  N_2
REMARK    2  A    between atoms: C_5  and  C_6
REMARK    3  A    between atoms: C_6  and  C_7
REMARK    4  A    between atoms: C_8  and  C_9
REMARK    5  A    between atoms: C_12  and  O_19
REMARK    6  A    between atoms: C_13  and  O_17
REMARK    7  A    between atoms: C_14  and  O_15
REMARK    8  A    between atoms: O_15  and  C_16
REMARK    9  A    between atoms: O_17  and  C_18
REMARK   10  A    between atoms: O_19  and  C_20
REMARK   11  A    between atoms: C_28  and  O_37
REMARK   12  A    between atoms: O_37  and  C_38
REMARK                            x       y       z     vdW  Elec       q    Type
REMARK                         _______ _______ _______ _____ _____    ______ ____
ROOT
ATOM      1  C   UNL     1      -0.018   1.461   0.010  0.00  0.00    +0.136 C 
ATOM      2  N   UNL     1       0.002  -0.004   0.002  0.00  0.00    -0.263 N 
ATOM      3  C   UNL     1       0.005  -0.652  -1.198  0.00  0.00    +0.250 C 
ATOM      4  O   UNL     1      -0.037   0.070  -2.338  0.00  0.00    -0.270 OA
ATOM      5  C   UNL     1       0.050  -2.007  -1.274  0.00  0.00    +0.069 C 
ATOM      6  C   UNL     1       0.028  -2.828  -0.003  0.00  0.00    +0.070 C 
ATOM      7  C   UNL     1      -1.436  -2.910   0.415  0.00  0.00    +0.006 A 
ATOM      8  C   UNL     1      -2.213  -3.937  -0.091  0.00  0.00    +0.008 A 
ATOM      9  C   UNL     1      -3.544  -4.041   0.264  0.00  0.00    +0.004 A 
ATOM     10  C   UNL     1      -4.101  -3.116   1.128  0.00  0.00    +0.049 A 
ATOM     11  C   UNL     1      -3.327  -2.088   1.638  0.00  0.00    +0.162 A 
ATOM     12  C   UNL     1      -1.981  -1.982   1.282  0.00  0.00    +0.169 A 
ATOM     13  O   UNL     1      -1.258  -0.952   1.818  0.00  0.00    -0.464 OA
ATOM     14  C   UNL     1       0.024  -0.710   1.276  0.00  0.00    +0.184 C 
ATOM     15  C   UNL     1       0.756  -2.088   1.102  0.00  0.00    +0.064 C 
ATOM     16  C   UNL     1       2.212  -1.724   0.839  0.00  0.00    +0.010 C 
ATOM     17  C   UNL     1       2.440  -0.395   1.601  0.00  0.00    +0.006 C 
ATOM     18  C   UNL     1       1.011   0.017   2.212  0.00  0.00    +0.069 C 
ENDROOT
BRANCH   5  19
ATOM     19  C   UNL     1       0.118  -2.645  -2.527  0.00  0.00    +0.188 C 
ATOM     20  O   UNL     1       0.137  -1.979  -3.551  0.00  0.00    -0.287 OA
BRANCH  19  21
ATOM     21  C   UNL     1       0.167  -4.108  -2.604  0.00  0.00    +0.052 C 
ATOM     22  C   UNL     1       0.232  -4.719  -3.805  0.00  0.00    +0.015 C 
BRANCH  22  23
ATOM     23  C   UNL     1       0.281  -6.185  -3.882  0.00  0.00    +0.021 A 
ATOM     24  C   UNL     1       0.254  -6.951  -2.710  0.00  0.00    +0.015 A 
ATOM     25  C   UNL     1       0.300  -8.325  -2.785  0.00  0.00    +0.050 A 
ATOM     26  C   UNL     1       0.372  -8.958  -4.021  0.00  0.00    +0.165 A 
ATOM     27  C   UNL     1       0.400  -8.208  -5.192  0.00  0.00    +0.204 A 
ATOM     28  C   UNL     1       0.349  -6.824  -5.130  0.00  0.00    +0.172 A 
BRANCH  28  29
ATOM     29  O   UNL     1       0.370  -6.088  -6.272  0.00  0.00    -0.491 OA
ATOM     30  C   UNL     1       1.652  -5.698  -6.768  0.00  0.00    +0.277 C 
ENDBRANCH  28  29
BRANCH  27  31
ATOM     31  O   UNL     1       0.471  -8.834  -6.399  0.00  0.00    -0.488 OA
ATOM     32  C   UNL     1      -0.766  -9.171  -7.029  0.00  0.00    +0.277 C 
ENDBRANCH  27  31
BRANCH  26  33
ATOM     33  O   UNL     1       0.417 -10.314  -4.084  0.00  0.00    -0.491 OA
ATOM     34  C   UNL     1       0.386 -11.023  -2.844  0.00  0.00    +0.277 C 
ENDBRANCH  26  33
ENDBRANCH  22  23
ENDBRANCH  19  21
ENDBRANCH   5  19
BRANCH  11  35
ATOM     35  O   UNL     1      -3.878  -1.181   2.488  0.00  0.00    -0.491 OA
ATOM     36  C   UNL     1      -5.260  -1.350   2.810  0.00  0.00    +0.277 C 
ENDBRANCH  11  35
TORSDOF 7
