REMARK  Name = ZINC06269299
REMARK  5 active torsions:
REMARK  status: ('A' for Active; 'I' for Inactive)
REMARK    1  A    between atoms: C_3  and  C_14
REMARK    2  A    between atoms: N_4  and  C_6
REMARK    3  A    between atoms: C_9  and  C_12
REMARK    4  A    between atoms: C_14  and  N_49
REMARK    5  A    between atoms: C_15  and  N_49
REMARK                            x       y       z     vdW  Elec       q    Type
REMARK                         _______ _______ _______ _____ _____    ______ ____
ROOT
ATOM      1  C   UNL     1      -2.214   5.608  -1.135  0.00  0.00    -0.027 C 
ENDROOT
BRANCH   1   4
ATOM      2  C   UNL     1      -1.688   9.252  -1.407  0.00  0.00    +0.020 A 
ATOM      3  C   UNL     1      -1.322   7.923  -1.699  0.00  0.00    +0.021 A 
ATOM      4  C   UNL     1      -2.214   7.115  -1.091  0.00  0.00    +0.007 A 
ATOM      5  N   UNL     1      -3.114   7.897  -0.425  0.00  0.00    -0.322 N 
ATOM      6  C   UNL     1      -2.784   9.208  -0.624  0.00  0.00    +0.091 A 
BRANCH   5   7
ATOM      7  C   UNL     1      -4.193   7.433   0.334  0.00  0.00    +0.046 A 
ATOM      8  C   UNL     1      -5.069   6.498  -0.206  0.00  0.00    +0.027 A 
ATOM      9  C   UNL     1      -6.130   6.035   0.541  0.00  0.00    +0.021 A 
ATOM     10  C   UNL     1      -6.332   6.514   1.838  0.00  0.00    +0.052 A 
ATOM     11  C   UNL     1      -5.452   7.458   2.374  0.00  0.00    +0.021 A 
ATOM     12  C   UNL     1      -4.391   7.913   1.624  0.00  0.00    +0.027 A 
BRANCH  10  13
ATOM     13  C   UNL     1      -7.437   6.040   2.615  0.00  0.00    +0.099 C 
ATOM     14  N   UNL     1      -8.314   5.663   3.231  0.00  0.00    -0.191 NA
ENDBRANCH  10  13
ENDBRANCH   5   7
ENDBRANCH   1   4
BRANCH   1  15
ATOM     15  N   UNL     1      -1.505   5.091   0.051  0.00  0.00    +0.386 N 
ATOM     16  H   UNL     1      -1.983   5.415   0.900  0.00  0.00    -0.085 HD
ATOM     17  H   UNL     1      -0.539   5.440   0.048  0.00  0.00    -0.085 HD
BRANCH  15  18
ATOM     18  C   UNL     1      -1.490   3.616   0.036  0.00  0.00    -0.067 C 
ATOM     19  C   UNL     1      -0.773   3.123  -1.223  0.00  0.00    -0.009 C 
ATOM     20  C   UNL     1      -0.753   1.593  -1.232  0.00  0.00    -0.012 C 
ATOM     21  C   UNL     1      -0.013   1.086   0.008  0.00  0.00    +0.007 C 
ATOM     22  C   UNL     1      -0.729   1.579   1.267  0.00  0.00    -0.012 C 
ATOM     23  C   UNL     1      -0.750   3.109   1.275  0.00  0.00    -0.009 C 
ATOM     24  C   UNL     1      -2.164   1.050   1.278  0.00  0.00    +0.007 C 
ATOM     25  C   UNL     1      -2.904   1.556   0.038  0.00  0.00    -0.012 C 
ATOM     26  C   UNL     1      -2.188   1.063  -1.221  0.00  0.00    +0.007 C 
ATOM     27  C   UNL     1      -2.925   3.086   0.047  0.00  0.00    -0.009 C 
ENDBRANCH  15  18
ENDBRANCH   1  15
TORSDOF 5
