REMARK  Name = ZINC21231679
REMARK  10 active torsions:
REMARK  status: ('A' for Active; 'I' for Inactive)
REMARK    1  A    between atoms: C_1  and  C_2
REMARK    2  A    between atoms: C_5  and  C_9
REMARK    3  A    between atoms: C_6  and  C_8
REMARK    4  A    between atoms: C_11  and  C_19
REMARK    5  A    between atoms: C_19  and  O_21
REMARK    6  A    between atoms: O_21  and  C_22
REMARK    7  A    between atoms: C_22  and  C_24
REMARK    8  A    between atoms: C_22  and  C_27
REMARK    9  A    between atoms: C_24  and  C_25
REMARK   10  A    between atoms: C_24  and  C_26
REMARK                            x       y       z     vdW  Elec       q    Type
REMARK                         _______ _______ _______ _____ _____    ______ ____
ROOT
ATOM      1  C   UNL     1      -0.127   0.127  -0.244  0.00  0.00    +0.073 A 
ATOM      2  C   UNL     1      -1.404  -0.453  -0.258  0.00  0.00    +0.044 A 
ATOM      3  C   UNL     1      -1.526  -1.828  -0.409  0.00  0.00    +0.070 A 
ATOM      4  C   UNL     1      -0.290  -2.600  -0.545  0.00  0.00    +0.014 A 
ATOM      5  C   UNL     1      -0.311  -3.991  -0.701  0.00  0.00    +0.011 A 
ATOM      6  C   UNL     1       0.864  -4.672  -0.824  0.00  0.00    +0.001 A 
ATOM      7  C   UNL     1       2.084  -4.001  -0.797  0.00  0.00    +0.002 A 
ATOM      8  C   UNL     1       2.140  -2.649  -0.647  0.00  0.00    +0.028 A 
ATOM      9  C   UNL     1       0.949  -1.912  -0.516  0.00  0.00    +0.072 A 
ATOM     10  N   UNL     1       0.972  -0.586  -0.373  0.00  0.00    -0.247 NA
ENDROOT
BRANCH   1  15
ATOM     11  C   UNL     1       0.326   5.834   0.381  0.00  0.00    +0.044 C 
ATOM     12  C   UNL     1       0.207   4.341   0.218  0.00  0.00    -0.050 A 
ATOM     13  C   UNL     1      -0.665   3.817  -0.720  0.00  0.00    +0.004 A 
ATOM     14  C   UNL     1      -0.774   2.450  -0.877  0.00  0.00    +0.010 A 
ATOM     15  C   UNL     1      -0.010   1.597  -0.083  0.00  0.00    +0.003 A 
ATOM     16  C   UNL     1       0.867   2.130   0.860  0.00  0.00    -0.041 A 
ATOM     17  C   UNL     1       0.971   3.499   1.005  0.00  0.00    +0.007 A 
ATOM     18  C   UNL     1       1.700   1.214   1.720  0.00  0.00    +0.044 C 
ENDBRANCH   1  15
BRANCH   3  19
ATOM     19  C   UNL     1      -2.850  -2.485  -0.431  0.00  0.00    +0.341 C 
ATOM     20  O   UNL     1      -2.926  -3.696  -0.456  0.00  0.00    -0.245 OA
BRANCH  19  21
ATOM     21  O   UNL     1      -3.972  -1.739  -0.423  0.00  0.00    -0.448 OA
BRANCH  21  22
ATOM     22  C   UNL     1      -5.237  -2.451  -0.446  0.00  0.00    +0.265 C 
BRANCH  22  23
ATOM     23  C   UNL     1      -6.283  -1.640   0.274  0.00  0.00    +0.261 C 
ATOM     24  O   UNL     1      -6.016  -0.529   0.679  0.00  0.00    -0.271 OA
ATOM     25  N   UNL     1      -7.516  -2.149   0.468  0.00  0.00    -0.237 N 
ATOM     26  C   UNL     1      -8.451  -1.424   1.112  0.00  0.00    +0.303 C 
ATOM     27  O   UNL     1      -8.183  -0.310   1.518  0.00  0.00    -0.253 OA
ATOM     28  N   UNL     1      -9.684  -1.933   1.306  0.00  0.00    -0.313 N 
ATOM     29  H   UNL     1      -7.758  -3.158   0.101  0.00  0.00    +0.159 HD
ATOM     30  H   UNL     1     -10.447  -1.341   1.831  0.00  0.00    +0.146 HD
ATOM     31  H   UNL     1      -9.926  -2.942   0.938  0.00  0.00    +0.146 HD
ENDBRANCH  22  23
BRANCH  22  32
ATOM     32  C   UNL     1      -5.671  -2.672  -1.896  0.00  0.00    +0.033 C 
ATOM     33  C   UNL     1      -5.715  -1.328  -2.626  0.00  0.00    +0.011 C 
ATOM     34  C   UNL     1      -4.673  -3.599  -2.592  0.00  0.00    +0.011 C 
ENDBRANCH  22  32
ENDBRANCH  21  22
ENDBRANCH  19  21
ENDBRANCH   3  19
TORSDOF 6
