REMARK  Name = ZINC38666257
REMARK  12 active torsions:
REMARK  status: ('A' for Active; 'I' for Inactive)
REMARK    1  A    between atoms: C_1  and  C_2
REMARK    2  A    between atoms: C_5  and  C_8
REMARK    3  A    between atoms: C_8  and  N_9
REMARK    4  A    between atoms: C_10  and  C_12
REMARK    5  A    between atoms: N_14  and  C_15
REMARK    6  A    between atoms: C_15  and  C_16
REMARK    7  A    between atoms: C_16  and  C_18
REMARK    8  A    between atoms: C_16  and  N_27
REMARK    9  A    between atoms: C_21  and  N_24
REMARK   10  A    between atoms: N_24  and  C_25
REMARK   11  A    between atoms: N_24  and  C_26
REMARK   12  A    between atoms: N_30  and  C_33
REMARK                            x       y       z     vdW  Elec       q    Type
REMARK                         _______ _______ _______ _____ _____    ______ ____
ROOT
ATOM      1  C   UNL     1       4.787  -9.912   0.081  0.00  0.00    +0.104 C 
ENDROOT
BRANCH   1   2
ATOM      2  C   UNL     1       6.167 -10.495   0.241  0.00  0.00    -0.029 A 
ATOM      3  C   UNL     1       6.713 -10.641   1.503  0.00  0.00    +0.007 A 
ATOM      4  C   UNL     1       7.978 -11.174   1.653  0.00  0.00    +0.023 A 
ATOM      5  C   UNL     1       8.702 -11.564   0.533  0.00  0.00    +0.029 A 
ATOM      6  C   UNL     1       8.151 -11.416  -0.733  0.00  0.00    +0.023 A 
ATOM      7  C   UNL     1       6.883 -10.887  -0.875  0.00  0.00    +0.007 A 
BRANCH   5   8
ATOM      8  N   UNL     1       9.982 -12.104   0.681  0.00  0.00    -0.336 N 
ATOM      9  C   UNL     1      10.562 -12.259   2.018  0.00  0.00    +0.129 C 
ATOM     10  C   UNL     1      10.745 -12.514  -0.500  0.00  0.00    +0.129 C 
ENDBRANCH   5   8
ENDBRANCH   1   2
BRANCH   1  11
ATOM     11  N   UNL     1       3.855 -10.607   0.980  0.00  0.00    -0.291 NA
ATOM     12  C   UNL     1       4.231 -12.018   1.138  0.00  0.00    +0.104 C 
ATOM     13  C   UNL     1       3.140 -12.748   1.931  0.00  0.00    +0.120 C 
ATOM     14  N   UNL     1       2.911 -12.020   3.188  0.00  0.00    -0.327 N 
ATOM     15  C   UNL     1       2.664 -10.572   3.119  0.00  0.00    +0.120 C 
ATOM     16  C   UNL     1       3.773  -9.928   2.280  0.00  0.00    +0.104 C 
BRANCH  14  17
ATOM     17  C   UNL     1       2.927 -12.688   4.417  0.00  0.00    +0.030 A 
ATOM     18  C   UNL     1       2.587 -12.011   5.580  0.00  0.00    +0.026 A 
ATOM     19  C   UNL     1       2.603 -12.673   6.793  0.00  0.00    +0.040 A 
ATOM     20  C   UNL     1       2.958 -14.010   6.848  0.00  0.00    +0.124 A 
ATOM     21  C   UNL     1       3.298 -14.687   5.689  0.00  0.00    +0.040 A 
ATOM     22  C   UNL     1       3.278 -14.030   4.474  0.00  0.00    +0.026 A 
ATOM     23  F   UNL     1       2.974 -14.655   8.035  0.00  0.00    -0.205 F 
ENDBRANCH  14  17
ENDBRANCH   1  11
BRANCH   1  24
ATOM     24  C   UNL     1       4.818  -8.423   0.431  0.00  0.00    +0.128 C 
BRANCH  24  27
ATOM     25  C   UNL     1       3.240  -6.575   0.621  0.00  0.00    +0.299 C 
ATOM     26  O   UNL     1       4.139  -5.893   1.067  0.00  0.00    -0.265 OA
ATOM     27  N   UNL     1       3.476  -7.856   0.273  0.00  0.00    -0.306 N 
ATOM     28  H   UNL     1       2.758  -8.402  -0.083  0.00  0.00    +0.149 HD
BRANCH  25  30
ATOM     29  N   UNL     1       1.636  -4.716   0.808  0.00  0.00    -0.303 N 
ATOM     30  C   UNL     1       1.872  -5.997   0.459  0.00  0.00    +0.299 C 
ATOM     31  O   UNL     1       0.973  -6.680   0.014  0.00  0.00    -0.265 OA
ATOM     32  H   UNL     1       2.355  -4.170   1.164  0.00  0.00    +0.149 HD
BRANCH  29  33
ATOM     33  C   UNL     1       0.295  -4.149   0.649  0.00  0.00    +0.140 C 
BRANCH  33  38
ATOM     34  C   UNL     1       0.307   1.355   2.407  0.00  0.00    +0.044 C 
ATOM     35  C   UNL     1       0.304  -0.080   1.949  0.00  0.00    -0.050 A 
ATOM     36  C   UNL     1       0.584  -0.385   0.630  0.00  0.00    +0.003 A 
ATOM     37  C   UNL     1       0.582  -1.702   0.209  0.00  0.00    +0.005 A 
ATOM     38  C   UNL     1       0.299  -2.714   1.108  0.00  0.00    -0.030 A 
ATOM     39  C   UNL     1       0.020  -2.409   2.427  0.00  0.00    +0.005 A 
ATOM     40  C   UNL     1       0.027  -1.092   2.848  0.00  0.00    +0.003 A 
ENDBRANCH  33  38
ENDBRANCH  29  33
ENDBRANCH  25  30
ENDBRANCH  24  27
ENDBRANCH   1  24
TORSDOF 9
