REMARK  Name = ZINC04811427
REMARK  9 active torsions:
REMARK  status: ('A' for Active; 'I' for Inactive)
REMARK    1  A    between atoms: C_1  and  C_2
REMARK    2  A    between atoms: C_6  and  C_28
REMARK    3  A    between atoms: C_10  and  C_24
REMARK    4  A    between atoms: C_10  and  C_26
REMARK    5  A    between atoms: C_11  and  C_20
REMARK    6  A    between atoms: C_11  and  C_22
REMARK    7  A    between atoms: C_12  and  C_14
REMARK    8  A    between atoms: C_28  and  C_29
REMARK    9  A    between atoms: C_28  and  C_30
REMARK                            x       y       z     vdW  Elec       q    Type
REMARK                         _______ _______ _______ _____ _____    ______ ____
ROOT
ATOM      1  C   UNL     1      -3.112   1.328   3.896  0.00  0.00    +0.012 C 
ATOM      2  C   UNL     1      -2.303   2.522   3.386  0.00  0.00    +0.016 C 
ATOM      3  C   UNL     1      -3.070   3.807   3.677  0.00  0.00    +0.008 C 
ATOM      4  C   UNL     1      -2.346   4.959   2.967  0.00  0.00    +0.010 C 
ATOM      5  C   UNL     1      -2.514   4.759   1.464  0.00  0.00    +0.034 C 
ATOM      6  C   UNL     1      -2.139   3.354   1.057  0.00  0.00    -0.006 C 
ATOM      7  C   UNL     1      -2.057   2.357   1.902  0.00  0.00    -0.015 C 
ATOM      8  C   UNL     1      -1.691   0.958   1.452  0.00  0.00    +0.199 C 
ATOM      9  C   UNL     1      -1.956   0.774  -0.040  0.00  0.00    +0.198 C 
ATOM     10  C   UNL     1      -1.274   1.932  -0.786  0.00  0.00    +0.121 C 
ATOM     11  N   UNL     1      -1.911   3.225  -0.357  0.00  0.00    -0.400 NA
ATOM     12  H   UNL     1      -1.299   3.995  -0.651  0.00  0.00    +0.124 HD
ATOM     13  H   UNL     1      -2.817   3.308  -0.833  0.00  0.00    +0.124 HD
ENDROOT
BRANCH  10  14
ATOM     14  C   UNL     1       0.202   1.941  -0.483  0.00  0.00    -0.026 A 
ATOM     15  C   UNL     1       0.713   2.838   0.435  0.00  0.00    +0.005 A 
ATOM     16  C   UNL     1       2.067   2.844   0.717  0.00  0.00    +0.000 A 
ATOM     17  C   UNL     1       2.910   1.958   0.073  0.00  0.00    +0.000 A 
ATOM     18  C   UNL     1       2.400   1.064  -0.850  0.00  0.00    +0.000 A 
ATOM     19  C   UNL     1       1.046   1.056  -1.128  0.00  0.00    +0.005 A 
ENDBRANCH  10  14
BRANCH   5  20
ATOM     20  C   UNL     1      -1.618   5.753   0.722  0.00  0.00    -0.009 C 
ATOM     21  C   UNL     1      -1.963   5.736  -0.768  0.00  0.00    +0.008 C 
ATOM     22  C   UNL     1      -1.842   7.159   1.282  0.00  0.00    +0.008 C 
ENDBRANCH   5  20
BRANCH   9  23
ATOM     23  C   UNL     1      -1.393  -0.509  -0.491  0.00  0.00    +0.089 C 
ATOM     24  N   UNL     1      -0.960  -1.499  -0.840  0.00  0.00    -0.195 NA
ENDBRANCH   9  23
BRANCH   9  25
ATOM     25  C   UNL     1      -3.405   0.802  -0.295  0.00  0.00    +0.089 C 
ATOM     26  N   UNL     1      -4.524   0.823  -0.492  0.00  0.00    -0.195 NA
ENDBRANCH   9  25
BRANCH   8  27
ATOM     27  C   UNL     1      -2.491  -0.018   2.208  0.00  0.00    +0.092 C 
ATOM     28  N   UNL     1      -3.110  -0.771   2.792  0.00  0.00    -0.194 NA
ENDBRANCH   8  27
BRANCH   8  29
ATOM     29  C   UNL     1      -0.263   0.723   1.721  0.00  0.00    +0.092 C 
ATOM     30  N   UNL     1       0.839   0.541   1.928  0.00  0.00    -0.194 NA
ENDBRANCH   8  29
TORSDOF 6
