REMARK  Name = ZINC20847798
REMARK  9 active torsions:
REMARK  status: ('A' for Active; 'I' for Inactive)
REMARK    1  A    between atoms: C_1  and  C_2
REMARK    2  A    between atoms: C_5  and  C_34
REMARK    3  A    between atoms: N_8  and  C_10
REMARK    4  A    between atoms: C_10  and  C_11
REMARK    5  A    between atoms: C_11  and  C_12
REMARK    6  A    between atoms: C_12  and  N_13
REMARK    7  A    between atoms: C_14  and  C_16
REMARK    8  A    between atoms: C_16  and  N_17
REMARK    9  A    between atoms: C_24  and  C_27
REMARK                            x       y       z     vdW  Elec       q    Type
REMARK                         _______ _______ _______ _____ _____    ______ ____
ROOT
ATOM      1  C   UNL     1      -2.456   1.171   0.019  0.00  0.00    +0.221 C 
ENDROOT
BRANCH   1   2
ATOM      2  N   UNL     1      -1.184   1.898   0.018  0.00  0.00    -0.290 N 
ATOM      3  C   UNL     1      -1.180   3.253   0.030  0.00  0.00    +0.206 A 
ATOM      4  N   UNL     1      -0.078   3.953   0.024  0.00  0.00    -0.200 NA
ATOM      5  C   UNL     1       1.120   3.360   0.009  0.00  0.00    +0.265 A 
ATOM      6  C   UNL     1       1.181   1.957   0.001  0.00  0.00    +0.133 A 
ATOM      7  C   UNL     1      -0.014   1.214   0.009  0.00  0.00    +0.267 A 
ATOM      8  O   UNL     1       0.002  -0.004   0.002  0.00  0.00    -0.267 OA
ATOM      9  C   UNL     1       2.620   1.683  -0.014  0.00  0.00    +0.128 A 
ATOM     10  N   UNL     1       3.191   2.865  -0.013  0.00  0.00    -0.075 NA
ATOM     11  O   UNL     1       2.393   3.774  -0.001  0.00  0.00    -0.334 OA
BRANCH   9  12
ATOM     12  C   UNL     1       3.287   0.358  -0.027  0.00  0.00    +0.005 A 
ATOM     13  C   UNL     1       2.729  -0.712   0.669  0.00  0.00    +0.011 A 
ATOM     14  C   UNL     1       3.350  -1.944   0.650  0.00  0.00    +0.020 A 
ATOM     15  C   UNL     1       4.532  -2.115  -0.051  0.00  0.00    +0.041 A 
ATOM     16  C   UNL     1       5.093  -1.053  -0.740  0.00  0.00    +0.020 A 
ATOM     17  C   UNL     1       4.477   0.181  -0.731  0.00  0.00    +0.011 A 
ATOM     18 CL   UNL     1       5.313  -3.665  -0.065  0.00  0.00    -0.084 Cl
ENDBRANCH   9  12
ENDBRANCH   1   2
BRANCH   1  20
ATOM     19  N   UNL     1      -4.035   0.254   1.688  0.00  0.00    -0.314 N 
ATOM     20  C   UNL     1      -2.886   0.913   1.440  0.00  0.00    +0.233 C 
ATOM     21  O   UNL     1      -2.197   1.299   2.362  0.00  0.00    -0.274 OA
ATOM     22  H   UNL     1      -4.659  -0.096   0.853  0.00  0.00    +0.149 HD
BRANCH  19  23
ATOM     23  C   UNL     1      -4.453   0.003   3.070  0.00  0.00    +0.102 C 
BRANCH  23  24
ATOM     24  C   UNL     1      -5.781  -0.756   3.071  0.00  0.00    +0.000 C 
BRANCH  24  25
ATOM     25  C   UNL     1      -6.217  -1.018   4.514  0.00  0.00    -0.077 C 
BRANCH  25  31
ATOM     26  C   UNL     1     -10.979  -0.888   3.290  0.00  0.00    +0.005 C 
ATOM     27  C   UNL     1      -9.848  -1.756   3.845  0.00  0.00    -0.031 C 
ATOM     28  C   UNL     1     -10.239  -2.281   5.230  0.00  0.00    +0.003 C 
ATOM     29  C   UNL     1      -9.079  -3.099   5.803  0.00  0.00    -0.031 C 
ATOM     30  C   UNL     1      -7.825  -2.223   5.864  0.00  0.00    -0.076 C 
ATOM     31  N   UNL     1      -7.492  -1.747   4.516  0.00  0.00    +0.380 N 
ATOM     32  C   UNL     1      -8.572  -0.920   3.963  0.00  0.00    -0.076 C 
ATOM     33  C   UNL     1      -8.813  -4.308   4.905  0.00  0.00    +0.005 C 
ATOM     34  H   UNL     1      -7.380  -2.629   3.867  0.00  0.00    -0.082 HD
ENDBRANCH  25  31
ENDBRANCH  24  25
ENDBRANCH  23  24
ENDBRANCH  19  23
ENDBRANCH   1  20
TORSDOF 7
