REMARK  Name = ZINC57923284
REMARK  7 active torsions:
REMARK  status: ('A' for Active; 'I' for Inactive)
REMARK    1  A    between atoms: C_4  and  C_7
REMARK    2  A    between atoms: C_7  and  C_9
REMARK    3  A    between atoms: C_7  and  N_22
REMARK    4  A    between atoms: C_9  and  N_10
REMARK    5  A    between atoms: C_11  and  C_13
REMARK    6  A    between atoms: C_15  and  S_18
REMARK    7  A    between atoms: S_18  and  N_21
REMARK                            x       y       z     vdW  Elec       q    Type
REMARK                         _______ _______ _______ _____ _____    ______ ____
ROOT
ATOM      1  N   UNL     1       4.233   0.089  -2.300  0.00  0.00    -0.313 N 
ATOM      2  C   UNL     1       4.509  -0.025  -3.614  0.00  0.00    +0.245 C 
ATOM      3  O   UNL     1       4.697  -1.123  -4.103  0.00  0.00    -0.270 OA
ATOM      4  H   UNL     1       4.084   0.965  -1.910  0.00  0.00    +0.149 HD
ENDROOT
BRANCH   2   5
ATOM      5  C   UNL     1       4.583   1.178  -4.458  0.00  0.00    +0.046 A 
ATOM      6  C   UNL     1       4.871   1.094  -5.870  0.00  0.00    +0.049 A 
ATOM      7  C   UNL     1       4.910   2.268  -6.530  0.00  0.00    +0.143 A 
ATOM      8  S   UNL     1       4.563   3.460  -5.255  0.00  0.00    -0.076 S 
ATOM      9  C   UNL     1       4.376   2.436  -3.939  0.00  0.00    +0.060 A 
BRANCH   7  10
ATOM     10  S   UNL     1       5.228   2.554  -8.239  0.00  0.00    +0.062 S 
ATOM     11  O   UNL     1       5.708   3.887  -8.346  0.00  0.00    -0.153 OA
ATOM     12  O   UNL     1       5.972   1.437  -8.707  0.00  0.00    -0.153 OA
BRANCH  10  13
ATOM     13  N   UNL     1       3.769   2.512  -9.022  0.00  0.00    -0.203 NA
ATOM     14  H   UNL     1       3.633   3.042  -9.823  0.00  0.00    +0.144 HD
ATOM     15  H   UNL     1       3.051   1.958  -8.680  0.00  0.00    +0.144 HD
ENDBRANCH  10  13
ENDBRANCH   7  10
ENDBRANCH   2   5
BRANCH   1  16
ATOM     16  C   UNL     1       4.160  -1.109  -1.460  0.00  0.00    +0.094 C 
BRANCH  16  17
ATOM     17  C   UNL     1       3.704  -0.717  -0.052  0.00  0.00    -0.020 C 
BRANCH  17  21
ATOM     18  C   UNL     1      -0.298   0.768  -0.215  0.00  0.00    +0.000 A 
ATOM     19  C   UNL     1       0.765   1.650  -0.152  0.00  0.00    +0.000 A 
ATOM     20  C   UNL     1       2.060   1.169  -0.100  0.00  0.00    +0.002 A 
ATOM     21  C   UNL     1       2.292  -0.193  -0.109  0.00  0.00    -0.059 A 
ATOM     22  C   UNL     1       1.230  -1.075  -0.171  0.00  0.00    +0.002 A 
ATOM     23  C   UNL     1      -0.065  -0.595  -0.225  0.00  0.00    +0.000 A 
ENDBRANCH  17  21
BRANCH  17  24
ATOM     24  N   UNL     1       3.754  -1.895   0.824  0.00  0.00    +0.385 N 
ATOM     25  C   UNL     1       5.153  -2.378   0.953  0.00  0.00    -0.078 C 
ATOM     26  C   UNL     1       5.127  -3.191   2.272  0.00  0.00    -0.020 C 
ATOM     27  C   UNL     1       4.177  -2.365   3.168  0.00  0.00    -0.020 C 
ATOM     28  C   UNL     1       3.326  -1.532   2.192  0.00  0.00    -0.078 C 
ATOM     29  H   UNL     1       3.164  -2.627   0.458  0.00  0.00    -0.081 HD
ENDBRANCH  17  24
ENDBRANCH  16  17
ENDBRANCH   1  16
TORSDOF 7
