REMARK  Name = ZINC59321205
REMARK  9 active torsions:
REMARK  status: ('A' for Active; 'I' for Inactive)
REMARK    1  A    between atoms: C_1  and  C_2
REMARK    2  A    between atoms: C_8  and  C_31
REMARK    3  A    between atoms: C_8  and  C_32
REMARK    4  A    between atoms: C_10  and  N_12
REMARK    5  A    between atoms: N_15  and  C_16
REMARK    6  A    between atoms: N_15  and  C_17
REMARK    7  A    between atoms: C_17  and  C_19
REMARK    8  A    between atoms: C_17  and  C_20
REMARK    9  A    between atoms: C_23  and  N_26
REMARK                            x       y       z     vdW  Elec       q    Type
REMARK                         _______ _______ _______ _____ _____    ______ ____
ROOT
ATOM      1  N   UNL     1      -2.574  -3.449   1.312  0.00  0.00    -0.292 N 
ATOM      2  C   UNL     1      -3.637  -2.826   0.767  0.00  0.00    +0.303 C 
ATOM      3  O   UNL     1      -3.582  -2.419  -0.378  0.00  0.00    -0.253 OA
ATOM      4  N   UNL     1      -4.761  -2.654   1.490  0.00  0.00    -0.282 N 
ATOM      5  C   UNL     1      -4.827  -3.144   2.869  0.00  0.00    +0.134 C 
ATOM      6  H   UNL     1      -2.618  -3.774   2.225  0.00  0.00    +0.151 HD
ENDROOT
BRANCH   1  16
ATOM      7  C   UNL     1       0.294   1.191   0.662  0.00  0.00    +0.086 C 
ATOM      8  C   UNL     1       0.227  -0.315   0.684  0.00  0.00    +0.103 A 
ATOM      9  C   UNL     1      -0.889  -1.056   0.537  0.00  0.00    +0.050 A 
ATOM     10  C   UNL     1      -0.492  -2.402   0.623  0.00  0.00    +0.014 A 
ATOM     11  C   UNL     1       0.842  -2.413   0.817  0.00  0.00    +0.111 A 
ATOM     12  O   UNL     1       1.272  -1.146   0.848  0.00  0.00    -0.464 OA
ATOM     13  C   UNL     1       1.663  -3.672   0.959  0.00  0.00    +0.081 C 
ATOM     14  C   UNL     1       0.833  -4.852   0.439  0.00  0.00    -0.026 C 
ATOM     15  C   UNL     1      -0.556  -4.824   1.082  0.00  0.00    +0.034 C 
ATOM     16  C   UNL     1      -1.352  -3.636   0.526  0.00  0.00    +0.109 C 
ATOM     17  C   UNL     1       0.694  -4.747  -1.081  0.00  0.00    +0.011 C 
ATOM     18  C   UNL     1       1.534  -6.164   0.797  0.00  0.00    +0.011 C 
ENDBRANCH   1  16
BRANCH   4  19
ATOM     19  C   UNL     1      -5.917  -1.977   0.897  0.00  0.00    +0.104 C 
ATOM     20  C   UNL     1      -6.192  -0.677   1.657  0.00  0.00    +0.033 C 
BRANCH  19  21
ATOM     21  C   UNL     1      -7.125  -2.874   0.984  0.00  0.00    -0.027 A 
ATOM     22  C   UNL     1      -8.387  -2.323   1.102  0.00  0.00    +0.007 A 
ATOM     23  C   UNL     1      -9.496  -3.143   1.181  0.00  0.00    +0.028 A 
ATOM     24  C   UNL     1      -9.341  -4.522   1.143  0.00  0.00    +0.067 A 
ATOM     25  C   UNL     1      -8.072  -5.073   1.026  0.00  0.00    +0.028 A 
ATOM     26  C   UNL     1      -6.968  -4.247   0.941  0.00  0.00    +0.007 A 
BRANCH  24  27
ATOM     27  N   UNL     1     -10.464  -5.357   1.224  0.00  0.00    -0.220 N 
ATOM     28  C   UNL     1     -10.473  -6.704   1.206  0.00  0.00    +0.225 A 
ATOM     29  N   UNL     1     -11.715  -7.103   1.303  0.00  0.00    -0.222 NA
ATOM     30  C   UNL     1     -12.524  -6.048   1.385  0.00  0.00    +0.245 A 
ATOM     31  N   UNL     1     -11.805  -4.956   1.347  0.00  0.00    -0.154 NA
ENDBRANCH  24  27
ENDBRANCH  19  21
ENDBRANCH   4  19
TORSDOF 4
