REMARK  Name = ZINC15829700
REMARK  5 active torsions:
REMARK  status: ('A' for Active; 'I' for Inactive)
REMARK    1  A    between atoms: C_5  and  C_7
REMARK    2  A    between atoms: C_7  and  N_8
REMARK    3  A    between atoms: C_9  and  C_11
REMARK    4  A    between atoms: C_11  and  S_12
REMARK    5  A    between atoms: S_12  and  C_13
REMARK                            x       y       z     vdW  Elec       q    Type
REMARK                         _______ _______ _______ _____ _____    ______ ____
ROOT
ATOM      1  C   UNL     1      -7.145  -0.069  -1.906  0.00  0.00    +0.198 A 
ATOM      2  N   UNL     1      -6.217  -0.089  -2.836  0.00  0.00    -0.122 NA
ATOM      3  N   UNL     1      -5.069   0.198  -2.327  0.00  0.00    -0.128 NA
ATOM      4  C   UNL     1      -5.200   0.417  -1.042  0.00  0.00    +0.173 A 
ATOM      5  N   UNL     1      -6.532   0.255  -0.728  0.00  0.00    -0.260 N 
ATOM      6  C   UNL     1      -6.968   0.423   0.554  0.00  0.00    +0.208 A 
ATOM      7  N   UNL     1      -6.147   0.740   1.514  0.00  0.00    -0.230 NA
ATOM      8  C   UNL     1      -4.845   0.917   1.308  0.00  0.00    +0.114 A 
ATOM      9  C   UNL     1      -4.258   0.777   0.041  0.00  0.00    +0.056 A 
ATOM     10  C   UNL     1      -2.860   0.993  -0.042  0.00  0.00    -0.024 A 
ATOM     11  C   UNL     1      -2.205   1.314   1.098  0.00  0.00    -0.004 A 
ATOM     12  S   UNL     1      -3.466   1.339   2.345  0.00  0.00    -0.073 S 
ATOM     13  C   UNL     1      -0.738   1.585   1.266  0.00  0.00    +0.043 C 
ATOM     14  C   UNL     1      -0.013   1.086   0.008  0.00  0.00    +0.005 C 
ATOM     15  C   UNL     1      -0.760   1.596  -1.227  0.00  0.00    +0.005 C 
ATOM     16  C   UNL     1      -2.101   0.874  -1.361  0.00  0.00    +0.037 C 
ENDROOT
BRANCH   1  17
ATOM     17  S   UNL     1      -8.861  -0.399  -2.135  0.00  0.00    -0.076 S 
BRANCH  17  18
ATOM     18  C   UNL     1      -9.007  -0.757  -3.907  0.00  0.00    +0.173 C 
BRANCH  18  20
ATOM     19  N   UNL     1     -10.793  -1.357  -5.510  0.00  0.00    -0.310 N 
ATOM     20  C   UNL     1     -10.444  -1.060  -4.242  0.00  0.00    +0.224 C 
ATOM     21  O   UNL     1     -11.288  -1.038  -3.371  0.00  0.00    -0.275 OA
ATOM     22  H   UNL     1     -10.118  -1.375  -6.207  0.00  0.00    +0.149 HD
BRANCH  19  23
ATOM     23  C   UNL     1     -12.191  -1.652  -5.835  0.00  0.00    +0.140 C 
BRANCH  23  28
ATOM     24  C   UNL     1     -12.875  -1.244  -9.526  0.00  0.00    +0.000 A 
ATOM     25  C   UNL     1     -12.535  -2.493 -10.010  0.00  0.00    +0.001 A 
ATOM     26  C   UNL     1     -12.083  -3.471  -9.143  0.00  0.00    +0.015 A 
ATOM     27  C   UNL     1     -11.971  -3.199  -7.792  0.00  0.00    +0.023 A 
ATOM     28  C   UNL     1     -12.312  -1.948  -7.308  0.00  0.00    -0.016 A 
ATOM     29  C   UNL     1     -12.768  -0.973  -8.174  0.00  0.00    +0.006 A 
ATOM     30 BR   UNL     1     -11.354  -4.536  -6.606  0.00  0.00    -0.050 Br
ENDBRANCH  23  28
ENDBRANCH  19  23
ENDBRANCH  18  20
ENDBRANCH  17  18
ENDBRANCH   1  17
TORSDOF 5
