REMARK  Name = ZINC18199700
REMARK  6 active torsions:
REMARK  status: ('A' for Active; 'I' for Inactive)
REMARK    1  A    between atoms: C_4  and  C_7
REMARK    2  A    between atoms: C_7  and  O_8
REMARK    3  A    between atoms: O_8  and  C_9
REMARK    4  A    between atoms: C_13  and  C_15
REMARK    5  A    between atoms: C_17  and  C_30
REMARK    6  A    between atoms: C_18  and  N_29
REMARK                            x       y       z     vdW  Elec       q    Type
REMARK                         _______ _______ _______ _____ _____    ______ ____
ROOT
ATOM      1  C   UNL     1       2.525   5.591   0.008  0.00  0.00    +0.164 C 
ATOM      2  C   UNL     1       3.239   6.069  -1.226  0.00  0.00    +0.092 C 
ATOM      3  C   UNL     1       4.492   6.583  -1.205  0.00  0.00    +0.104 C 
ATOM      4  N   UNL     1       5.207   6.715  -0.033  0.00  0.00    -0.273 N 
ATOM      5  C   UNL     1       4.516   6.568   1.161  0.00  0.00    +0.203 A 
ATOM      6  N   UNL     1       3.243   6.044   1.200  0.00  0.00    -0.299 N 
ATOM      7  C   UNL     1       2.847   6.045   2.507  0.00  0.00    +0.071 A 
ATOM      8  C   UNL     1       1.677   5.642   3.140  0.00  0.00    +0.028 A 
ATOM      9  C   UNL     1       1.620   5.791   4.516  0.00  0.00    +0.002 A 
ATOM     10  C   UNL     1       2.676   6.316   5.242  0.00  0.00    +0.002 A 
ATOM     11  C   UNL     1       3.850   6.724   4.636  0.00  0.00    +0.030 A 
ATOM     12  C   UNL     1       3.930   6.583   3.246  0.00  0.00    +0.091 A 
ATOM     13  N   UNL     1       4.909   6.878   2.367  0.00  0.00    -0.214 NA
ATOM     14  H   UNL     1       6.158   6.903  -0.043  0.00  0.00    +0.156 HD
ENDROOT
BRANCH   1  19
ATOM     15  C   UNL     1       1.185   2.058   0.002  0.00  0.00    +0.121 A 
ATOM     16  C   UNL     1       2.360   1.319  -0.013  0.00  0.00    +0.045 A 
ATOM     17  C   UNL     1       3.580   1.966  -0.021  0.00  0.00    +0.004 A 
ATOM     18  C   UNL     1       3.633   3.348  -0.015  0.00  0.00    +0.006 A 
ATOM     19  C   UNL     1       2.464   4.086   0.001  0.00  0.00    -0.016 A 
ATOM     20  C   UNL     1       1.240   3.444   0.003  0.00  0.00    +0.051 A 
BRANCH  15  21
ATOM     21  O   UNL     1      -0.017   1.425   0.010  0.00  0.00    -0.487 OA
BRANCH  21  22
ATOM     22  C   UNL     1       0.002  -0.004   0.002  0.00  0.00    +0.264 C 
BRANCH  22  26
ATOM     23  C   UNL     1      -4.005  -1.483   0.032  0.00  0.00    +0.000 A 
ATOM     24  C   UNL     1      -3.368  -1.237  -1.170  0.00  0.00    +0.000 A 
ATOM     25  C   UNL     1      -2.072  -0.758  -1.179  0.00  0.00    +0.007 A 
ATOM     26  C   UNL     1      -1.412  -0.526   0.013  0.00  0.00    -0.010 A 
ATOM     27  C   UNL     1      -2.047  -0.777   1.215  0.00  0.00    +0.007 A 
ATOM     28  C   UNL     1      -3.345  -1.251   1.224  0.00  0.00    +0.000 A 
ENDBRANCH  22  26
ENDBRANCH  21  22
ENDBRANCH  15  21
ENDBRANCH   1  19
BRANCH   3  29
ATOM     29  N   UNL     1       5.068   6.984  -2.386  0.00  0.00    -0.345 N 
ATOM     30  H   UNL     1       5.965   7.353  -2.387  0.00  0.00    +0.144 HD
ATOM     31  H   UNL     1       4.578   6.897  -3.219  0.00  0.00    +0.144 HD
ENDBRANCH   3  29
BRANCH   2  32
ATOM     32  C   UNL     1       2.562   5.978  -2.485  0.00  0.00    +0.100 C 
ATOM     33  N   UNL     1       2.025   5.905  -3.483  0.00  0.00    -0.191 NA
ENDBRANCH   2  32
TORSDOF 6
