REMARK  Name = ZINC39486662
REMARK  10 active torsions:
REMARK  status: ('A' for Active; 'I' for Inactive)
REMARK    1  A    between atoms: C_1  and  C_2
REMARK    2  A    between atoms: C_2  and  C_30
REMARK    3  A    between atoms: N_4  and  C_23
REMARK    4  A    between atoms: N_7  and  C_8
REMARK    5  A    between atoms: C_8  and  C_9
REMARK    6  A    between atoms: C_9  and  C_17
REMARK    7  A    between atoms: N_12  and  S_15
REMARK    8  A    between atoms: S_15  and  C_16
REMARK    9  A    between atoms: C_28  and  O_29
REMARK   10  A    between atoms: C_30  and  C_31
REMARK                            x       y       z     vdW  Elec       q    Type
REMARK                         _______ _______ _______ _____ _____    ______ ____
ROOT
ATOM      1  C   UNL     1       0.793   0.880  -0.257  0.00  0.00    +0.034 C 
ATOM      2  C   UNL     1       0.271  -0.553  -0.122  0.00  0.00    +0.056 C 
ATOM      3  C   UNL     1       0.898  -1.460  -1.199  0.00  0.00    +0.141 C 
ATOM      4  N   UNL     1       1.633  -2.470  -0.424  0.00  0.00    -0.250 N 
ATOM      5  C   UNL     1       1.479  -2.220   0.883  0.00  0.00    +0.310 C 
ATOM      6  O   UNL     1       1.983  -2.904   1.753  0.00  0.00    -0.252 OA
ATOM      7  N   UNL     1       0.720  -1.148   1.145  0.00  0.00    -0.277 N 
ENDROOT
BRANCH   4   8
ATOM      8  C   UNL     1       2.377  -3.527  -0.966  0.00  0.00    +0.079 A 
ATOM      9  C   UNL     1       3.744  -3.391  -1.154  0.00  0.00    +0.027 A 
ATOM     10  C   UNL     1       4.476  -4.434  -1.689  0.00  0.00    +0.002 A 
ATOM     11  C   UNL     1       3.848  -5.616  -2.038  0.00  0.00    +0.004 A 
ATOM     12  C   UNL     1       2.485  -5.759  -1.853  0.00  0.00    +0.047 A 
ATOM     13  C   UNL     1       1.746  -4.720  -1.312  0.00  0.00    +0.138 A 
BRANCH  13  14
ATOM     14  O   UNL     1       0.406  -4.861  -1.125  0.00  0.00    -0.505 OA
ATOM     15  H   UNL     1      -0.124  -4.661  -1.908  0.00  0.00    +0.292 HD
ENDBRANCH  13  14
ENDBRANCH   4   8
BRANCH   7  16
ATOM     16  C   UNL     1       0.389  -0.648   2.482  0.00  0.00    +0.117 C 
BRANCH  16  17
ATOM     17  C   UNL     1      -0.604  -1.601   3.151  0.00  0.00    -0.008 C 
ATOM     18  C   UNL     1      -0.003  -3.009   3.208  0.00  0.00    +0.025 C 
ATOM     19  C   UNL     1       1.266  -2.982   4.064  0.00  0.00    +0.097 C 
ATOM     20  N   UNL     1       0.935  -2.516   5.417  0.00  0.00    -0.250 NA
ATOM     21  C   UNL     1       0.400  -1.148   5.392  0.00  0.00    +0.097 C 
ATOM     22  C   UNL     1      -0.894  -1.120   4.575  0.00  0.00    +0.025 C 
BRANCH  17  23
ATOM     23  C   UNL     1      -1.905  -1.632   2.347  0.00  0.00    -0.003 C 
ATOM     24  C   UNL     1      -2.602  -0.274   2.453  0.00  0.00    +0.004 C 
ATOM     25  C   UNL     1      -3.903  -0.305   1.649  0.00  0.00    +0.000 C 
ATOM     26  C   UNL     1      -4.822  -1.395   2.205  0.00  0.00    +0.000 C 
ATOM     27  C   UNL     1      -4.124  -2.752   2.099  0.00  0.00    +0.000 C 
ATOM     28  C   UNL     1      -2.823  -2.722   2.904  0.00  0.00    +0.004 C 
ENDBRANCH  17  23
BRANCH  20  29
ATOM     29  S   UNL     1       2.336  -2.627   6.484  0.00  0.00    -0.081 S 
ATOM     30  C   UNL     1       1.682  -2.178   8.116  0.00  0.00    +0.103 C 
ENDBRANCH  20  29
ENDBRANCH  16  17
ENDBRANCH   7  16
BRANCH   2  31
ATOM     31  C   UNL     1      -1.256  -0.578  -0.217  0.00  0.00    +0.062 C 
BRANCH  31  32
ATOM     32  C   UNL     1      -1.691   0.090  -1.496  0.00  0.00    -0.045 A 
ATOM     33  C   UNL     1      -1.938   1.450  -1.516  0.00  0.00    +0.004 A 
ATOM     34  C   UNL     1      -2.337   2.063  -2.689  0.00  0.00    +0.000 A 
ATOM     35  C   UNL     1      -2.489   1.316  -3.842  0.00  0.00    +0.000 A 
ATOM     36  C   UNL     1      -2.241  -0.044  -3.822  0.00  0.00    +0.000 A 
ATOM     37  C   UNL     1      -1.838  -0.656  -2.650  0.00  0.00    +0.004 A 
ENDBRANCH  31  32
ENDBRANCH   2  31
TORSDOF 8
