REMARK  Name = ZINC34761787
REMARK  9 active torsions:
REMARK  status: ('A' for Active; 'I' for Inactive)
REMARK    1  A    between atoms: C_1  and  C_2
REMARK    2  A    between atoms: C_2  and  C_3
REMARK    3  A    between atoms: C_4  and  C_35
REMARK    4  A    between atoms: C_8  and  N_21
REMARK    5  A    between atoms: C_10  and  S_12
REMARK    6  A    between atoms: S_12  and  C_13
REMARK    7  A    between atoms: C_13  and  C_14
REMARK    8  A    between atoms: N_24  and  C_27
REMARK    9  A    between atoms: C_27  and  C_28
REMARK                            x       y       z     vdW  Elec       q    Type
REMARK                         _______ _______ _______ _____ _____    ______ ____
ROOT
ATOM      1  C   UNL     1       0.821  -0.607   1.121  0.00  0.00    -0.025 A 
ATOM      2  C   UNL     1       2.146  -0.755   0.986  0.00  0.00    -0.007 A 
ATOM      3  S   UNL     1       2.666  -1.337   2.589  0.00  0.00    -0.073 S 
ATOM      4  C   UNL     1       1.088  -1.365   3.397  0.00  0.00    +0.115 A 
ATOM      5  C   UNL     1       0.199  -0.915   2.397  0.00  0.00    +0.051 A 
ATOM      6  C   UNL     1      -1.168  -0.835   2.784  0.00  0.00    +0.134 A 
ATOM      7  N   UNL     1      -1.513  -1.170   4.016  0.00  0.00    -0.206 NA
ATOM      8  C   UNL     1      -0.623  -1.582   4.910  0.00  0.00    +0.191 A 
ATOM      9  N   UNL     1       0.663  -1.686   4.604  0.00  0.00    -0.215 NA
ATOM     10  C   UNL     1       2.995  -0.492  -0.232  0.00  0.00    +0.052 C 
ENDROOT
BRANCH   6  11
ATOM     11  N   UNL     1      -2.126  -0.410   1.881  0.00  0.00    -0.318 N 
ATOM     12  C   UNL     1      -2.869  -1.375   1.057  0.00  0.00    +0.088 C 
ATOM     13  C   UNL     1      -4.366  -1.074   1.187  0.00  0.00    -0.059 C 
ATOM     14  N   UNL     1      -4.613   0.332   0.845  0.00  0.00    +0.384 N 
ATOM     15  C   UNL     1      -3.948   1.208   1.818  0.00  0.00    -0.059 C 
ATOM     16  C   UNL     1      -2.434   1.020   1.722  0.00  0.00    +0.088 C 
ATOM     17  H   UNL     1      -4.252   0.521  -0.078  0.00  0.00    -0.081 HD
BRANCH  14  18
ATOM     18  C   UNL     1      -6.059   0.592   0.864  0.00  0.00    -0.043 C 
BRANCH  18  19
ATOM     19  C   UNL     1      -6.322   2.000   0.394  0.00  0.00    -0.064 A 
ATOM     20  C   UNL     1      -6.353   3.038   1.306  0.00  0.00    +0.003 A 
ATOM     21  C   UNL     1      -6.594   4.329   0.876  0.00  0.00    +0.020 A 
ATOM     22  C   UNL     1      -6.806   4.582  -0.468  0.00  0.00    +0.041 A 
ATOM     23  C   UNL     1      -6.776   3.543  -1.380  0.00  0.00    +0.020 A 
ATOM     24  C   UNL     1      -6.528   2.253  -0.949  0.00  0.00    +0.003 A 
ATOM     25 CL   UNL     1      -7.110   6.204  -1.008  0.00  0.00    -0.084 Cl
ENDBRANCH  18  19
ENDBRANCH  14  18
ENDBRANCH   6  11
BRANCH   1  27
ATOM     26  C   UNL     1       0.024   1.408  -0.085  0.00  0.00    +0.009 C 
ATOM     27  C   UNL     1      -0.013  -0.120  -0.036  0.00  0.00    +0.033 C 
ENDBRANCH   1  27
BRANCH   8  28
ATOM     28  S   UNL     1      -1.162  -2.011   6.532  0.00  0.00    -0.081 S 
BRANCH  28  29
ATOM     29  C   UNL     1       0.361  -2.503   7.385  0.00  0.00    +0.112 C 
BRANCH  29  30
ATOM     30  C   UNL     1       0.037  -2.900   8.803  0.00  0.00    -0.037 A 
ATOM     31  C   UNL     1       0.050  -1.949   9.806  0.00  0.00    +0.007 A 
ATOM     32  C   UNL     1      -0.247  -2.311  11.106  0.00  0.00    +0.038 A 
ATOM     33  C   UNL     1      -0.558  -3.627  11.403  0.00  0.00    +0.123 A 
ATOM     34  C   UNL     1      -0.571  -4.579  10.398  0.00  0.00    +0.038 A 
ATOM     35  C   UNL     1      -0.278  -4.213   9.097  0.00  0.00    +0.007 A 
ATOM     36  F   UNL     1      -0.848  -3.983  12.674  0.00  0.00    -0.205 F 
ENDBRANCH  29  30
ENDBRANCH  28  29
ENDBRANCH   8  28
TORSDOF 7
