REMARK  Name = ZINC63970748
REMARK  6 active torsions:
REMARK  status: ('A' for Active; 'I' for Inactive)
REMARK    1  A    between atoms: C_7  and  C_10
REMARK    2  A    between atoms: C_16  and  C_18
REMARK    3  A    between atoms: N_20  and  C_21
REMARK    4  A    between atoms: C_21  and  C_22
REMARK    5  A    between atoms: C_25  and  C_28
REMARK    6  A    between atoms: C_28  and  N_29
REMARK                            x       y       z     vdW  Elec       q    Type
REMARK                         _______ _______ _______ _____ _____    ______ ____
ROOT
ATOM      1  C   UNL     1       0.622  -3.174  -0.021  0.00  0.00    +0.246 C 
ATOM      2  O   UNL     1      -0.573  -2.977   0.098  0.00  0.00    -0.270 OA
ATOM      3  N   UNL     1       1.090  -4.433  -0.135  0.00  0.00    -0.276 N 
ATOM      4  C   UNL     1       2.540  -4.725  -0.148  0.00  0.00    +0.178 C 
ATOM      5  S   UNL     1       2.553  -6.495   0.380  0.00  0.00    -0.139 S 
ATOM      6  C   UNL     1       0.914  -6.941  -0.349  0.00  0.00    +0.102 C 
ATOM      7  C   UNL     1       0.196  -5.573  -0.244  0.00  0.00    +0.173 C 
ENDROOT
BRANCH   1  14
ATOM      8  C   UNL     1      -0.022   1.345  -0.062  0.00  0.00    +0.001 A 
ATOM      9  C   UNL     1       1.151   2.117  -0.082  0.00  0.00    +0.002 A 
ATOM     10  C   UNL     1       2.378   1.552  -0.088  0.00  0.00    +0.026 A 
ATOM     11  C   UNL     1       2.491   0.086  -0.074  0.00  0.00    +0.043 A 
ATOM     12  N   UNL     1       3.525  -0.708  -0.076  0.00  0.00    -0.380 N 
ATOM     13  C   UNL     1       3.065  -2.100  -0.057  0.00  0.00    +0.154 C 
ATOM     14  C   UNL     1       1.553  -2.041  -0.042  0.00  0.00    +0.043 C 
ATOM     15  C   UNL     1       1.233  -0.701  -0.053  0.00  0.00    +0.008 A 
ATOM     16  C   UNL     1      -0.002  -0.005  -0.048  0.00  0.00    +0.010 A 
ATOM     17  H   UNL     1       4.452  -0.423  -0.088  0.00  0.00    +0.160 HD
ENDBRANCH   1  14
BRANCH   7  18
ATOM     18  C   UNL     1      -0.662  -5.393  -1.470  0.00  0.00    +0.235 C 
ATOM     19  O   UNL     1      -0.526  -4.409  -2.166  0.00  0.00    -0.274 OA
ATOM     20  N   UNL     1      -1.580  -6.325  -1.793  0.00  0.00    -0.310 N 
ATOM     21  H   UNL     1      -1.689  -7.112  -1.236  0.00  0.00    +0.149 HD
BRANCH  20  22
ATOM     22  C   UNL     1      -2.414  -6.150  -2.985  0.00  0.00    +0.139 C 
BRANCH  22  23
ATOM     23  C   UNL     1      -3.351  -7.322  -3.119  0.00  0.00    -0.030 A 
ATOM     24  C   UNL     1      -2.961  -8.440  -3.833  0.00  0.00    +0.005 A 
ATOM     25  C   UNL     1      -3.820  -9.516  -3.956  0.00  0.00    +0.006 A 
ATOM     26  C   UNL     1      -5.069  -9.474  -3.365  0.00  0.00    -0.026 A 
ATOM     27  C   UNL     1      -5.459  -8.357  -2.651  0.00  0.00    +0.006 A 
ATOM     28  C   UNL     1      -4.598  -7.283  -2.524  0.00  0.00    +0.005 A 
BRANCH  26  29
ATOM     29  C   UNL     1      -6.006 -10.646  -3.501  0.00  0.00    +0.180 C 
BRANCH  29  30
ATOM     30  N   UNL     1      -5.784 -11.580  -2.394  0.00  0.00    -0.248 N 
ATOM     31  C   UNL     1      -6.706 -12.041  -1.531  0.00  0.00    +0.219 A 
ATOM     32  N   UNL     1      -6.110 -12.851  -0.694  0.00  0.00    -0.223 NA
ATOM     33  C   UNL     1      -4.813 -12.932  -0.990  0.00  0.00    +0.245 A 
ATOM     34  N   UNL     1      -4.566 -12.175  -2.026  0.00  0.00    -0.158 NA
ENDBRANCH  29  30
ENDBRANCH  26  29
ENDBRANCH  22  23
ENDBRANCH  20  22
ENDBRANCH   7  18
TORSDOF 6
