REMARK  Name = ZINC16310378
REMARK  7 active torsions:
REMARK  status: ('A' for Active; 'I' for Inactive)
REMARK    1  A    between atoms: C_1  and  C_2
REMARK    2  A    between atoms: C_5  and  S_8
REMARK    3  A    between atoms: S_8  and  N_11
REMARK    4  A    between atoms: N_11  and  N_12
REMARK    5  A    between atoms: N_12  and  C_13
REMARK    6  A    between atoms: C_15  and  C_24
REMARK    7  A    between atoms: C_16  and  C_22
REMARK                            x       y       z     vdW  Elec       q    Type
REMARK                         _______ _______ _______ _____ _____    ______ ____
ROOT
ATOM      1  N   UNL     1       2.353  -4.660   1.162  0.00  0.00    -0.268 N 
ATOM      2  H   UNL     1       2.317  -3.764   1.531  0.00  0.00    +0.167 HD
ENDROOT
BRANCH   1   3
ATOM      3  C   UNL     1       3.248  -5.547   1.633  0.00  0.00    +0.099 C 
ATOM      4  C   UNL     1       4.137  -5.172   2.635  0.00  0.00    +0.056 C 
ATOM      5  C   UNL     1       4.250  -3.817   3.021  0.00  0.00    -0.015 C 
ATOM      6  C   UNL     1       5.147  -3.483   4.025  0.00  0.00    +0.117 C 
ATOM      7  C   UNL     1       5.949  -4.532   4.657  0.00  0.00    +0.261 C 
ATOM      8  O   UNL     1       6.736  -4.239   5.538  0.00  0.00    -0.269 OA
ATOM      9  N   UNL     1       5.827  -5.816   4.277  0.00  0.00    -0.248 N 
ATOM     10  C   UNL     1       4.965  -6.180   3.311  0.00  0.00    +0.252 C 
ATOM     11  O   UNL     1       4.873  -7.351   2.991  0.00  0.00    -0.270 OA
ATOM     12  C   UNL     1       3.413  -2.756   2.354  0.00  0.00    +0.046 C 
ATOM     13  H   UNL     1       6.369  -6.493   4.710  0.00  0.00    +0.158 HD
BRANCH   6  14
ATOM     14  C   UNL     1       5.288  -2.119   4.441  0.00  0.00    +0.105 C 
ATOM     15  N   UNL     1       5.400  -1.038   4.770  0.00  0.00    -0.191 NA
ENDBRANCH   6  14
ENDBRANCH   1   3
BRANCH   1  16
ATOM     16  N   UNL     1       1.472  -5.032   0.138  0.00  0.00    -0.110 NA
ATOM     17  H   UNL     1       1.818  -5.389  -0.695  0.00  0.00    +0.171 HD
BRANCH  16  18
ATOM     18  S   UNL     1      -0.162  -4.861   0.349  0.00  0.00    +0.073 S 
ATOM     19  O   UNL     1      -0.489  -5.543   1.552  0.00  0.00    -0.152 OA
ATOM     20  O   UNL     1      -0.768  -5.179  -0.896  0.00  0.00    -0.152 OA
BRANCH  18  25
ATOM     21  C   UNL     1      -1.233   0.994   1.340  0.00  0.00    +0.044 C 
ATOM     22  C   UNL     1      -0.965  -0.468   1.092  0.00  0.00    -0.050 A 
ATOM     23  C   UNL     1      -0.975  -0.964  -0.198  0.00  0.00    +0.005 A 
ATOM     24  C   UNL     1      -0.730  -2.305  -0.425  0.00  0.00    +0.029 A 
ATOM     25  C   UNL     1      -0.474  -3.151   0.638  0.00  0.00    +0.107 A 
ATOM     26  C   UNL     1      -0.463  -2.655   1.929  0.00  0.00    +0.029 A 
ATOM     27  C   UNL     1      -0.704  -1.313   2.155  0.00  0.00    +0.005 A 
ENDBRANCH  18  25
ENDBRANCH  16  18
ENDBRANCH   1  16
TORSDOF 5
