REMARK  Name = ZINC01437961
REMARK  7 active torsions:
REMARK  status: ('A' for Active; 'I' for Inactive)
REMARK    1  A    between atoms: C_1  and  O_2
REMARK    2  A    between atoms: O_2  and  C_3
REMARK    3  A    between atoms: C_5  and  C_10
REMARK    4  A    between atoms: C_8  and  O_9
REMARK    5  A    between atoms: C_12  and  C_30
REMARK    6  A    between atoms: C_13  and  N_29
REMARK    7  A    between atoms: C_20  and  C_23
REMARK                            x       y       z     vdW  Elec       q    Type
REMARK                         _______ _______ _______ _____ _____    ______ ____
ROOT
ATOM      1  C   UNL     1       2.776  -0.824   3.682  0.00  0.00    +0.101 C 
ATOM      2  C   UNL     1       2.476  -2.107   4.406  0.00  0.00    +0.098 C 
ATOM      3  C   UNL     1       2.865  -2.275   5.693  0.00  0.00    +0.198 C 
ATOM      4  O   UNL     1       3.522  -1.310   6.356  0.00  0.00    -0.445 OA
ATOM      5  C   UNL     1       4.185  -0.359   5.671  0.00  0.00    +0.115 C 
ATOM      6  C   UNL     1       3.875  -0.072   4.394  0.00  0.00    +0.046 C 
ATOM      7  C   UNL     1       4.559   0.932   3.683  0.00  0.00    +0.164 C 
ATOM      8  O   UNL     1       4.259   1.154   2.527  0.00  0.00    -0.292 OA
ATOM      9  C   UNL     1       5.654   1.737   4.329  0.00  0.00    +0.088 C 
ATOM     10  C   UNL     1       5.394   1.806   5.837  0.00  0.00    +0.034 C 
ATOM     11  C   UNL     1       5.297   0.378   6.379  0.00  0.00    +0.083 C 
ENDROOT
BRANCH   1  14
ATOM     12  C   UNL     1      -0.148   1.182   2.380  0.00  0.00    +0.162 A 
ATOM     13  C   UNL     1       0.990   0.393   2.422  0.00  0.00    +0.054 A 
ATOM     14  C   UNL     1       1.534   0.028   3.639  0.00  0.00    -0.031 A 
ATOM     15  C   UNL     1       0.938   0.439   4.817  0.00  0.00    +0.008 A 
ATOM     16  C   UNL     1      -0.201   1.221   4.783  0.00  0.00    +0.049 A 
ATOM     17  C   UNL     1      -0.748   1.595   3.566  0.00  0.00    +0.158 A 
BRANCH  12  19
ATOM     18  C   UNL     1      -0.013   1.086   0.008  0.00  0.00    +0.277 C 
ATOM     19  O   UNL     1      -0.682   1.547   1.184  0.00  0.00    -0.491 OA
ENDBRANCH  12  19
BRANCH  17  20
ATOM     20  O   UNL     1      -1.869   2.365   3.531  0.00  0.00    -0.503 OA
ATOM     21  H   UNL     1      -2.693   1.859   3.521  0.00  0.00    +0.292 HD
ENDBRANCH  17  20
ENDBRANCH   1  14
BRANCH  10  22
ATOM     22  C   UNL     1       6.530   2.528   6.514  0.00  0.00    -0.043 A 
ATOM     23  C   UNL     1       7.819   2.041   6.409  0.00  0.00    +0.004 A 
ATOM     24  C   UNL     1       8.862   2.706   7.027  0.00  0.00    +0.000 A 
ATOM     25  C   UNL     1       8.614   3.853   7.757  0.00  0.00    +0.000 A 
ATOM     26  C   UNL     1       7.324   4.338   7.866  0.00  0.00    +0.000 A 
ATOM     27  C   UNL     1       6.282   3.675   7.245  0.00  0.00    +0.004 A 
ENDBRANCH  10  22
BRANCH   3  28
ATOM     28  N   UNL     1       2.584  -3.457   6.332  0.00  0.00    -0.328 N 
ATOM     29  H   UNL     1       2.110  -4.161   5.862  0.00  0.00    +0.145 HD
ATOM     30  H   UNL     1       2.858  -3.588   7.253  0.00  0.00    +0.145 HD
ENDBRANCH   3  28
BRANCH   2  31
ATOM     31  C   UNL     1       1.773  -3.157   3.732  0.00  0.00    +0.101 C 
ATOM     32  N   UNL     1       1.215  -3.990   3.198  0.00  0.00    -0.191 NA
ENDBRANCH   2  31
TORSDOF 6
