REMARK  Name = ZINC12845709
REMARK  5 active torsions:
REMARK  status: ('A' for Active; 'I' for Inactive)
REMARK    1  A    between atoms: C_3  and  C_6
REMARK    2  A    between atoms: C_9  and  C_32
REMARK    3  A    between atoms: C_13  and  C_16
REMARK    4  A    between atoms: N_18  and  C_19
REMARK    5  A    between atoms: C_20  and  C_28
REMARK                            x       y       z     vdW  Elec       q    Type
REMARK                         _______ _______ _______ _____ _____    ______ ____
ROOT
ATOM      1  C   UNL     1       3.599   0.625  -0.029  0.00  0.00    +0.140 C 
ATOM      2  C   UNL     1       4.094   0.360  -1.456  0.00  0.00    +0.066 C 
ATOM      3  C   UNL     1       5.626   0.377  -1.485  0.00  0.00    +0.215 C 
ATOM      4  N   UNL     1       6.131  -0.485  -0.412  0.00  0.00    -0.238 N 
ATOM      5  C   UNL     1       5.391  -0.864   0.657  0.00  0.00    +0.130 A 
ATOM      6  C   UNL     1       6.185  -1.669   1.452  0.00  0.00    +0.096 A 
ATOM      7  C   UNL     1       7.447  -1.758   0.810  0.00  0.00    +0.149 A 
ATOM      8  N   UNL     1       7.397  -1.054  -0.288  0.00  0.00    -0.177 NA
ATOM      9  N   UNL     1       4.079  -0.462   0.846  0.00  0.00    -0.319 N 
ATOM     10  H   UNL     1       3.506  -0.873   1.513  0.00  0.00    +0.148 HD
ENDROOT
BRANCH   1  13
ATOM     11  C   UNL     1      -0.016   1.341   0.009  0.00  0.00    +0.041 A 
ATOM     12  C   UNL     1       1.331   1.769  -0.001  0.00  0.00    +0.046 A 
ATOM     13  C   UNL     1       2.092   0.660  -0.014  0.00  0.00    +0.125 A 
ATOM     14  O   UNL     1       1.282  -0.411  -0.012  0.00  0.00    -0.466 OA
ATOM     15  C   UNL     1       0.002  -0.004   0.002  0.00  0.00    +0.195 A 
ENDBRANCH   1  13
BRANCH   6  16
ATOM     16  C   UNL     1       5.799  -2.307   2.716  0.00  0.00    +0.253 C 
ATOM     17  O   UNL     1       4.677  -2.147   3.159  0.00  0.00    -0.270 OA
ATOM     18  N   UNL     1       6.686  -3.070   3.384  0.00  0.00    -0.275 N 
ATOM     19  H   UNL     1       7.580  -3.197   3.031  0.00  0.00    +0.156 HD
BRANCH  18  20
ATOM     20  C   UNL     1       6.321  -3.672   4.577  0.00  0.00    +0.085 A 
ATOM     21  C   UNL     1       7.096  -4.478   5.397  0.00  0.00    +0.068 A 
ATOM     22  C   UNL     1       6.472  -4.991   6.605  0.00  0.00    -0.023 A 
ATOM     23  C   UNL     1       5.189  -4.605   6.771  0.00  0.00    -0.004 A 
ATOM     24  S   UNL     1       4.841  -3.588   5.366  0.00  0.00    -0.077 S 
ATOM     25  C   UNL     1       4.280  -4.965   7.905  0.00  0.00    +0.043 C 
ATOM     26  C   UNL     1       4.902  -6.148   8.664  0.00  0.00    +0.005 C 
ATOM     27  C   UNL     1       6.378  -5.843   8.932  0.00  0.00    +0.005 C 
ATOM     28  C   UNL     1       7.166  -5.887   7.620  0.00  0.00    +0.037 C 
BRANCH  21  29
ATOM     29  C   UNL     1       8.485  -4.800   5.059  0.00  0.00    +0.244 C 
ATOM     30  O   UNL     1       9.388  -4.082   5.449  0.00  0.00    -0.270 OA
ATOM     31  N   UNL     1       8.763  -5.890   4.318  0.00  0.00    -0.325 N 
ATOM     32  H   UNL     1       8.044  -6.462   4.007  0.00  0.00    +0.145 HD
ATOM     33  H   UNL     1       9.683  -6.103   4.094  0.00  0.00    +0.145 HD
ENDBRANCH  21  29
ENDBRANCH  18  20
ENDBRANCH   6  16
BRANCH   3  34
ATOM     34  C   UNL     1       6.119  -0.142  -2.838  0.00  0.00    +0.412 C 
ATOM     35  F   UNL     1       5.625   0.676  -3.859  0.00  0.00    -0.168 F 
ATOM     36  F   UNL     1       7.518  -0.125  -2.862  0.00  0.00    -0.168 F 
ATOM     37  F   UNL     1       5.665  -1.452  -3.028  0.00  0.00    -0.168 F 
ENDBRANCH   3  34
TORSDOF 5
