REMARK  Name = ZINC13063774
REMARK  13 active torsions:
REMARK  status: ('A' for Active; 'I' for Inactive)
REMARK    1  A    between atoms: C_1  and  C_2
REMARK    2  A    between atoms: C_2  and  C_3
REMARK    3  A    between atoms: C_3  and  C_5
REMARK    4  A    between atoms: C_3  and  N_66
REMARK    5  A    between atoms: N_9  and  C_10
REMARK    6  A    between atoms: C_10  and  C_11
REMARK    7  A    between atoms: C_10  and  C_12
REMARK    8  A    between atoms: C_10  and  C_13
REMARK    9  A    between atoms: C_14  and  C_15
REMARK   10  A    between atoms: C_14  and  N_66
REMARK   11  A    between atoms: C_20  and  C_27
REMARK   12  A    between atoms: C_28  and  C_29
REMARK   13  A    between atoms: C_28  and  N_66
REMARK                            x       y       z     vdW  Elec       q    Type
REMARK                         _______ _______ _______ _____ _____    ______ ____
ROOT
ATOM      1  N   UNL     1      -1.544  -0.544   1.370  0.00  0.00    +0.391 N 
ATOM      2  H   UNL     1      -1.254  -0.850   2.307  0.00  0.00    -0.080 HD
ENDROOT
BRANCH   1   3
ATOM      3  C   UNL     1      -1.815   0.909   1.402  0.00  0.00    +0.003 C 
BRANCH   3   4
ATOM      4  C   UNL     1      -2.968   1.172   2.337  0.00  0.00    +0.139 A 
ATOM      5  N   UNL     1      -3.170   0.616   3.507  0.00  0.00    -0.115 NA
ATOM      6  N   UNL     1      -4.257   1.103   3.996  0.00  0.00    -0.023 NA
ATOM      7  N   UNL     1      -4.759   1.950   3.166  0.00  0.00    -0.043 NA
ATOM      8  N   UNL     1      -3.993   2.020   2.130  0.00  0.00    -0.226 N 
BRANCH   8   9
ATOM      9  C   UNL     1      -4.199   2.864   0.951  0.00  0.00    +0.059 C 
ATOM     10  C   UNL     1      -4.453   1.979  -0.271  0.00  0.00    +0.036 C 
ATOM     11  C   UNL     1      -5.407   3.775   1.180  0.00  0.00    +0.036 C 
ATOM     12  C   UNL     1      -2.954   3.720   0.711  0.00  0.00    +0.036 C 
ENDBRANCH   8   9
ENDBRANCH   3   4
BRANCH   3  14
ATOM     13  C   UNL     1      -0.181   1.078   3.284  0.00  0.00    +0.002 C 
ATOM     14  C   UNL     1      -0.569   1.634   1.913  0.00  0.00    -0.011 C 
ENDBRANCH   3  14
ENDBRANCH   1   3
BRANCH   1  15
ATOM     15  C   UNL     1      -0.457  -0.834   0.412  0.00  0.00    -0.036 C 
BRANCH  15  16
ATOM     16  C   UNL     1      -0.813  -0.327  -0.961  0.00  0.00    +0.001 A 
ATOM     17  C   UNL     1      -0.409   0.907  -1.352  0.00  0.00    +0.017 A 
ATOM     18  C   UNL     1      -0.768   1.368  -2.694  0.00  0.00    -0.001 A 
ATOM     19  C   UNL     1      -0.375   2.629  -3.156  0.00  0.00    +0.010 A 
ATOM     20  C   UNL     1      -0.730   3.031  -4.411  0.00  0.00    +0.004 A 
ATOM     21  C   UNL     1      -1.478   2.200  -5.235  0.00  0.00    -0.048 A 
ATOM     22  C   UNL     1      -1.876   0.954  -4.801  0.00  0.00    +0.029 A 
ATOM     23  C   UNL     1      -1.526   0.523  -3.526  0.00  0.00    +0.049 A 
ATOM     24  N   UNL     1      -1.911  -0.719  -3.067  0.00  0.00    -0.322 N 
ATOM     25  H   UNL     1      -2.433  -1.300  -3.642  0.00  0.00    +0.169 HD
ATOM     26  C   UNL     1      -1.572  -1.136  -1.834  0.00  0.00    +0.251 A 
ATOM     27  O   UNL     1      -1.929  -2.240  -1.462  0.00  0.00    -0.268 OA
ATOM     28  C   UNL     1      -1.858   2.666  -6.617  0.00  0.00    +0.044 C 
ENDBRANCH  15  16
ENDBRANCH   1  15
BRANCH   1  29
ATOM     29  C   UNL     1      -2.768  -1.278   0.983  0.00  0.00    -0.045 C 
BRANCH  29  30
ATOM     30  C   UNL     1      -2.569  -2.763   1.293  0.00  0.00    +0.102 C 
ATOM     31  C   UNL     1      -3.773  -3.584   0.780  0.00  0.00    +0.032 C 
ATOM     32  C   UNL     1      -3.970  -4.674   1.858  0.00  0.00    +0.030 C 
ATOM     33  C   UNL     1      -2.862  -4.381   2.894  0.00  0.00    +0.160 C 
ATOM     34  O   UNL     1      -2.554  -2.981   2.720  0.00  0.00    -0.378 OA
ENDBRANCH  29  30
ENDBRANCH   1  29
TORSDOF 8
