REMARK  Name = ZINC24142148
REMARK  12 active torsions:
REMARK  status: ('A' for Active; 'I' for Inactive)
REMARK    1  A    between atoms: C_1  and  O_2
REMARK    2  A    between atoms: O_2  and  C_3
REMARK    3  A    between atoms: C_6  and  N_9
REMARK    4  A    between atoms: C_10  and  C_29
REMARK    5  A    between atoms: C_13  and  S_14
REMARK    6  A    between atoms: S_14  and  C_15
REMARK    7  A    between atoms: C_15  and  C_16
REMARK    8  A    between atoms: N_18  and  C_19
REMARK    9  A    between atoms: N_18  and  C_23
REMARK   10  A    between atoms: C_19  and  C_20
REMARK   11  A    between atoms: C_20  and  C_21
REMARK   12  A    between atoms: C_23  and  C_24
REMARK                            x       y       z     vdW  Elec       q    Type
REMARK                         _______ _______ _______ _____ _____    ______ ____
ROOT
ATOM      1  N   UNL     1       1.284   1.734  -0.001  0.00  0.00    -0.270 N 
ATOM      2  C   UNL     1       2.047   0.586  -0.014  0.00  0.00    +0.169 A 
ATOM      3  N   UNL     1       1.214  -0.429  -0.012  0.00  0.00    -0.128 NA
ATOM      4  N   UNL     1       0.002  -0.004   0.002  0.00  0.00    -0.122 NA
ATOM      5  C   UNL     1      -0.016   1.311   0.009  0.00  0.00    +0.197 A 
ENDROOT
BRANCH   1   9
ATOM      6  C   UNL     1       2.655   5.674   0.007  0.00  0.00    +0.120 A 
ATOM      7  C   UNL     1       1.959   5.180   1.101  0.00  0.00    +0.047 A 
ATOM      8  C   UNL     1       1.504   3.876   1.098  0.00  0.00    +0.030 A 
ATOM      9  C   UNL     1       1.745   3.059   0.002  0.00  0.00    +0.051 A 
ATOM     10  C   UNL     1       2.447   3.552  -1.090  0.00  0.00    +0.030 A 
ATOM     11  C   UNL     1       2.896   4.858  -1.089  0.00  0.00    +0.047 A 
BRANCH   6  13
ATOM     12  C   UNL     1       3.812   7.400  -1.149  0.00  0.00    +0.277 C 
ATOM     13  O   UNL     1       3.102   6.957   0.010  0.00  0.00    -0.495 OA
ENDBRANCH   6  13
ENDBRANCH   1   9
BRANCH   2  14
ATOM     14  C   UNL     1       3.522   0.513  -0.029  0.00  0.00    +0.022 A 
ATOM     15  C   UNL     1       4.302   1.636   0.275  0.00  0.00    +0.031 A 
ATOM     16  C   UNL     1       5.676   1.521   0.255  0.00  0.00    +0.111 A 
ATOM     17  N   UNL     1       6.256   0.377  -0.056  0.00  0.00    -0.263 NA
ATOM     18  C   UNL     1       5.559  -0.704  -0.353  0.00  0.00    +0.111 A 
ATOM     19  C   UNL     1       4.181  -0.680  -0.352  0.00  0.00    +0.031 A 
ENDBRANCH   2  14
BRANCH   5  20
ATOM     20  S   UNL     1      -1.448   2.337   0.022  0.00  0.00    -0.076 S 
BRANCH  20  21
ATOM     21  C   UNL     1      -2.742   1.071   0.022  0.00  0.00    +0.173 C 
BRANCH  21  22
ATOM     22  C   UNL     1      -4.095   1.735   0.033  0.00  0.00    +0.226 C 
ATOM     23  O   UNL     1      -4.176   2.945   0.039  0.00  0.00    -0.275 OA
ATOM     24  N   UNL     1      -5.214   0.984   0.035  0.00  0.00    -0.293 N 
BRANCH  24  25
ATOM     25  C   UNL     1      -5.115  -0.477   0.027  0.00  0.00    +0.123 C 
BRANCH  25  26
ATOM     26  C   UNL     1      -5.073  -0.994   1.466  0.00  0.00    +0.137 C 
BRANCH  26  27
ATOM     27  C   UNL     1      -4.974  -2.462   1.458  0.00  0.00    +0.064 C 
ATOM     28  N   UNL     1      -4.898  -3.596   1.452  0.00  0.00    -0.197 NA
ENDBRANCH  26  27
ENDBRANCH  25  26
ENDBRANCH  24  25
BRANCH  24  29
ATOM     29  C   UNL     1      -6.529   1.629   0.045  0.00  0.00    +0.182 C 
BRANCH  29  30
ATOM     30  C   UNL     1      -6.987   1.858  -1.373  0.00  0.00    +0.122 A 
ATOM     31  C   UNL     1      -7.707   0.998  -2.115  0.00  0.00    +0.046 A 
ATOM     32  C   UNL     1      -7.912   1.613  -3.371  0.00  0.00    +0.041 A 
ATOM     33  C   UNL     1      -7.304   2.812  -3.322  0.00  0.00    +0.195 A 
ATOM     34  O   UNL     1      -6.751   2.958  -2.107  0.00  0.00    -0.466 OA
ENDBRANCH  29  30
ENDBRANCH  24  29
ENDBRANCH  21  22
ENDBRANCH  20  21
ENDBRANCH   5  20
TORSDOF 11
