REMARK  Name = ZINC55182695
REMARK  7 active torsions:
REMARK  status: ('A' for Active; 'I' for Inactive)
REMARK    1  A    between atoms: C_1  and  C_2
REMARK    2  A    between atoms: C_2  and  C_4
REMARK    3  A    between atoms: C_2  and  N_14
REMARK    4  A    between atoms: C_15  and  C_17
REMARK    5  A    between atoms: C_20  and  C_25
REMARK    6  A    between atoms: C_25  and  N_26
REMARK    7  A    between atoms: C_29  and  C_32
REMARK                            x       y       z     vdW  Elec       q    Type
REMARK                         _______ _______ _______ _____ _____    ______ ____
ROOT
ATOM      1  C   UNL     1       0.503  -1.189   3.512  0.00  0.00    +0.101 A 
ATOM      2  C   UNL     1      -0.190  -1.292   4.716  0.00  0.00    +0.020 A 
ATOM      3  C   UNL     1       0.512  -1.632   5.873  0.00  0.00    +0.023 A 
ATOM      4  C   UNL     1       1.850  -1.857   5.816  0.00  0.00    +0.033 A 
ATOM      5  N   UNL     1       2.530  -1.759   4.650  0.00  0.00    -0.324 N 
ATOM      6  H   UNL     1       3.486  -1.925   4.639  0.00  0.00    +0.169 HD
ATOM      7  C   UNL     1       1.900  -1.440   3.503  0.00  0.00    +0.261 A 
ATOM      8  O   UNL     1       2.529  -1.361   2.462  0.00  0.00    -0.267 OA
ENDROOT
BRANCH   1  10
ATOM      9  N   UNL     1       0.496  -0.623   1.137  0.00  0.00    -0.305 N 
ATOM     10  C   UNL     1      -0.201  -0.833   2.271  0.00  0.00    +0.250 C 
ATOM     11  O   UNL     1      -1.413  -0.728   2.268  0.00  0.00    -0.270 OA
ATOM     12  H   UNL     1       1.454  -0.776   1.121  0.00  0.00    +0.150 HD
BRANCH   9  14
ATOM     13  C   UNL     1      -0.220   1.364  -0.095  0.00  0.00    +0.033 C 
ATOM     14  C   UNL     1      -0.193  -0.165  -0.072  0.00  0.00    +0.101 C 
BRANCH  14  15
ATOM     15  C   UNL     1       0.537  -0.672  -1.289  0.00  0.00    -0.020 A 
ATOM     16  C   UNL     1       1.871  -0.940  -1.225  0.00  0.00    +0.006 A 
ATOM     17  C   UNL     1       2.562  -1.409  -2.340  0.00  0.00    +0.001 A 
ATOM     18  C   UNL     1       1.925  -1.614  -3.525  0.00  0.00    +0.008 A 
ATOM     19  C   UNL     1       0.550  -1.349  -3.630  0.00  0.00    -0.018 A 
ATOM     20  C   UNL     1      -0.155  -0.877  -2.494  0.00  0.00    -0.013 A 
ATOM     21  C   UNL     1      -1.533  -0.618  -2.597  0.00  0.00    +0.009 A 
ATOM     22  C   UNL     1      -2.171  -0.828  -3.781  0.00  0.00    +0.001 A 
ATOM     23  C   UNL     1      -1.479  -1.298  -4.896  0.00  0.00    +0.001 A 
ATOM     24  C   UNL     1      -0.142  -1.547  -4.837  0.00  0.00    +0.008 A 
ENDBRANCH  14  15
ENDBRANCH   9  14
ENDBRANCH   1  10
BRANCH   4  25
ATOM     25  C   UNL     1       2.591  -2.224   7.076  0.00  0.00    +0.138 C 
BRANCH  25  26
ATOM     26  N   UNL     1       3.551  -1.161   7.406  0.00  0.00    -0.293 NA
ATOM     27  C   UNL     1       4.527  -1.624   8.406  0.00  0.00    +0.090 C 
ATOM     28  C   UNL     1       5.673  -0.611   8.473  0.00  0.00    +0.051 C 
ATOM     29  C   UNL     1       5.113   0.778   8.608  0.00  0.00    -0.042 C 
ATOM     30  C   UNL     1       3.858   1.067   8.342  0.00  0.00    -0.008 C 
ATOM     31  C   UNL     1       2.860   0.041   7.888  0.00  0.00    +0.112 C 
BRANCH  29  32
ATOM     32  C   UNL     1       6.011   1.863   9.057  0.00  0.00    -0.022 A 
ATOM     33  C   UNL     1       7.086   2.258   8.259  0.00  0.00    +0.011 A 
ATOM     34  C   UNL     1       7.920   3.272   8.682  0.00  0.00    +0.039 A 
ATOM     35  C   UNL     1       7.692   3.897   9.898  0.00  0.00    +0.123 A 
ATOM     36  C   UNL     1       6.627   3.509  10.694  0.00  0.00    +0.039 A 
ATOM     37  C   UNL     1       5.783   2.501  10.277  0.00  0.00    +0.011 A 
ATOM     38  F   UNL     1       8.513   4.889  10.308  0.00  0.00    -0.205 F 
ENDBRANCH  29  32
ENDBRANCH  25  26
ENDBRANCH   4  25
TORSDOF 6
