REMARK  Name = ZINC05234418
REMARK  7 active torsions:
REMARK  status: ('A' for Active; 'I' for Inactive)
REMARK    1  A    between atoms: C_10  and  O_11
REMARK    2  A    between atoms: O_11  and  C_12
REMARK    3  A    between atoms: C_14  and  O_27
REMARK    4  A    between atoms: C_16  and  O_26
REMARK    5  A    between atoms: C_18  and  O_25
REMARK    6  A    between atoms: C_20  and  C_23
REMARK    7  A    between atoms: C_23  and  O_24
REMARK                            x       y       z     vdW  Elec       q    Type
REMARK                         _______ _______ _______ _____ _____    ______ ____
ROOT
ATOM      1  C   UNL     1       0.598   3.915  -1.312  0.00  0.00    +0.339 C 
ATOM      2  C   UNL     1       1.385   3.486  -0.071  0.00  0.00    +0.214 C 
ATOM      3  C   UNL     1       1.419   1.956  -0.001  0.00  0.00    +0.180 C 
ATOM      4  C   UNL     1      -0.017   1.425   0.010  0.00  0.00    +0.177 C 
ATOM      5  C   UNL     1      -0.751   1.933  -1.234  0.00  0.00    +0.179 C 
ATOM      6  O   UNL     1      -0.718   3.362  -1.254  0.00  0.00    -0.331 OA
ENDROOT
BRANCH   4   7
ATOM      7  O   UNL     1       0.002  -0.004   0.002  0.00  0.00    -0.386 OA
ATOM      8  H   UNL     1       0.456  -0.395   0.761  0.00  0.00    +0.210 HD
ENDBRANCH   4   7
BRANCH   3   9
ATOM      9  O   UNL     1       2.090   1.545   1.192  0.00  0.00    -0.386 OA
ATOM     10  H   UNL     1       3.007   1.848   1.252  0.00  0.00    +0.210 HD
ENDBRANCH   3   9
BRANCH   2  11
ATOM     11  O   UNL     1       2.720   3.990  -0.155  0.00  0.00    -0.383 OA
ATOM     12  H   UNL     1       2.774   4.954  -0.203  0.00  0.00    +0.210 HD
ENDBRANCH   2  11
BRANCH   1  13
ATOM     13  O   UNL     1       0.514   5.341  -1.354  0.00  0.00    -0.460 OA
BRANCH  13  23
ATOM     14  C   UNL     1      -0.438  10.041  -2.832  0.00  0.00    +0.001 A 
ATOM     15  C   UNL     1       0.160   9.495  -1.698  0.00  0.00    +0.001 A 
ATOM     16  C   UNL     1       0.291   8.148  -1.556  0.00  0.00    +0.012 A 
ATOM     17  C   UNL     1      -0.188   7.293  -2.561  0.00  0.00    +0.024 A 
ATOM     18  C   UNL     1      -0.790   7.848  -3.717  0.00  0.00    -0.014 A 
ATOM     19  C   UNL     1      -0.908   9.244  -3.830  0.00  0.00    +0.008 A 
ATOM     20  C   UNL     1      -1.264   6.992  -4.726  0.00  0.00    +0.009 A 
ATOM     21  C   UNL     1      -1.134   5.644  -4.586  0.00  0.00    +0.004 A 
ATOM     22  C   UNL     1      -0.538   5.094  -3.455  0.00  0.00    +0.046 A 
ATOM     23  C   UNL     1      -0.065   5.893  -2.451  0.00  0.00    +0.132 A 
ENDBRANCH  13  23
ENDBRANCH   1  13
BRANCH   5  24
ATOM     24  C   UNL     1      -2.204   1.456  -1.200  0.00  0.00    +0.190 C 
BRANCH  24  25
ATOM     25  O   UNL     1      -2.857   1.831  -2.415  0.00  0.00    -0.392 OA
ATOM     26  H   UNL     1      -3.784   1.560  -2.463  0.00  0.00    +0.210 HD
ENDBRANCH  24  25
ENDBRANCH   5  24
TORSDOF 7
