REMARK  Name = ZINC10386399
REMARK  10 active torsions:
REMARK  status: ('A' for Active; 'I' for Inactive)
REMARK    1  A    between atoms: C_1  and  N_2
REMARK    2  A    between atoms: N_7  and  C_10
REMARK    3  A    between atoms: N_11  and  C_22
REMARK    4  A    between atoms: N_14  and  C_15
REMARK    5  A    between atoms: C_15  and  C_16
REMARK    6  A    between atoms: C_22  and  C_23
REMARK    7  A    between atoms: N_25  and  N_26
REMARK    8  A    between atoms: C_27  and  C_28
REMARK    9  A    between atoms: C_29  and  C_30
REMARK   10  A    between atoms: C_33  and  N_35
REMARK                            x       y       z     vdW  Elec       q    Type
REMARK                         _______ _______ _______ _____ _____    ______ ____
ROOT
ATOM      1  C   UNL     1      -0.018   1.461   0.010  0.00  0.00    +0.155 C 
ATOM      2  N   UNL     1       0.002  -0.004   0.002  0.00  0.00    -0.280 N 
ATOM      3  C   UNL     1      -1.189  -0.713   0.004  0.00  0.00    +0.170 A 
ATOM      4  C   UNL     1      -1.141  -2.102  -0.004  0.00  0.00    +0.153 A 
ATOM      5  C   UNL     1       0.108  -2.747  -0.015  0.00  0.00    +0.282 A 
ATOM      6  O   UNL     1       0.173  -3.964  -0.022  0.00  0.00    -0.265 OA
ATOM      7  N   UNL     1       1.234  -2.004  -0.016  0.00  0.00    -0.262 N 
ATOM      8  C   UNL     1       1.177  -0.661  -0.013  0.00  0.00    +0.333 A 
ATOM      9  O   UNL     1       2.213  -0.023  -0.019  0.00  0.00    -0.246 OA
ATOM     10  C   UNL     1       2.539  -2.671  -0.027  0.00  0.00    +0.157 C 
ATOM     11  N   UNL     1      -2.460  -2.538   0.000  0.00  0.00    -0.297 N 
ATOM     12  C   UNL     1      -3.240  -1.425   0.011  0.00  0.00    +0.199 A 
ATOM     13  N   UNL     1      -2.474  -0.354   0.013  0.00  0.00    -0.196 NA
ATOM     14  N   UNL     1      -4.616  -1.419   0.017  0.00  0.00    -0.311 N 
ATOM     15  H   UNL     1      -5.105  -2.257   0.015  0.00  0.00    +0.149 HD
ENDROOT
BRANCH  14  16
ATOM     16  C   UNL     1      -5.343  -0.147   0.029  0.00  0.00    +0.139 C 
BRANCH  16  17
ATOM     17  C   UNL     1      -6.825  -0.415   0.034  0.00  0.00    -0.030 A 
ATOM     18  C   UNL     1      -7.510  -0.537  -1.160  0.00  0.00    +0.005 A 
ATOM     19  C   UNL     1      -8.871  -0.783  -1.155  0.00  0.00    +0.000 A 
ATOM     20  C   UNL     1      -9.546  -0.908   0.045  0.00  0.00    +0.000 A 
ATOM     21  C   UNL     1      -8.861  -0.788   1.239  0.00  0.00    +0.000 A 
ATOM     22  C   UNL     1      -7.500  -0.546   1.234  0.00  0.00    +0.005 A 
ENDBRANCH  16  17
ENDBRANCH  14  16
BRANCH  11  23
ATOM     23  C   UNL     1      -2.921  -3.929  -0.006  0.00  0.00    +0.222 C 
BRANCH  23  24
ATOM     24  C   UNL     1      -3.071  -4.415   1.413  0.00  0.00    +0.252 C 
ATOM     25  O   UNL     1      -2.819  -3.675   2.334  0.00  0.00    -0.272 OA
ATOM     26  N   UNL     1      -3.486  -5.674   1.653  0.00  0.00    -0.206 N 
ATOM     27  H   UNL     1      -3.688  -6.268   0.914  0.00  0.00    +0.177 HD
BRANCH  26  28
ATOM     28  N   UNL     1      -3.615  -6.090   2.868  0.00  0.00    -0.188 NA
ATOM     29  C   UNL     1      -4.024  -7.330   3.105  0.00  0.00    +0.130 C 
BRANCH  29  30
ATOM     30  C   UNL     1      -4.162  -7.776   4.407  0.00  0.00    +0.025 C 
ATOM     31  C   UNL     1      -4.598  -9.097   4.660  0.00  0.00    +0.048 C 
BRANCH  31  32
ATOM     32  C   UNL     1      -4.736  -9.541   5.960  0.00  0.00    +0.131 A 
ATOM     33  C   UNL     1      -5.168 -10.876   6.385  0.00  0.00    +0.052 A 
ATOM     34  C   UNL     1      -5.152 -10.851   7.765  0.00  0.00    +0.076 A 
ATOM     35  C   UNL     1      -4.738  -9.589   8.157  0.00  0.00    +0.280 A 
ATOM     36  O   UNL     1      -4.492  -8.831   7.085  0.00  0.00    -0.435 OA
BRANCH  35  37
ATOM     37  N   UNL     1      -4.585  -9.145   9.561  0.00  0.00    +0.093 N 
ATOM     38  O   UNL     1      -4.851  -9.977  10.547  0.00  0.00    -0.123 OA
ATOM     39  O   UNL     1      -4.184  -7.919   9.824  0.00  0.00    -0.123 OA
ENDBRANCH  35  37
ENDBRANCH  31  32
ENDBRANCH  29  30
ENDBRANCH  26  28
ENDBRANCH  23  24
ENDBRANCH  11  23
TORSDOF 8
