REMARK  Name = ZINC20686668
REMARK  6 active torsions:
REMARK  status: ('A' for Active; 'I' for Inactive)
REMARK    1  A    between atoms: C_8  and  C_10
REMARK    2  A    between atoms: N_15  and  C_16
REMARK    3  A    between atoms: C_16  and  C_17
REMARK    4  A    between atoms: N_19  and  C_20
REMARK    5  A    between atoms: N_19  and  C_26
REMARK    6  A    between atoms: C_20  and  C_21
REMARK                            x       y       z     vdW  Elec       q    Type
REMARK                         _______ _______ _______ _____ _____    ______ ____
ROOT
ATOM      1  C   UNL     1      -3.593  -2.090  -0.093  0.00  0.00    +0.204 C 
ATOM      2  O   UNL     1      -2.537  -2.687  -0.103  0.00  0.00    -0.277 OA
ATOM      3  N   UNL     1      -3.605  -0.747   0.018  0.00  0.00    -0.268 N 
ENDROOT
BRANCH   3   4
ATOM      4  C   UNL     1      -2.400  -0.032   0.022  0.00  0.00    +0.040 A 
ATOM      5  C   UNL     1      -1.628   0.033  -1.130  0.00  0.00    +0.027 A 
ATOM      6  C   UNL     1      -0.437   0.733  -1.126  0.00  0.00    +0.051 A 
ATOM      7  C   UNL     1      -0.013   1.379   0.026  0.00  0.00    +0.162 A 
ATOM      8  C   UNL     1      -0.785   1.317   1.180  0.00  0.00    +0.164 A 
ATOM      9  C   UNL     1      -1.978   0.611   1.176  0.00  0.00    +0.073 A 
ATOM     10  O   UNL     1      -0.385   1.945   2.320  0.00  0.00    -0.485 OA
ATOM     11  C   UNL     1       0.993   2.327   2.395  0.00  0.00    +0.270 C 
ATOM     12  C   UNL     1       1.376   3.003   1.071  0.00  0.00    +0.270 C 
ATOM     13  O   UNL     1       1.164   2.064   0.011  0.00  0.00    -0.485 OA
ENDBRANCH   3   4
BRANCH   1  14
ATOM     14  C   UNL     1      -4.890  -2.849  -0.204  0.00  0.00    +0.020 C 
BRANCH  14  19
ATOM     15  C   UNL     1      -5.827  -5.039  -0.678  0.00  0.00    -0.011 C 
ATOM     16  C   UNL     1      -5.683  -6.400   0.048  0.00  0.00    -0.010 C 
ATOM     17  C   UNL     1      -5.022  -5.974   1.385  0.00  0.00    -0.020 C 
ATOM     18  C   UNL     1      -4.090  -4.821   0.960  0.00  0.00    -0.077 C 
ATOM     19  N   UNL     1      -4.608  -4.287  -0.312  0.00  0.00    +0.391 N 
ATOM     20  H   UNL     1      -3.847  -4.403  -1.099  0.00  0.00    -0.080 HD
BRANCH  15  28
ATOM     21  C   UNL     1      -7.573  -5.447  -6.583  0.00  0.00    +0.002 A 
ATOM     22  C   UNL     1      -6.311  -5.846  -7.002  0.00  0.00    +0.001 A 
ATOM     23  C   UNL     1      -5.298  -5.979  -6.071  0.00  0.00    +0.017 A 
ATOM     24  C   UNL     1      -5.559  -5.714  -4.748  0.00  0.00    +0.039 A 
ATOM     25  C   UNL     1      -6.833  -5.306  -4.294  0.00  0.00    +0.078 A 
ATOM     26  C   UNL     1      -7.841  -5.182  -5.276  0.00  0.00    +0.029 A 
ATOM     27  N   UNL     1      -6.910  -5.089  -2.965  0.00  0.00    -0.246 NA
ATOM     28  C   UNL     1      -5.889  -5.244  -2.170  0.00  0.00    +0.066 A 
ATOM     29  S   UNL     1      -4.617  -5.736  -3.244  0.00  0.00    -0.074 S 
ENDBRANCH  15  28
ENDBRANCH  14  19
ENDBRANCH   1  14
BRANCH   3  30
ATOM     30  C   UNL     1      -4.880  -0.033   0.135  0.00  0.00    +0.156 C 
BRANCH  30  31
ATOM     31  C   UNL     1      -5.381   0.327  -1.240  0.00  0.00    +0.007 A 
ATOM     32  C   UNL     1      -6.182  -0.384  -2.070  0.00  0.00    +0.013 A 
ATOM     33  C   UNL     1      -6.518   0.151  -3.300  0.00  0.00    +0.008 A 
ATOM     34  C   UNL     1      -6.035   1.372  -3.639  0.00  0.00    +0.045 A 
ATOM     35  S   UNL     1      -5.080   1.806  -2.194  0.00  0.00    -0.100 S 
ENDBRANCH  30  31
ENDBRANCH   3  30
TORSDOF 6
