REMARK  Name = ZINC45809647
REMARK  9 active torsions:
REMARK  status: ('A' for Active; 'I' for Inactive)
REMARK    1  A    between atoms: C_1  and  N_2
REMARK    2  A    between atoms: C_8  and  S_13
REMARK    3  A    between atoms: S_13  and  N_16
REMARK    4  A    between atoms: N_16  and  C_17
REMARK    5  A    between atoms: C_17  and  C_18
REMARK    6  A    between atoms: C_18  and  C_20
REMARK    7  A    between atoms: C_18  and  N_25
REMARK    8  A    between atoms: N_25  and  C_26
REMARK    9  A    between atoms: N_25  and  C_27
REMARK                            x       y       z     vdW  Elec       q    Type
REMARK                         _______ _______ _______ _____ _____    ______ ____
ROOT
ATOM      1  S   UNL     1       0.594  -6.736   0.892  0.00  0.00    +0.058 S 
ATOM      2  O   UNL     1      -0.210  -6.642   2.061  0.00  0.00    -0.153 OA
ATOM      3  O   UNL     1       0.375  -7.725  -0.105  0.00  0.00    -0.153 OA
ENDROOT
BRANCH   1  11
ATOM      4  C   UNL     1      -0.400   0.825  -0.394  0.00  0.00    +0.142 C 
ATOM      5  N   UNL     1      -0.155  -0.618  -0.443  0.00  0.00    -0.237 N 
ATOM      6  C   UNL     1       0.167  -1.298  -1.558  0.00  0.00    +0.254 C 
ATOM      7  O   UNL     1       0.298  -0.821  -2.667  0.00  0.00    -0.270 OA
ATOM      8  C   UNL     1       0.334  -2.725  -1.208  0.00  0.00    +0.050 A 
ATOM      9  C   UNL     1       0.656  -3.866  -1.925  0.00  0.00    +0.016 A 
ATOM     10  C   UNL     1       0.733  -5.087  -1.274  0.00  0.00    +0.029 A 
ATOM     11  C   UNL     1       0.491  -5.174   0.084  0.00  0.00    +0.106 A 
ATOM     12  C   UNL     1       0.168  -4.041   0.814  0.00  0.00    +0.042 A 
ATOM     13  C   UNL     1       0.087  -2.813   0.177  0.00  0.00    +0.051 A 
ATOM     14  C   UNL     1      -0.217  -1.437   0.622  0.00  0.00    +0.254 C 
ATOM     15  O   UNL     1      -0.481  -1.102   1.760  0.00  0.00    -0.270 OA
ENDBRANCH   1  11
BRANCH   1  16
ATOM     16  N   UNL     1       2.157  -6.920   1.407  0.00  0.00    -0.191 NA
ATOM     17  H   UNL     1       2.712  -7.622   1.032  0.00  0.00    +0.148 HD
BRANCH  16  18
ATOM     18  C   UNL     1       2.703  -6.022   2.428  0.00  0.00    +0.095 C 
BRANCH  18  19
ATOM     19  C   UNL     1       3.994  -6.617   2.992  0.00  0.00    -0.022 C 
BRANCH  19  20
ATOM     20  C   UNL     1       3.682  -7.901   3.716  0.00  0.00    -0.053 A 
ATOM     21  C   UNL     1       3.900  -9.122   3.105  0.00  0.00    +0.009 A 
ATOM     22  C   UNL     1       3.608 -10.258   3.784  0.00  0.00    +0.045 A 
ATOM     23  S   UNL     1       3.004  -9.616   5.336  0.00  0.00    -0.105 S 
ATOM     24  C   UNL     1       3.187  -7.877   4.978  0.00  0.00    +0.047 A 
ENDBRANCH  19  20
BRANCH  19  25
ATOM     25  N   UNL     1       4.604  -5.663   3.928  0.00  0.00    +0.381 N 
ATOM     26  C   UNL     1       5.817  -6.255   4.509  0.00  0.00    -0.096 C 
ATOM     27  C   UNL     1       4.955  -4.430   3.212  0.00  0.00    -0.096 C 
ATOM     28  H   UNL     1       3.949  -5.449   4.665  0.00  0.00    -0.082 HD
ENDBRANCH  19  25
ENDBRANCH  18  19
ENDBRANCH  16  18
ENDBRANCH   1  16
TORSDOF 6
