REMARK  Name = ZINC63695752
REMARK  8 active torsions:
REMARK  status: ('A' for Active; 'I' for Inactive)
REMARK    1  A    between atoms: C_1  and  C_2
REMARK    2  A    between atoms: C_2  and  O_3
REMARK    3  A    between atoms: O_3  and  C_4
REMARK    4  A    between atoms: C_4  and  C_5
REMARK    5  A    between atoms: C_5  and  C_6
REMARK    6  A    between atoms: C_6  and  N_7
REMARK    7  A    between atoms: C_8  and  C_10
REMARK    8  A    between atoms: N_15  and  C_17
REMARK                            x       y       z     vdW  Elec       q    Type
REMARK                         _______ _______ _______ _____ _____    ______ ____
ROOT
ATOM      1  C   UNL     1      -6.198  -5.977   0.029  0.00  0.00    +0.089 C 
ATOM      2  C   UNL     1      -6.873  -5.430   1.290  0.00  0.00    +0.015 C 
ATOM      3  C   UNL     1      -8.330  -5.899   1.324  0.00  0.00    +0.016 C 
ATOM      4  C   UNL     1      -8.369  -7.428   1.282  0.00  0.00    +0.088 C 
ATOM      5  N   UNL     1      -7.712  -7.903   0.058  0.00  0.00    -0.265 NA
ATOM      6  C   UNL     1      -6.299  -7.504   0.024  0.00  0.00    +0.100 C 
ENDROOT
BRANCH   5   7
ATOM      7  C   UNL     1      -7.852  -9.358  -0.085  0.00  0.00    +0.252 C 
ATOM      8  N   UNL     1      -9.273  -9.726  -0.123  0.00  0.00    -0.351 N 
ATOM      9  C   UNL     1      -9.500 -10.514   0.888  0.00  0.00    +0.061 A 
ATOM     10  C   UNL     1     -10.708 -11.196   1.371  0.00  0.00    +0.028 A 
ATOM     11  C   UNL     1     -10.641 -11.967   2.475  0.00  0.00    +0.017 A 
ATOM     12  C   UNL     1      -9.448 -12.153   3.198  0.00  0.00    +0.020 A 
ATOM     13  C   UNL     1      -8.283 -11.573   2.840  0.00  0.00    +0.042 A 
ATOM     14  C   UNL     1      -8.238 -10.710   1.653  0.00  0.00    +0.062 A 
ATOM     15  N   UNL     1      -7.278 -10.037   1.084  0.00  0.00    -0.351 N 
ATOM     16 BR   UNL     1      -9.479 -13.259   4.731  0.00  0.00    -0.050 Br
ATOM     17  H   UNL     1      -9.923  -9.436  -0.781  0.00  0.00    +0.163 HD
ATOM     18  H   UNL     1      -6.355  -9.992   1.378  0.00  0.00    +0.163 HD
ENDBRANCH   5   7
BRANCH   1  20
ATOM     19  N   UNL     1      -4.415  -4.263   0.021  0.00  0.00    -0.315 N 
ATOM     20  C   UNL     1      -4.747  -5.569   0.018  0.00  0.00    +0.217 C 
ATOM     21  O   UNL     1      -3.879  -6.416   0.005  0.00  0.00    -0.275 OA
ATOM     22  H   UNL     1      -5.109  -3.586   0.032  0.00  0.00    +0.149 HD
BRANCH  19  23
ATOM     23  C   UNL     1      -3.005  -3.866   0.010  0.00  0.00    +0.106 C 
BRANCH  23  24
ATOM     24  C   UNL     1      -2.905  -2.339   0.017  0.00  0.00    +0.047 C 
BRANCH  24  25
ATOM     25  C   UNL     1      -1.432  -1.925   0.005  0.00  0.00    +0.161 C 
BRANCH  25  26
ATOM     26  O   UNL     1      -1.339  -0.499   0.012  0.00  0.00    -0.380 OA
BRANCH  26  28
ATOM     27  C   UNL     1      -0.019   1.526   0.010  0.00  0.00    +0.034 C 
ATOM     28  C   UNL     1       0.002  -0.004   0.002  0.00  0.00    +0.156 C 
ENDBRANCH  26  28
ENDBRANCH  25  26
ENDBRANCH  24  25
ENDBRANCH  23  24
ENDBRANCH  19  23
ENDBRANCH   1  20
TORSDOF 7
