REMARK  Name = ZINC58878359
REMARK  7 active torsions:
REMARK  status: ('A' for Active; 'I' for Inactive)
REMARK    1  A    between atoms: C_4  and  C_7
REMARK    2  A    between atoms: C_7  and  C_9
REMARK    3  A    between atoms: C_7  and  N_24
REMARK    4  A    between atoms: C_9  and  N_10
REMARK    5  A    between atoms: N_13  and  C_14
REMARK    6  A    between atoms: C_19  and  S_20
REMARK    7  A    between atoms: S_20  and  C_21
REMARK                            x       y       z     vdW  Elec       q    Type
REMARK                         _______ _______ _______ _____ _____    ______ ____
ROOT
ATOM      1  N   UNL     1       4.078   0.300  -2.251  0.00  0.00    -0.300 N 
ATOM      2  C   UNL     1       4.275   0.328  -3.584  0.00  0.00    +0.304 C 
ATOM      3  O   UNL     1       4.386  -0.712  -4.204  0.00  0.00    -0.253 OA
ATOM      4  N   UNL     1       4.348   1.508  -4.230  0.00  0.00    -0.268 N 
ATOM      5  H   UNL     1       3.990   1.130  -1.756  0.00  0.00    +0.150 HD
ATOM      6  H   UNL     1       4.189   2.335  -3.749  0.00  0.00    +0.156 HD
ENDROOT
BRANCH   4   7
ATOM      7  C   UNL     1       4.655   1.541  -5.598  0.00  0.00    +0.048 A 
ATOM      8  C   UNL     1       4.230   0.517  -6.430  0.00  0.00    +0.024 A 
ATOM      9  C   UNL     1       4.534   0.551  -7.779  0.00  0.00    +0.002 A 
ATOM     10  C   UNL     1       5.262   1.604  -8.302  0.00  0.00    +0.001 A 
ATOM     11  C   UNL     1       5.689   2.629  -7.479  0.00  0.00    +0.017 A 
ATOM     12  C   UNL     1       5.384   2.607  -6.126  0.00  0.00    +0.034 A 
BRANCH  12  13
ATOM     13  S   UNL     1       5.921   3.916  -5.076  0.00  0.00    -0.054 S 
BRANCH  13  14
ATOM     14  C   UNL     1       6.807   5.038  -6.193  0.00  0.00    +0.404 C 
ATOM     15  F   UNL     1       7.880   4.360  -6.781  0.00  0.00    -0.197 F 
ATOM     16  F   UNL     1       5.936   5.487  -7.191  0.00  0.00    -0.197 F 
ENDBRANCH  13  14
ENDBRANCH  12  13
ENDBRANCH   4   7
BRANCH   1  17
ATOM     17  C   UNL     1       3.998  -0.983  -1.548  0.00  0.00    +0.095 C 
BRANCH  17  18
ATOM     18  C   UNL     1       3.645  -0.739  -0.080  0.00  0.00    -0.020 C 
BRANCH  18  22
ATOM     19  C   UNL     1      -0.285   0.915   0.181  0.00  0.00    +0.000 A 
ATOM     20  C   UNL     1       0.820   1.740   0.276  0.00  0.00    +0.000 A 
ATOM     21  C   UNL     1       2.092   1.205   0.191  0.00  0.00    +0.002 A 
ATOM     22  C   UNL     1       2.259  -0.156   0.013  0.00  0.00    -0.059 A 
ATOM     23  C   UNL     1       1.154  -0.981  -0.081  0.00  0.00    +0.002 A 
ATOM     24  C   UNL     1      -0.118  -0.446   0.002  0.00  0.00    +0.000 A 
ENDBRANCH  18  22
BRANCH  18  25
ATOM     25  N   UNL     1       3.691  -2.012   0.652  0.00  0.00    +0.385 N 
ATOM     26  C   UNL     1       5.086  -2.517   0.715  0.00  0.00    -0.078 C 
ATOM     27  C   UNL     1       5.062  -3.478   1.930  0.00  0.00    -0.020 C 
ATOM     28  C   UNL     1       4.123  -2.755   2.923  0.00  0.00    -0.020 C 
ATOM     29  C   UNL     1       3.273  -1.808   2.056  0.00  0.00    -0.078 C 
ATOM     30  H   UNL     1       3.093  -2.692   0.207  0.00  0.00    -0.081 HD
ENDBRANCH  18  25
ENDBRANCH  17  18
ENDBRANCH   1  17
TORSDOF 7
