REMARK  Name = ZINC12121936
REMARK  10 active torsions:
REMARK  status: ('A' for Active; 'I' for Inactive)
REMARK    1  A    between atoms: C_1  and  C_2
REMARK    2  A    between atoms: C_2  and  C_3
REMARK    3  A    between atoms: N_5  and  C_6
REMARK    4  A    between atoms: N_5  and  C_15
REMARK    5  A    between atoms: C_6  and  C_7
REMARK    6  A    between atoms: C_7  and  C_8
REMARK    7  A    between atoms: C_15  and  C_16
REMARK    8  A    between atoms: C_22  and  C_33
REMARK    9  A    between atoms: C_24  and  N_25
REMARK   10  A    between atoms: C_29  and  O_32
REMARK                            x       y       z     vdW  Elec       q    Type
REMARK                         _______ _______ _______ _____ _____    ______ ____
ROOT
ATOM      1  C   UNL     1       3.638   5.655   0.526  0.00  0.00    +0.008 A 
ATOM      2  C   UNL     1       3.484   6.938   0.959  0.00  0.00    +0.018 A 
ATOM      3  C   UNL     1       2.176   7.417   1.176  0.00  0.00    -0.001 A 
ATOM      4  C   UNL     1       1.946   8.727   1.624  0.00  0.00    +0.010 A 
ATOM      5  C   UNL     1       0.668   9.156   1.822  0.00  0.00    +0.001 A 
ATOM      6  C   UNL     1      -0.414   8.312   1.586  0.00  0.00    +0.005 A 
ATOM      7  C   UNL     1      -0.226   7.036   1.151  0.00  0.00    -0.027 A 
ATOM      8  C   UNL     1       1.077   6.557   0.934  0.00  0.00    +0.051 A 
ATOM      9  C   UNL     1       2.509   4.854   0.300  0.00  0.00    +0.104 A 
ATOM     10  C   UNL     1      -1.412   6.140   0.901  0.00  0.00    +0.046 C 
ATOM     11  N   UNL     1       1.230   5.261   0.493  0.00  0.00    -0.342 N 
ATOM     12  H   UNL     1       0.428   4.644   0.320  0.00  0.00    +0.167 HD
ENDROOT
BRANCH   9  13
ATOM     13  N   UNL     1       2.681   3.551  -0.144  0.00  0.00    -0.314 N 
ATOM     14  C   UNL     1       2.013   3.344  -1.435  0.00  0.00    +0.106 C 
ATOM     15  C   UNL     1       2.344   1.946  -1.964  0.00  0.00    +0.021 C 
ATOM     16  C   UNL     1       1.876   0.898  -0.950  0.00  0.00    +0.034 C 
ATOM     17  C   UNL     1       2.550   1.167   0.398  0.00  0.00    +0.132 C 
ATOM     18  C   UNL     1       2.212   2.587   0.858  0.00  0.00    +0.137 C 
BRANCH  17  19
ATOM     19  O   UNL     1       2.075   0.227   1.365  0.00  0.00    -0.390 OA
ATOM     20  H   UNL     1       2.253  -0.696   1.137  0.00  0.00    +0.210 HD
ENDBRANCH  17  19
ENDBRANCH   9  13
BRANCH   1  21
ATOM     21  C   UNL     1       5.018   5.099   0.287  0.00  0.00    +0.146 C 
BRANCH  21  24
ATOM     22  C   UNL     1       6.473   6.449   1.701  0.00  0.00    +0.216 C 
ATOM     23  O   UNL     1       6.067   5.828   2.660  0.00  0.00    -0.276 OA
ATOM     24  N   UNL     1       6.010   6.162   0.468  0.00  0.00    -0.297 N 
BRANCH  22  26
ATOM     25  C   UNL     1       7.846   7.663   3.371  0.00  0.00    +0.013 C 
ATOM     26  C   UNL     1       7.493   7.542   1.887  0.00  0.00    +0.092 C 
ENDBRANCH  22  26
BRANCH  24  27
ATOM     27  C   UNL     1       6.500   6.912  -0.692  0.00  0.00    +0.113 C 
BRANCH  27  28
ATOM     28  C   UNL     1       5.619   8.144  -0.910  0.00  0.00    +0.054 C 
BRANCH  28  29
ATOM     29  C   UNL     1       6.096   8.892  -2.129  0.00  0.00    -0.046 A 
ATOM     30  C   UNL     1       7.115   9.818  -2.017  0.00  0.00    +0.006 A 
ATOM     31  C   UNL     1       7.556  10.501  -3.135  0.00  0.00    +0.038 A 
ATOM     32  C   UNL     1       6.968  10.264  -4.366  0.00  0.00    +0.123 A 
ATOM     33  C   UNL     1       5.944   9.339  -4.477  0.00  0.00    +0.038 A 
ATOM     34  C   UNL     1       5.508   8.654  -3.358  0.00  0.00    +0.006 A 
ATOM     35  F   UNL     1       7.395  10.934  -5.459  0.00  0.00    -0.205 F 
ENDBRANCH  28  29
ENDBRANCH  27  28
ENDBRANCH  24  27
ENDBRANCH  21  24
ENDBRANCH   1  21
TORSDOF 8
