REMARK  Name = ZINC36506162
REMARK  17 active torsions:
REMARK  status: ('A' for Active; 'I' for Inactive)
REMARK    1  A    between atoms: C_1  and  C_2
REMARK    2  A    between atoms: C_2  and  C_3
REMARK    3  A    between atoms: C_2  and  C_4
REMARK    4  A    between atoms: C_2  and  C_5
REMARK    5  A    between atoms: C_5  and  C_6
REMARK    6  A    between atoms: C_6  and  C_7
REMARK    7  A    between atoms: C_6  and  C_8
REMARK    8  A    between atoms: C_6  and  N_9
REMARK    9  A    between atoms: C_10  and  C_12
REMARK   10  A    between atoms: C_12  and  C_14
REMARK   11  A    between atoms: C_12  and  N_23
REMARK   12  A    between atoms: C_17  and  O_22
REMARK   13  A    between atoms: C_18  and  O_20
REMARK   14  A    between atoms: O_20  and  C_21
REMARK   15  A    between atoms: N_23  and  C_24
REMARK   16  A    between atoms: C_24  and  C_25
REMARK   17  A    between atoms: C_30  and  C_32
REMARK                            x       y       z     vdW  Elec       q    Type
REMARK                         _______ _______ _______ _____ _____    ______ ____
ROOT
ATOM      1  C   UNL     1       5.462   0.085  -4.279  0.00  0.00    +0.193 C 
ENDROOT
BRANCH   1   2
ATOM      2  C   UNL     1       5.418  -1.332  -4.791  0.00  0.00    -0.015 A 
ATOM      3  C   UNL     1       6.216  -2.300  -4.212  0.00  0.00    +0.010 A 
ATOM      4  C   UNL     1       6.178  -3.601  -4.678  0.00  0.00    +0.049 A 
ATOM      5  C   UNL     1       5.339  -3.937  -5.729  0.00  0.00    +0.158 A 
ATOM      6  C   UNL     1       4.535  -2.962  -6.312  0.00  0.00    +0.162 A 
ATOM      7  C   UNL     1       4.574  -1.661  -5.836  0.00  0.00    +0.055 A 
BRANCH   6   8
ATOM      8  O   UNL     1       3.710  -3.286  -7.343  0.00  0.00    -0.491 OA
ATOM      9  C   UNL     1       2.789  -2.284  -7.777  0.00  0.00    +0.277 C 
ENDBRANCH   6   8
BRANCH   5  10
ATOM     10  O   UNL     1       5.301  -5.216  -6.189  0.00  0.00    -0.503 OA
ATOM     11  H   UNL     1       4.646  -5.774  -5.747  0.00  0.00    +0.292 HD
ENDBRANCH   5  10
ENDBRANCH   1   2
BRANCH   1  13
ATOM     12  N   UNL     1       3.094  -0.008  -3.571  0.00  0.00    -0.308 N 
ATOM     13  C   UNL     1       4.372   0.284  -3.258  0.00  0.00    +0.239 C 
ATOM     14  O   UNL     1       4.644   0.709  -2.155  0.00  0.00    -0.273 OA
ATOM     15  H   UNL     1       2.885  -0.415  -4.426  0.00  0.00    +0.149 HD
BRANCH  12  16
ATOM     16  C   UNL     1       2.021   0.288  -2.619  0.00  0.00    +0.030 C 
ATOM     17  C   UNL     1       2.189   1.713  -2.087  0.00  0.00    +0.031 C 
ATOM     18  C   UNL     1       2.084  -0.702  -1.454  0.00  0.00    +0.031 C 
BRANCH  16  19
ATOM     19  C   UNL     1       0.667   0.163  -3.322  0.00  0.00    +0.031 C 
BRANCH  19  21
ATOM     20  C   UNL     1       1.438  -0.015  -5.692  0.00  0.00    +0.010 C 
ATOM     21  C   UNL     1       0.726   0.877  -4.673  0.00  0.00    -0.036 C 
ATOM     22  C   UNL     1       1.495   2.192  -4.522  0.00  0.00    +0.010 C 
ATOM     23  C   UNL     1      -0.695   1.171  -5.158  0.00  0.00    +0.010 C 
ENDBRANCH  19  21
ENDBRANCH  16  19
ENDBRANCH  12  16
ENDBRANCH   1  13
BRANCH   1  24
ATOM     24  N   UNL     1       6.765   0.339  -3.658  0.00  0.00    -0.275 N 
ATOM     25  C   UNL     1       7.865   0.463  -4.427  0.00  0.00    +0.249 C 
ATOM     26  O   UNL     1       8.910   0.842  -3.936  0.00  0.00    -0.270 OA
BRANCH  25  27
ATOM     27  C   UNL     1       7.800   0.138  -5.867  0.00  0.00    +0.055 A 
ATOM     28  C   UNL     1       6.577  -0.182  -6.460  0.00  0.00    +0.014 A 
ATOM     29  C   UNL     1       6.524  -0.484  -7.804  0.00  0.00    +0.001 A 
ATOM     30  C   UNL     1       7.679  -0.471  -8.567  0.00  0.00    +0.001 A 
ATOM     31  C   UNL     1       8.895  -0.155  -7.988  0.00  0.00    +0.021 A 
ATOM     32  C   UNL     1       8.962   0.155  -6.643  0.00  0.00    +0.053 A 
ATOM     33 CL   UNL     1      10.487   0.559  -5.918  0.00  0.00    -0.083 Cl
ENDBRANCH  25  27
BRANCH  24  34
ATOM     34  C   UNL     1       6.872   0.458  -2.202  0.00  0.00    +0.183 C 
BRANCH  34  35
ATOM     35  C   UNL     1       6.933   1.914  -1.820  0.00  0.00    +0.122 A 
ATOM     36  C   UNL     1       5.875   2.722  -1.629  0.00  0.00    +0.046 A 
ATOM     37  C   UNL     1       6.387   3.994  -1.286  0.00  0.00    +0.041 A 
ATOM     38  C   UNL     1       7.728   3.888  -1.289  0.00  0.00    +0.195 A 
ATOM     39  O   UNL     1       8.053   2.624  -1.607  0.00  0.00    -0.466 OA
ENDBRANCH  34  35
ENDBRANCH  24  34
ENDBRANCH   1  24
TORSDOF 11
