REMARK  Name = ZINC40317939
REMARK  11 active torsions:
REMARK  status: ('A' for Active; 'I' for Inactive)
REMARK    1  A    between atoms: C_1  and  C_2
REMARK    2  A    between atoms: C_5  and  C_8
REMARK    3  A    between atoms: C_8  and  N_9
REMARK    4  A    between atoms: N_9  and  C_10
REMARK    5  A    between atoms: N_9  and  C_16
REMARK    6  A    between atoms: C_10  and  C_11
REMARK    7  A    between atoms: C_16  and  C_17
REMARK    8  A    between atoms: C_17  and  C_19
REMARK    9  A    between atoms: C_17  and  O_29
REMARK   10  A    between atoms: C_19  and  O_20
REMARK   11  A    between atoms: O_20  and  C_21
REMARK                            x       y       z     vdW  Elec       q    Type
REMARK                         _______ _______ _______ _____ _____    ______ ____
ROOT
ATOM      1  N   UNL     1       1.492  -4.736   0.483  0.00  0.00    +0.389 N 
ATOM      2  H   UNL     1       2.024  -4.597   1.329  0.00  0.00    -0.081 HD
ENDROOT
BRANCH   1   3
ATOM      3  C   UNL     1       0.169  -4.114   0.629  0.00  0.00    -0.042 C 
BRANCH   3   8
ATOM      4  C   UNL     1      -2.404  -6.144   5.388  0.00  0.00    +0.044 C 
ATOM      5  C   UNL     1      -1.733  -5.614   4.147  0.00  0.00    -0.050 A 
ATOM      6  C   UNL     1      -0.843  -4.561   4.239  0.00  0.00    +0.003 A 
ATOM      7  C   UNL     1      -0.227  -4.075   3.100  0.00  0.00    +0.002 A 
ATOM      8  C   UNL     1      -0.501  -4.644   1.870  0.00  0.00    -0.064 A 
ATOM      9  C   UNL     1      -1.391  -5.698   1.779  0.00  0.00    +0.002 A 
ATOM     10  C   UNL     1      -2.003  -6.186   2.918  0.00  0.00    +0.003 A 
ENDBRANCH   3   8
ENDBRANCH   1   3
BRANCH   1  11
ATOM     11  C   UNL     1       2.200  -4.121  -0.647  0.00  0.00    -0.003 C 
BRANCH  11  12
ATOM     12  C   UNL     1       2.402  -2.653  -0.375  0.00  0.00    +0.089 A 
ATOM     13  C   UNL     1       3.501  -2.098   0.168  0.00  0.00    +0.042 A 
ATOM     14  C   UNL     1       3.262  -0.706   0.241  0.00  0.00    +0.041 A 
ATOM     15  C   UNL     1       2.033  -0.494  -0.261  0.00  0.00    +0.195 A 
ATOM     16  O   UNL     1       1.519  -1.676  -0.638  0.00  0.00    -0.470 OA
ENDBRANCH  11  12
ENDBRANCH   1  11
BRANCH   1  17
ATOM     17  C   UNL     1       1.331  -6.175   0.236  0.00  0.00    -0.043 C 
BRANCH  17  18
ATOM     18  C   UNL     1       2.702  -6.855   0.271  0.00  0.00    +0.135 C 
BRANCH  18  19
ATOM     19  O   UNL     1       3.471  -6.433  -0.858  0.00  0.00    -0.390 OA
ATOM     20  H   UNL     1       3.068  -6.647  -1.710  0.00  0.00    +0.210 HD
ENDBRANCH  18  19
BRANCH  18  21
ATOM     21  C   UNL     1       2.520  -8.373   0.226  0.00  0.00    +0.258 C 
BRANCH  21  22
ATOM     22  O   UNL     1       3.790  -9.010   0.375  0.00  0.00    -0.488 OA
BRANCH  22  23
ATOM     23  C   UNL     1       3.805 -10.369   0.357  0.00  0.00    +0.139 A 
ATOM     24  C   UNL     1       2.623 -11.075   0.193  0.00  0.00    +0.048 A 
ATOM     25  C   UNL     1       2.640 -12.456   0.175  0.00  0.00    +0.023 A 
ATOM     26  C   UNL     1       3.836 -13.136   0.321  0.00  0.00    +0.043 A 
ATOM     27  C   UNL     1       5.017 -12.435   0.484  0.00  0.00    +0.043 A 
ATOM     28  C   UNL     1       5.005 -11.053   0.497  0.00  0.00    +0.084 A 
ATOM     29 CL   UNL     1       6.489 -10.173   0.695  0.00  0.00    -0.080 Cl
ATOM     30 CL   UNL     1       3.854 -14.872   0.298  0.00  0.00    -0.083 Cl
ENDBRANCH  22  23
ENDBRANCH  21  22
ENDBRANCH  18  21
ENDBRANCH  17  18
ENDBRANCH   1  17
TORSDOF 10
