REMARK  Name = ZINC12296175
REMARK  9 active torsions:
REMARK  status: ('A' for Active; 'I' for Inactive)
REMARK    1  A    between atoms: C_1  and  C_2
REMARK    2  A    between atoms: C_5  and  O_27
REMARK    3  A    between atoms: C_6  and  C_13
REMARK    4  A    between atoms: C_10  and  S_11
REMARK    5  A    between atoms: S_11  and  C_12
REMARK    6  A    between atoms: C_17  and  O_25
REMARK    7  A    between atoms: C_18  and  O_23
REMARK    8  A    between atoms: O_23  and  C_24
REMARK    9  A    between atoms: O_25  and  C_26
REMARK                            x       y       z     vdW  Elec       q    Type
REMARK                         _______ _______ _______ _____ _____    ______ ____
ROOT
ATOM      1  C   UNL     1      -0.458   7.592   0.676  0.00  0.00    +0.001 C 
ATOM      2  C   UNL     1      -1.456   8.012  -0.371  0.00  0.00    -0.050 A 
ATOM      3  C   UNL     1      -2.733   7.472  -0.319  0.00  0.00    +0.052 A 
ATOM      4  C   UNL     1      -3.684   7.830  -1.256  0.00  0.00    +0.162 A 
ATOM      5  C   UNL     1      -3.357   8.739  -2.259  0.00  0.00    +0.162 A 
ATOM      6  C   UNL     1      -2.082   9.274  -2.308  0.00  0.00    +0.053 A 
ATOM      7  C   UNL     1      -1.131   8.910  -1.366  0.00  0.00    -0.044 A 
ATOM      8  C   UNL     1       0.245   9.518  -1.465  0.00  0.00    +0.016 C 
ATOM      9  C   UNL     1       0.995   9.330  -0.145  0.00  0.00    -0.077 C 
ATOM     10  N   UNL     1       0.910   7.911   0.245  0.00  0.00    +0.387 N 
ATOM     11  H   UNL     1       1.160   7.321  -0.558  0.00  0.00    -0.085 HD
ATOM     12  H   UNL     1       1.562   7.731   1.018  0.00  0.00    -0.085 HD
ENDROOT
BRANCH   1  18
ATOM     13  C   UNL     1      -1.091   3.388   4.491  0.00  0.00    +0.113 C 
ATOM     14  C   UNL     1      -1.897   3.760   3.274  0.00  0.00    +0.233 C 
ATOM     15  O   UNL     1      -3.096   3.610   3.274  0.00  0.00    -0.272 OA
ATOM     16  N   UNL     1      -1.281   4.259   2.184  0.00  0.00    -0.229 N 
ATOM     17  C   UNL     1      -1.191   5.621   2.010  0.00  0.00    +0.209 A 
ATOM     18  C   UNL     1      -0.570   6.106   0.902  0.00  0.00    +0.069 A 
ATOM     19  C   UNL     1      -0.032   5.196  -0.035  0.00  0.00    +0.279 A 
ATOM     20  O   UNL     1       0.530   5.609  -1.038  0.00  0.00    -0.265 OA
ATOM     21  N   UNL     1      -0.140   3.875   0.179  0.00  0.00    -0.184 NA
ATOM     22  C   UNL     1      -0.742   3.411   1.254  0.00  0.00    +0.182 A 
BRANCH  22  23
ATOM     23  S   UNL     1      -0.862   1.670   1.496  0.00  0.00    -0.090 S 
ATOM     24  C   UNL     1      -0.016   1.086   0.006  0.00  0.00    +0.093 C 
ENDBRANCH  22  23
BRANCH  17  25
ATOM     25  O   UNL     1      -1.716   6.465   2.926  0.00  0.00    -0.493 OA
ATOM     26  H   UNL     1      -2.638   6.703   2.758  0.00  0.00    +0.294 HD
ENDBRANCH  17  25
ENDBRANCH   1  18
BRANCH   5  27
ATOM     27  O   UNL     1      -4.285   9.099  -3.185  0.00  0.00    -0.491 OA
ATOM     28  C   UNL     1      -3.877  10.037  -4.183  0.00  0.00    +0.277 C 
ENDBRANCH   5  27
BRANCH   4  29
ATOM     29  O   UNL     1      -4.933   7.296  -1.200  0.00  0.00    -0.491 OA
ATOM     30  C   UNL     1      -5.196   6.370  -0.144  0.00  0.00    +0.277 C 
ENDBRANCH   4  29
TORSDOF 5
