REMARK  Name = ZINC67292330
REMARK  5 active torsions:
REMARK  status: ('A' for Active; 'I' for Inactive)
REMARK    1  A    between atoms: C_3  and  N_10
REMARK    2  A    between atoms: C_6  and  C_7
REMARK    3  A    between atoms: C_12  and  C_22
REMARK    4  A    between atoms: N_24  and  C_25
REMARK    5  A    between atoms: C_25  and  C_26
REMARK                            x       y       z     vdW  Elec       q    Type
REMARK                         _______ _______ _______ _____ _____    ______ ____
ROOT
ATOM      1  N   UNL     1       3.545   2.115  -0.018  0.00  0.00    -0.325 N 
ATOM      2  C   UNL     1       4.532   1.752   0.777  0.00  0.00    +0.212 A 
ATOM      3  C   UNL     1       5.845   2.421   0.712  0.00  0.00    +0.097 A 
ATOM      4  C   UNL     1       6.613   2.421   1.870  0.00  0.00    +0.030 A 
ATOM      5  C   UNL     1       6.051   1.759   3.049  0.00  0.00    +0.019 A 
ATOM      6  C   UNL     1       6.626   1.938   4.314  0.00  0.00    +0.026 A 
ATOM      7  C   UNL     1       6.074   1.308   5.407  0.00  0.00    +0.019 A 
ATOM      8  C   UNL     1       4.955   0.499   5.261  0.00  0.00    +0.019 A 
ATOM      9  C   UNL     1       4.380   0.311   4.020  0.00  0.00    +0.048 A 
ATOM     10  C   UNL     1       4.920   0.934   2.905  0.00  0.00    +0.137 A 
ATOM     11  O   UNL     1       4.368   0.756   1.683  0.00  0.00    -0.439 OA
ATOM     12 BR   UNL     1       6.844   1.547   7.117  0.00  0.00    -0.050 Br
ATOM     13  H   UNL     1       3.649   2.885  -0.599  0.00  0.00    +0.169 HD
ENDROOT
BRANCH   1  16
ATOM     14  C   UNL     1      -0.013   1.374  -0.012  0.00  0.00    +0.015 A 
ATOM     15  C   UNL     1       1.153   2.082  -0.006  0.00  0.00    +0.026 A 
ATOM     16  C   UNL     1       2.381   1.409  -0.025  0.00  0.00    +0.042 A 
ATOM     17  C   UNL     1       2.411   0.009  -0.050  0.00  0.00    +0.026 A 
ATOM     18  C   UNL     1       1.244  -0.699  -0.057  0.00  0.00    +0.015 A 
ATOM     19  C   UNL     1       0.017  -0.025  -0.038  0.00  0.00    +0.037 A 
BRANCH  19  20
ATOM     20  C   UNL     1      -1.243  -0.789  -0.045  0.00  0.00    +0.242 C 
ATOM     21  O   UNL     1      -2.309  -0.204  -0.028  0.00  0.00    -0.270 OA
ATOM     22  N   UNL     1      -1.214  -2.137  -0.070  0.00  0.00    -0.325 N 
ATOM     23  H   UNL     1      -0.363  -2.603  -0.083  0.00  0.00    +0.145 HD
ATOM     24  H   UNL     1      -2.043  -2.640  -0.074  0.00  0.00    +0.145 HD
ENDBRANCH  19  20
ENDBRANCH   1  16
BRANCH   3  25
ATOM     25  C   UNL     1       6.322   3.061  -0.526  0.00  0.00    +0.249 C 
ATOM     26  O   UNL     1       5.593   3.122  -1.498  0.00  0.00    -0.270 OA
ATOM     27  N   UNL     1       7.565   3.578  -0.582  0.00  0.00    -0.309 N 
ATOM     28  H   UNL     1       8.171   3.465   0.166  0.00  0.00    +0.149 HD
BRANCH  27  29
ATOM     29  C   UNL     1       8.000   4.312  -1.773  0.00  0.00    +0.136 C 
BRANCH  29  30
ATOM     30  C   UNL     1       9.440   4.790  -1.579  0.00  0.00    +0.135 C 
ATOM     31  C   UNL     1       9.867   5.667  -2.776  0.00  0.00    +0.035 C 
ATOM     32  C   UNL     1      11.338   5.225  -3.001  0.00  0.00    +0.031 C 
ATOM     33  C   UNL     1      11.256   3.725  -2.623  0.00  0.00    +0.160 C 
ATOM     34  O   UNL     1      10.323   3.663  -1.530  0.00  0.00    -0.375 OA
ENDBRANCH  29  30
ENDBRANCH  27  29
ENDBRANCH   3  25
TORSDOF 5
