REMARK  Name = ZINC40987692
REMARK  7 active torsions:
REMARK  status: ('A' for Active; 'I' for Inactive)
REMARK    1  A    between atoms: C_1  and  C_2
REMARK    2  A    between atoms: C_2  and  C_3
REMARK    3  A    between atoms: C_6  and  C_9
REMARK    4  A    between atoms: C_9  and  N_10
REMARK    5  A    between atoms: N_10  and  C_11
REMARK    6  A    between atoms: C_19  and  C_21
REMARK    7  A    between atoms: N_24  and  C_26
REMARK                            x       y       z     vdW  Elec       q    Type
REMARK                         _______ _______ _______ _____ _____    ______ ____
ROOT
ATOM      1  N   UNL     1       3.158  -0.707  -5.652  0.00  0.00    -0.287 N 
ATOM      2  C   UNL     1       2.258  -0.173  -6.502  0.00  0.00    +0.268 C 
ATOM      3  O   UNL     1       1.126  -0.615  -6.546  0.00  0.00    -0.268 OA
ENDROOT
BRANCH   2   4
ATOM      4  C   UNL     1       2.646   0.951  -7.379  0.00  0.00    +0.151 A 
ATOM      5  C   UNL     1       2.328   2.307  -7.196  0.00  0.00    +0.006 A 
ATOM      6  C   UNL     1       2.890   2.965  -8.240  0.00  0.00    +0.044 A 
ATOM      7  N   UNL     1       3.511   2.048  -9.000  0.00  0.00    -0.263 N 
ATOM      8  N   UNL     1       3.366   0.876  -8.485  0.00  0.00    -0.166 NA
ATOM      9  C   UNL     1       2.791   4.455  -8.445  0.00  0.00    +0.055 C 
ATOM     10  C   UNL     1       1.653   4.989  -7.565  0.00  0.00    +0.006 C 
ATOM     11  C   UNL     1       1.823   4.470  -6.135  0.00  0.00    +0.005 C 
ATOM     12  C   UNL     1       1.537   2.963  -6.098  0.00  0.00    +0.039 C 
BRANCH   7  13
ATOM     13  C   UNL     1       4.250   2.339 -10.231  0.00  0.00    +0.130 C 
ATOM     14  C   UNL     1       3.713   1.465 -11.377  0.00  0.00    +0.051 C 
ATOM     15  C   UNL     1       4.681   1.526 -12.584  0.00  0.00    +0.168 C 
ATOM     16  S   UNL     1       6.303   1.857 -11.785  0.00  0.00    -0.029 S 
ATOM     17  O   UNL     1       7.127   0.707 -11.917  0.00  0.00    -0.174 OA
ATOM     18  O   UNL     1       6.787   3.118 -12.227  0.00  0.00    -0.174 OA
ATOM     19  C   UNL     1       5.756   2.005 -10.032  0.00  0.00    +0.192 C 
ENDBRANCH   7  13
ENDBRANCH   2   4
BRANCH   1  20
ATOM     20  C   UNL     1       4.488  -0.108  -5.523  0.00  0.00    +0.099 C 
ATOM     21  C   UNL     1       5.268  -0.308  -6.833  0.00  0.00    +0.047 C 
ATOM     22  C   UNL     1       6.534   0.594  -6.786  0.00  0.00    +0.168 C 
ATOM     23  S   UNL     1       5.832   2.120  -6.029  0.00  0.00    -0.029 S 
ATOM     24  O   UNL     1       6.722   2.590  -5.027  0.00  0.00    -0.174 OA
ATOM     25  O   UNL     1       5.417   3.001  -7.064  0.00  0.00    -0.174 OA
ATOM     26  C   UNL     1       4.345   1.403  -5.222  0.00  0.00    +0.188 C 
ENDBRANCH   1  20
BRANCH   1  27
ATOM     27  C   UNL     1       2.805  -1.887  -4.859  0.00  0.00    +0.143 C 
BRANCH  27  31
ATOM     28  C   UNL     1       1.101  -0.649  -1.142  0.00  0.00    -0.048 A 
ATOM     29  C   UNL     1       0.288  -0.857  -2.241  0.00  0.00    +0.004 A 
ATOM     30  C   UNL     1       0.839  -1.257  -3.443  0.00  0.00    +0.005 A 
ATOM     31  C   UNL     1       2.204  -1.450  -3.548  0.00  0.00    -0.030 A 
ATOM     32  C   UNL     1       3.018  -1.241  -2.450  0.00  0.00    +0.005 A 
ATOM     33  C   UNL     1       2.467  -0.836  -1.248  0.00  0.00    +0.004 A 
BRANCH  28  35
ATOM     34  C   UNL     1       0.456   1.316   0.226  0.00  0.00    +0.009 C 
ATOM     35  C   UNL     1       0.500  -0.212   0.169  0.00  0.00    +0.032 C 
ENDBRANCH  28  35
ENDBRANCH  27  31
ENDBRANCH   1  27
TORSDOF 6
