REMARK  Name = ZINC16017601
REMARK  6 active torsions:
REMARK  status: ('A' for Active; 'I' for Inactive)
REMARK    1  A    between atoms: C_1  and  C_2
REMARK    2  A    between atoms: C_2  and  C_4
REMARK    3  A    between atoms: C_2  and  N_11
REMARK    4  A    between atoms: C_12  and  C_14
REMARK    5  A    between atoms: N_23  and  C_25
REMARK    6  A    between atoms: C_25  and  C_26
REMARK                            x       y       z     vdW  Elec       q    Type
REMARK                         _______ _______ _______ _____ _____    ______ ____
ROOT
ATOM      1  C   UNL     1      -2.297  -0.448   3.724  0.00  0.00    +0.154 A 
ATOM      2  C   UNL     1      -2.971   0.436   4.689  0.00  0.00    +0.020 A 
ATOM      3  C   UNL     1      -3.322   0.025   5.970  0.00  0.00    +0.011 A 
ATOM      4  C   UNL     1      -3.952   0.912   6.817  0.00  0.00    +0.001 A 
ATOM      5  C   UNL     1      -4.240   2.207   6.404  0.00  0.00    +0.001 A 
ATOM      6  C   UNL     1      -3.901   2.634   5.138  0.00  0.00    +0.014 A 
ATOM      7  C   UNL     1      -3.264   1.754   4.268  0.00  0.00    +0.050 A 
ATOM      8  C   UNL     1      -2.870   2.126   2.903  0.00  0.00    +0.275 A 
ATOM      9  O   UNL     1      -3.090   3.244   2.473  0.00  0.00    -0.266 OA
ATOM     10  N   UNL     1      -2.257   1.201   2.136  0.00  0.00    -0.224 N 
ATOM     11  N   UNL     1      -2.004   0.011   2.532  0.00  0.00    -0.163 NA
ENDROOT
BRANCH   1  13
ATOM     12  N   UNL     1      -1.343  -2.640   3.204  0.00  0.00    -0.303 N 
ATOM     13  C   UNL     1      -1.960  -1.837   4.093  0.00  0.00    +0.265 C 
ATOM     14  O   UNL     1      -2.240  -2.257   5.200  0.00  0.00    -0.268 OA
ATOM     15  H   UNL     1      -1.119  -2.305   2.322  0.00  0.00    +0.150 HD
BRANCH  12  17
ATOM     16  C   UNL     1      -2.200  -4.929   3.269  0.00  0.00    +0.033 C 
ATOM     17  C   UNL     1      -1.008  -4.018   3.571  0.00  0.00    +0.102 C 
BRANCH  17  18
ATOM     18  C   UNL     1       0.187  -4.474   2.773  0.00  0.00    -0.009 A 
ATOM     19  C   UNL     1       0.444  -3.919   1.534  0.00  0.00    +0.007 A 
ATOM     20  C   UNL     1       1.540  -4.337   0.803  0.00  0.00    +0.000 A 
ATOM     21  C   UNL     1       2.380  -5.311   1.310  0.00  0.00    +0.001 A 
ATOM     22  C   UNL     1       2.124  -5.867   2.550  0.00  0.00    +0.020 A 
ATOM     23  C   UNL     1       1.030  -5.445   3.284  0.00  0.00    +0.046 A 
ATOM     24 CL   UNL     1       0.712  -6.137   4.844  0.00  0.00    -0.083 Cl
ENDBRANCH  17  18
ENDBRANCH  12  17
ENDBRANCH   1  13
BRANCH  10  25
ATOM     25  C   UNL     1      -1.865   1.577   0.775  0.00  0.00    +0.182 C 
BRANCH  25  26
ATOM     26  C   UNL     1      -0.468   2.141   0.793  0.00  0.00    -0.026 A 
ATOM     27  C   UNL     1       0.618   1.303   0.626  0.00  0.00    +0.005 A 
ATOM     28  C   UNL     1       1.900   1.821   0.636  0.00  0.00    +0.000 A 
ATOM     29  C   UNL     1       2.095   3.178   0.818  0.00  0.00    +0.000 A 
ATOM     30  C   UNL     1       1.009   4.015   0.991  0.00  0.00    +0.000 A 
ATOM     31  C   UNL     1      -0.272   3.497   0.981  0.00  0.00    +0.005 A 
ENDBRANCH  25  26
ENDBRANCH  10  25
TORSDOF 5
