REMARK  Name = ZINC02301352
REMARK  11 active torsions:
REMARK  status: ('A' for Active; 'I' for Inactive)
REMARK    1  A    between atoms: C_1  and  C_2
REMARK    2  A    between atoms: C_8  and  N_16
REMARK    3  A    between atoms: C_9  and  C_12
REMARK    4  A    between atoms: C_12  and  O_14
REMARK    5  A    between atoms: O_14  and  C_15
REMARK    6  A    between atoms: C_17  and  C_19
REMARK    7  A    between atoms: C_19  and  C_21
REMARK    8  A    between atoms: C_19  and  N_63
REMARK    9  A    between atoms: N_24  and  C_27
REMARK   10  A    between atoms: C_32  and  O_33
REMARK   11  A    between atoms: O_33  and  C_34
REMARK                            x       y       z     vdW  Elec       q    Type
REMARK                         _______ _______ _______ _____ _____    ______ ____
ROOT
ATOM      1  N   UNL     1      -2.566  -2.746  -0.818  0.00  0.00    -0.284 N 
ATOM      2  C   UNL     1      -1.833  -1.958  -0.007  0.00  0.00    +0.203 C 
ATOM      3  O   UNL     1      -1.152  -2.453   0.866  0.00  0.00    -0.277 OA
ATOM      4  H   UNL     1      -3.184  -2.349  -1.452  0.00  0.00    +0.155 HD
ENDROOT
BRANCH   1  12
ATOM      5  C   UNL     1       2.414  -5.175  -1.978  0.00  0.00    +0.044 C 
ATOM      6  C   UNL     1       1.011  -5.546  -1.571  0.00  0.00    -0.050 A 
ATOM      7  C   UNL     1       0.679  -6.881  -1.380  0.00  0.00    +0.005 A 
ATOM      8  C   UNL     1      -0.596  -7.242  -1.008  0.00  0.00    +0.026 A 
ATOM      9  C   UNL     1      -1.567  -6.261  -0.820  0.00  0.00    +0.049 A 
ATOM     10  C   UNL     1      -1.227  -4.910  -1.020  0.00  0.00    +0.022 A 
ATOM     11  C   UNL     1       0.076  -4.567  -1.393  0.00  0.00    +0.015 A 
ATOM     12  C   UNL     1      -2.436  -4.129  -0.747  0.00  0.00    +0.073 A 
ATOM     13  C   UNL     1      -3.422  -5.034  -0.412  0.00  0.00    +0.147 A 
ATOM     14  N   UNL     1      -2.893  -6.315  -0.458  0.00  0.00    -0.348 N 
ATOM     15  H   UNL     1      -3.384  -7.128  -0.263  0.00  0.00    +0.166 HD
BRANCH  13  16
ATOM     16  C   UNL     1      -4.761  -4.706  -0.075  0.00  0.00    +0.357 C 
ATOM     17  O   UNL     1      -5.082  -3.543   0.080  0.00  0.00    -0.243 OA
BRANCH  16  18
ATOM     18  O   UNL     1      -5.677  -5.685   0.074  0.00  0.00    -0.463 OA
ATOM     19  C   UNL     1      -7.006  -5.284   0.414  0.00  0.00    +0.280 C 
ENDBRANCH  16  18
ENDBRANCH  13  16
ENDBRANCH   1  12
BRANCH   2  20
ATOM     20  C   UNL     1      -1.861  -0.462  -0.183  0.00  0.00    +0.017 C 
ATOM     21  C   UNL     1      -3.292   0.048   0.000  0.00  0.00    -0.004 C 
BRANCH  20  27
ATOM     22  C   UNL     1      -0.894   1.616   0.599  0.00  0.00    -0.059 C 
ATOM     23  C   UNL     1       0.086   2.219   1.608  0.00  0.00    +0.086 C 
ATOM     24  N   UNL     1      -0.373   1.921   2.972  0.00  0.00    -0.331 N 
ATOM     25  C   UNL     1      -0.465   0.471   3.188  0.00  0.00    +0.086 C 
ATOM     26  C   UNL     1      -1.445  -0.132   2.179  0.00  0.00    -0.059 C 
ATOM     27  N   UNL     1      -0.960   0.155   0.814  0.00  0.00    +0.389 N 
ATOM     28  H   UNL     1      -0.019  -0.241   0.703  0.00  0.00    -0.081 HD
BRANCH  24  29
ATOM     29  C   UNL     1       0.460   2.519   3.924  0.00  0.00    +0.072 A 
ATOM     30  C   UNL     1       1.788   2.131   4.027  0.00  0.00    +0.027 A 
ATOM     31  C   UNL     1       2.611   2.726   4.965  0.00  0.00    +0.002 A 
ATOM     32  C   UNL     1       2.111   3.701   5.809  0.00  0.00    +0.004 A 
ATOM     33  C   UNL     1       0.787   4.089   5.715  0.00  0.00    +0.047 A 
ATOM     34  C   UNL     1      -0.043   3.501   4.774  0.00  0.00    +0.141 A 
BRANCH  34  35
ATOM     35  O   UNL     1      -1.345   3.882   4.682  0.00  0.00    -0.493 OA
ATOM     36  C   UNL     1      -1.791   4.894   5.586  0.00  0.00    +0.277 C 
ENDBRANCH  34  35
ENDBRANCH  24  29
ENDBRANCH  20  27
ENDBRANCH   2  20
TORSDOF 7
