REMARK  Name = ZINC05660169
REMARK  7 active torsions:
REMARK  status: ('A' for Active; 'I' for Inactive)
REMARK    1  A    between atoms: C_1  and  C_2
REMARK    2  A    between atoms: C_2  and  C_3
REMARK    3  A    between atoms: C_2  and  C_4
REMARK    4  A    between atoms: C_4  and  C_5
REMARK    5  A    between atoms: C_5  and  C_7
REMARK    6  A    between atoms: C_5  and  N_21
REMARK    7  A    between atoms: C_16  and  N_20
REMARK                            x       y       z     vdW  Elec       q    Type
REMARK                         _______ _______ _______ _____ _____    ______ ____
ROOT
ATOM      1  C   UNL     1      -2.436   1.764   0.084  0.00  0.00    +0.172 C 
ENDROOT
BRANCH   1   2
ATOM      2  C   UNL     1      -3.405   2.395  -0.882  0.00  0.00    +0.250 C 
ATOM      3  O   UNL     1      -3.034   3.276  -1.622  0.00  0.00    -0.273 OA
ATOM      4  N   UNL     1      -4.686   1.978  -0.922  0.00  0.00    -0.170 N 
ATOM      5  C   UNL     1      -5.182   0.971  -0.179  0.00  0.00    +0.260 C 
ATOM      6  O   UNL     1      -4.556   0.305   0.621  0.00  0.00    -0.269 OA
ATOM      7  C   UNL     1      -6.615   0.815  -0.498  0.00  0.00    +0.052 A 
ATOM      8  C   UNL     1      -7.618  -0.030  -0.057  0.00  0.00    +0.014 A 
ATOM      9  C   UNL     1      -8.900   0.083  -0.578  0.00  0.00    +0.003 A 
ATOM     10  C   UNL     1      -9.187   1.033  -1.535  0.00  0.00    +0.023 A 
ATOM     11  C   UNL     1      -8.190   1.897  -1.994  0.00  0.00    +0.038 A 
ATOM     12  C   UNL     1      -6.899   1.792  -1.477  0.00  0.00    +0.070 A 
ATOM     13  C   UNL     1      -5.635   2.508  -1.713  0.00  0.00    +0.262 C 
ATOM     14  O   UNL     1      -5.476   3.425  -2.493  0.00  0.00    -0.269 OA
BRANCH  11  15
ATOM     15  N   UNL     1      -8.483   2.853  -2.956  0.00  0.00    -0.357 N 
ATOM     16  H   UNL     1      -7.788   3.451  -3.272  0.00  0.00    +0.142 HD
ATOM     17  H   UNL     1      -9.382   2.922  -3.312  0.00  0.00    +0.142 HD
ENDBRANCH  11  15
ENDBRANCH   1   2
BRANCH   1  18
ATOM     18  N   UNL     1      -1.087   2.271  -0.176  0.00  0.00    -0.222 N 
ATOM     19  C   UNL     1      -0.073   1.527  -0.655  0.00  0.00    +0.254 C 
ATOM     20  O   UNL     1      -0.132   0.347  -0.935  0.00  0.00    -0.270 OA
ATOM     21  C   UNL     1       1.121   2.388  -0.790  0.00  0.00    +0.049 A 
ATOM     22  C   UNL     1       2.420   2.179  -1.224  0.00  0.00    +0.014 A 
ATOM     23  C   UNL     1       3.322   3.232  -1.224  0.00  0.00    +0.001 A 
ATOM     24  C   UNL     1       2.934   4.487  -0.794  0.00  0.00    +0.001 A 
ATOM     25  C   UNL     1       1.637   4.710  -0.357  0.00  0.00    +0.014 A 
ATOM     26  C   UNL     1       0.725   3.667  -0.351  0.00  0.00    +0.049 A 
ATOM     27  C   UNL     1      -0.696   3.541   0.035  0.00  0.00    +0.254 C 
ATOM     28  O   UNL     1      -1.396   4.436   0.465  0.00  0.00    -0.270 OA
ENDBRANCH   1  18
BRANCH   1  29
ATOM     29  C   UNL     1      -2.844   2.114   1.517  0.00  0.00    +0.035 C 
BRANCH  29  31
ATOM     30  C   UNL     1      -0.553   1.760   2.447  0.00  0.00    +0.007 C 
ATOM     31  C   UNL     1      -2.009   1.292   2.500  0.00  0.00    -0.015 C 
ATOM     32  C   UNL     1      -2.554   1.483   3.917  0.00  0.00    +0.007 C 
ENDBRANCH  29  31
ENDBRANCH   1  29
TORSDOF 5
