REMARK  Name = ZINC39583634
REMARK  6 active torsions:
REMARK  status: ('A' for Active; 'I' for Inactive)
REMARK    1  A    between atoms: C_1  and  C_2
REMARK    2  A    between atoms: C_5  and  C_8
REMARK    3  A    between atoms: C_12  and  S_21
REMARK    4  A    between atoms: N_14  and  C_15
REMARK    5  A    between atoms: S_21  and  C_22
REMARK    6  A    between atoms: C_22  and  C_23
REMARK                            x       y       z     vdW  Elec       q    Type
REMARK                         _______ _______ _______ _____ _____    ______ ____
ROOT
ATOM      1  C   UNL     1      -0.049  -4.474  -0.007  0.00  0.00    +0.188 C 
ATOM      2  N   UNL     1       0.631  -4.880  -1.258  0.00  0.00    -0.230 NA
ATOM      3  N   UNL     1       2.063  -4.847  -0.922  0.00  0.00    -0.226 NA
ATOM      4  C   UNL     1       2.091  -5.353   0.475  0.00  0.00    +0.218 C 
ATOM      5  N   UNL     1       0.880  -4.776   1.095  0.00  0.00    -0.284 N 
ATOM      6  H   UNL     1       0.420  -4.240  -2.009  0.00  0.00    +0.143 HD
ATOM      7  H   UNL     1       2.593  -5.449  -1.536  0.00  0.00    +0.143 HD
ENDROOT
BRANCH   1  12
ATOM      8  C   UNL     1      -1.203   1.187  -0.135  0.00  0.00    +0.044 C 
ATOM      9  C   UNL     1      -0.902  -0.289  -0.101  0.00  0.00    -0.050 A 
ATOM     10  C   UNL     1       0.397  -0.734  -0.258  0.00  0.00    +0.004 A 
ATOM     11  C   UNL     1       0.673  -2.088  -0.227  0.00  0.00    +0.007 A 
ATOM     12  C   UNL     1      -0.350  -2.998  -0.040  0.00  0.00    -0.011 A 
ATOM     13  C   UNL     1      -1.650  -2.553   0.117  0.00  0.00    +0.007 A 
ATOM     14  C   UNL     1      -1.925  -1.199   0.091  0.00  0.00    +0.004 A 
ENDBRANCH   1  12
BRANCH   5  15
ATOM     15  C   UNL     1       0.660  -4.559   2.458  0.00  0.00    +0.033 A 
ATOM     16  C   UNL     1      -0.485  -3.895   2.881  0.00  0.00    +0.023 A 
ATOM     17  C   UNL     1      -0.700  -3.683   4.228  0.00  0.00    +0.002 A 
ATOM     18  C   UNL     1       0.223  -4.129   5.156  0.00  0.00    +0.000 A 
ATOM     19  C   UNL     1       1.364  -4.790   4.738  0.00  0.00    +0.002 A 
ATOM     20  C   UNL     1       1.582  -5.011   3.393  0.00  0.00    +0.023 A 
ENDBRANCH   5  15
BRANCH   4  21
ATOM     21  S   UNL     1       3.583  -4.776   1.330  0.00  0.00    -0.114 S 
BRANCH  21  22
ATOM     22  C   UNL     1       3.471  -2.968   1.235  0.00  0.00    +0.146 C 
BRANCH  22  23
ATOM     23  C   UNL     1       4.667  -2.354   1.917  0.00  0.00    +0.118 A 
ATOM     24  N   UNL     1       5.792  -2.065   1.332  0.00  0.00    -0.232 NA
ATOM     25  C   UNL     1       6.651  -1.527   2.235  0.00  0.00    +0.089 A 
ATOM     26  C   UNL     1       7.962  -1.050   2.152  0.00  0.00    +0.030 A 
ATOM     27  C   UNL     1       8.577  -0.553   3.267  0.00  0.00    +0.002 A 
ATOM     28  C   UNL     1       7.914  -0.517   4.484  0.00  0.00    +0.002 A 
ATOM     29  C   UNL     1       6.620  -0.984   4.590  0.00  0.00    +0.028 A 
ATOM     30  C   UNL     1       5.979  -1.491   3.468  0.00  0.00    +0.066 A 
ATOM     31  N   UNL     1       4.724  -2.015   3.233  0.00  0.00    -0.341 N 
ATOM     32  H   UNL     1       4.015  -2.125   3.886  0.00  0.00    +0.167 HD
ENDBRANCH  22  23
ENDBRANCH  21  22
ENDBRANCH   4  21
TORSDOF 5
