REMARK  Name = ZINC38712259
REMARK  2 active torsions:
REMARK  status: ('A' for Active; 'I' for Inactive)
REMARK    1  A    between atoms: C_6  and  C_7
REMARK    2  A    between atoms: C_9  and  C_23
REMARK                            x       y       z     vdW  Elec       q    Type
REMARK                         _______ _______ _______ _____ _____    ______ ____
ROOT
ATOM      1  C   UNL     1      -1.293  -0.775   0.011  0.00  0.00    +0.064 C 
ATOM      2  C   UNL     1      -1.434  -1.537  -1.309  0.00  0.00    +0.187 C 
ATOM      3  C   UNL     1      -2.652  -2.425  -1.228  0.00  0.00    +0.255 C 
ATOM      4  O   UNL     1      -3.420  -2.502  -2.165  0.00  0.00    -0.272 OA
ATOM      5  N   UNL     1      -2.875  -3.126  -0.111  0.00  0.00    -0.166 NA
ATOM      6  C   UNL     1      -2.198  -2.914   0.972  0.00  0.00    +0.127 C 
ATOM      7  N   UNL     1      -2.158  -3.851   1.982  0.00  0.00    -0.171 NA
ATOM      8  C   UNL     1      -0.886  -4.213   2.380  0.00  0.00    +0.195 C 
ATOM      9  N   UNL     1       0.158  -3.442   2.139  0.00  0.00    -0.149 NA
ATOM     10  C   UNL     1       0.067  -2.248   1.547  0.00  0.00    +0.250 C 
ATOM     11  O   UNL     1       1.064  -1.597   1.305  0.00  0.00    -0.273 OA
ATOM     12  C   UNL     1      -1.296  -1.728   1.185  0.00  0.00    +0.149 C 
ATOM     13  N   UNL     1      -0.704  -5.392   3.035  0.00  0.00    -0.331 N 
ATOM     14  H   UNL     1      -1.463  -5.968   3.218  0.00  0.00    +0.145 HD
ATOM     15  H   UNL     1       0.185  -5.657   3.319  0.00  0.00    +0.145 HD
ENDROOT
BRANCH   1  21
ATOM     16  C   UNL     1       1.026  -0.383  -0.846  0.00  0.00    +0.005 A 
ATOM     17  C   UNL     1       2.214   0.324  -0.854  0.00  0.00    +0.020 A 
ATOM     18  C   UNL     1       2.378   1.411  -0.015  0.00  0.00    +0.041 A 
ATOM     19  C   UNL     1       1.352   1.790   0.834  0.00  0.00    +0.020 A 
ATOM     20  C   UNL     1       0.165   1.082   0.841  0.00  0.00    +0.005 A 
ATOM     21  C   UNL     1       0.002  -0.004   0.002  0.00  0.00    -0.041 A 
ATOM     22 CL   UNL     1       3.869   2.299  -0.025  0.00  0.00    -0.084 Cl
ENDBRANCH   1  21
BRANCH   2  23
ATOM     23  C   UNL     1      -1.589  -0.581  -2.417  0.00  0.00    +0.076 C 
ATOM     24  N   UNL     1      -1.709   0.158  -3.272  0.00  0.00    -0.196 NA
ENDBRANCH   2  23
TORSDOF 2
