REMARK  Name = ZINC63842162
REMARK  6 active torsions:
REMARK  status: ('A' for Active; 'I' for Inactive)
REMARK    1  A    between atoms: C_7  and  C_10
REMARK    2  A    between atoms: C_10  and  C_11
REMARK    3  A    between atoms: N_13  and  C_14
REMARK    4  A    between atoms: C_17  and  N_20
REMARK    5  A    between atoms: N_20  and  S_21
REMARK    6  A    between atoms: S_21  and  C_24
REMARK                            x       y       z     vdW  Elec       q    Type
REMARK                         _______ _______ _______ _____ _____    ______ ____
ROOT
ATOM      1  C   UNL     1      -0.030  -5.136  -3.074  0.00  0.00    +0.034 A 
ATOM      2  C   UNL     1       0.645  -4.567  -4.145  0.00  0.00    +0.025 A 
ATOM      3  C   UNL     1       0.394  -5.005  -5.430  0.00  0.00    +0.026 A 
ATOM      4  C   UNL     1      -0.533  -6.014  -5.651  0.00  0.00    +0.048 A 
ATOM      5  C   UNL     1      -1.208  -6.584  -4.579  0.00  0.00    +0.026 A 
ATOM      6  C   UNL     1      -0.953  -6.149  -3.294  0.00  0.00    +0.025 A 
ENDROOT
BRANCH   1   9
ATOM      7  C   UNL     1       0.208  -5.567  -0.744  0.00  0.00    +0.221 C 
ATOM      8  O   UNL     1      -0.110  -6.721  -0.937  0.00  0.00    -0.275 OA
ATOM      9  N   UNL     1       0.225  -4.692  -1.769  0.00  0.00    -0.285 N 
ATOM     10  H   UNL     1       0.413  -3.755  -1.604  0.00  0.00    +0.155 HD
BRANCH   7  11
ATOM     11  C   UNL     1       0.585  -5.111   0.642  0.00  0.00    +0.129 C 
BRANCH  11  18
ATOM     12  C   UNL     1       3.684  -8.110   2.210  0.00  0.00    +0.001 A 
ATOM     13  C   UNL     1       3.154  -9.051   3.103  0.00  0.00    +0.002 A 
ATOM     14  C   UNL     1       1.852  -9.063   3.462  0.00  0.00    +0.026 A 
ATOM     15  C   UNL     1       0.952  -8.099   2.932  0.00  0.00    +0.043 A 
ATOM     16  N   UNL     1      -0.331  -7.906   3.121  0.00  0.00    -0.380 N 
ATOM     17  C   UNL     1      -0.755  -6.755   2.315  0.00  0.00    +0.145 C 
ATOM     18  C   UNL     1       0.486  -6.272   1.597  0.00  0.00    -0.033 C 
ATOM     19  C   UNL     1       1.487  -7.094   1.986  0.00  0.00    -0.001 A 
ATOM     20  C   UNL     1       2.915  -7.150   1.649  0.00  0.00    +0.010 A 
ATOM     21  H   UNL     1      -0.904  -8.435   3.697  0.00  0.00    +0.160 HD
ENDBRANCH  11  18
ENDBRANCH   7  11
ENDBRANCH   1   9
BRANCH   4  22
ATOM     22  N   UNL     1      -0.788  -6.458  -6.954  0.00  0.00    -0.216 N 
ATOM     23  H   UNL     1      -0.915  -5.815  -7.668  0.00  0.00    +0.174 HD
BRANCH  22  24
ATOM     24  S   UNL     1      -0.871  -8.080  -7.274  0.00  0.00    +0.072 S 
ATOM     25  O   UNL     1      -1.770  -8.636  -6.325  0.00  0.00    -0.150 OA
ATOM     26  O   UNL     1      -1.069  -8.207  -8.676  0.00  0.00    -0.150 OA
BRANCH  24  27
ATOM     27  C   UNL     1       0.716  -8.762  -6.925  0.00  0.00    +0.109 A 
ATOM     28  C   UNL     1       1.711  -8.721  -7.884  0.00  0.00    +0.031 A 
ATOM     29  C   UNL     1       2.956  -9.256  -7.611  0.00  0.00    +0.040 A 
ATOM     30  C   UNL     1       3.206  -9.832  -6.378  0.00  0.00    +0.124 A 
ATOM     31  C   UNL     1       2.209  -9.873  -5.418  0.00  0.00    +0.040 A 
ATOM     32  C   UNL     1       0.966  -9.333  -5.691  0.00  0.00    +0.031 A 
ATOM     33  F   UNL     1       4.423 -10.355  -6.110  0.00  0.00    -0.205 F 
ENDBRANCH  24  27
ENDBRANCH  22  24
ENDBRANCH   4  22
TORSDOF 6
