REMARK  Name = ZINC38002471
REMARK  4 active torsions:
REMARK  status: ('A' for Active; 'I' for Inactive)
REMARK    1  A    between atoms: C_1  and  C_2
REMARK    2  A    between atoms: C_2  and  C_4
REMARK    3  A    between atoms: C_2  and  N_10
REMARK    4  A    between atoms: N_10  and  C_11
REMARK                            x       y       z     vdW  Elec       q    Type
REMARK                         _______ _______ _______ _____ _____    ______ ____
ROOT
ATOM      1  C   UNL     1      -0.162  -0.310   2.364  0.00  0.00    -0.068 C 
ATOM      2  C   UNL     1      -0.325   1.198   2.570  0.00  0.00    +0.003 C 
ATOM      3  C   UNL     1      -1.190   1.449   3.809  0.00  0.00    +0.105 C 
ATOM      4  N   UNL     1      -0.594   0.744   4.953  0.00  0.00    -0.317 N 
ATOM      5  C   UNL     1      -0.312  -0.692   4.828  0.00  0.00    +0.105 C 
ATOM      6  C   UNL     1       0.543  -0.920   3.577  0.00  0.00    +0.003 C 
ATOM      7  C   UNL     1      -0.304   1.423   6.130  0.00  0.00    +0.099 A 
ATOM      8  C   UNL     1       0.142   0.716   7.242  0.00  0.00    +0.042 A 
ATOM      9  C   UNL     1       0.428   1.405   8.407  0.00  0.00    +0.005 A 
ATOM     10  C   UNL     1       0.258   2.783   8.421  0.00  0.00    +0.018 A 
ATOM     11  C   UNL     1      -0.189   3.421   7.281  0.00  0.00    +0.084 A 
ATOM     12  N   UNL     1      -0.448   2.738   6.182  0.00  0.00    -0.350 N 
ATOM     13  H   UNL     1      -0.757   3.212   5.393  0.00  0.00    +0.166 HD
ENDROOT
BRANCH   1  14
ATOM     14  N   UNL     1       0.639  -0.555   1.157  0.00  0.00    +0.386 N 
ATOM     15  H   UNL     1       0.831  -1.543   1.075  0.00  0.00    -0.085 HD
ATOM     16  H   UNL     1       1.509  -0.049   1.223  0.00  0.00    -0.085 HD
BRANCH  14  18
ATOM     17  C   UNL     1       0.783  -0.227  -1.265  0.00  0.00    -0.008 C 
ATOM     18  C   UNL     1      -0.104  -0.101  -0.025  0.00  0.00    -0.037 C 
BRANCH  18  19
ATOM     19  C   UNL     1      -1.337  -0.950  -0.201  0.00  0.00    -0.023 A 
ATOM     20  C   UNL     1      -2.584  -0.577  -0.575  0.00  0.00    +0.010 A 
ATOM     21  C   UNL     1      -3.572  -1.539  -0.671  0.00  0.00    +0.023 A 
ATOM     22  C   UNL     1      -3.263  -2.829  -0.388  0.00  0.00    +0.055 A 
ATOM     23  S   UNL     1      -1.529  -2.711   0.022  0.00  0.00    -0.088 S 
ATOM     24 BR   UNL     1      -4.376  -4.357  -0.426  0.00  0.00    -0.043 Br
ENDBRANCH  18  19
ENDBRANCH  14  18
ENDBRANCH   1  14
TORSDOF 3
