REMARK  Name = ZINC00566537
REMARK  6 active torsions:
REMARK  status: ('A' for Active; 'I' for Inactive)
REMARK    1  A    between atoms: C_1  and  C_2
REMARK    2  A    between atoms: C_5  and  C_8
REMARK    3  A    between atoms: N_9  and  N_10
REMARK    4  A    between atoms: C_11  and  C_13
REMARK    5  A    between atoms: C_13  and  O_14
REMARK    6  A    between atoms: O_14  and  C_15
REMARK                            x       y       z     vdW  Elec       q    Type
REMARK                         _______ _______ _______ _____ _____    ______ ____
ROOT
ATOM      1  N   UNL     1       2.088   4.348   0.005  0.00  0.00    -0.204 N 
ATOM      2  C   UNL     1       1.030   3.512   0.011  0.00  0.00    +0.270 C 
ATOM      3  O   UNL     1      -0.097   3.961   0.024  0.00  0.00    -0.270 OA
ATOM      4  H   UNL     1       2.989   3.989  -0.005  0.00  0.00    +0.177 HD
ENDROOT
BRANCH   1   6
ATOM      5  C   UNL     1       2.904   6.538   0.009  0.00  0.00    +0.138 C 
ATOM      6  N   UNL     1       1.885   5.734   0.015  0.00  0.00    -0.188 NA
BRANCH   5  11
ATOM      7  C   UNL     1       2.073  12.229   0.045  0.00  0.00    +0.044 C 
ATOM      8  C   UNL     1       2.291  10.738   0.036  0.00  0.00    -0.050 A 
ATOM      9  C   UNL     1       3.578  10.230   0.022  0.00  0.00    +0.004 A 
ATOM     10  C   UNL     1       3.784   8.867   0.013  0.00  0.00    +0.010 A 
ATOM     11  C   UNL     1       2.691   7.998   0.019  0.00  0.00    -0.005 A 
ATOM     12  C   UNL     1       1.394   8.518   0.029  0.00  0.00    +0.010 A 
ATOM     13  C   UNL     1       1.202   9.883   0.042  0.00  0.00    +0.004 A 
ENDBRANCH   5  11
ENDBRANCH   1   6
BRANCH   2  14
ATOM     14  C   UNL     1       1.248   2.021   0.001  0.00  0.00    +0.326 C 
BRANCH  14  15
ATOM     15  O   UNL     1      -0.016   1.355   0.009  0.00  0.00    -0.481 OA
BRANCH  15  16
ATOM     16  C   UNL     1       0.002  -0.004   0.002  0.00  0.00    +0.139 A 
ATOM     17  C   UNL     1       1.212  -0.682  -0.019  0.00  0.00    +0.047 A 
ATOM     18  C   UNL     1       1.228  -2.064  -0.021  0.00  0.00    +0.004 A 
ATOM     19  C   UNL     1       0.040  -2.771  -0.013  0.00  0.00    +0.002 A 
ATOM     20  C   UNL     1      -1.168  -2.098   0.002  0.00  0.00    +0.023 A 
ATOM     21  C   UNL     1      -1.190  -0.716   0.010  0.00  0.00    +0.083 A 
ATOM     22 CL   UNL     1      -2.706   0.129   0.028  0.00  0.00    -0.080 Cl
ENDBRANCH  15  16
ENDBRANCH  14  15
ENDBRANCH   2  14
TORSDOF 5
