REMARK  Name = ZINC01499681
REMARK  7 active torsions:
REMARK  status: ('A' for Active; 'I' for Inactive)
REMARK    1  A    between atoms: C_1  and  C_2
REMARK    2  A    between atoms: C_3  and  O_22
REMARK    3  A    between atoms: C_4  and  C_10
REMARK    4  A    between atoms: C_5  and  C_8
REMARK    5  A    between atoms: C_8  and  O_9
REMARK    6  A    between atoms: N_11  and  N_12
REMARK    7  A    between atoms: C_13  and  C_15
REMARK                            x       y       z     vdW  Elec       q    Type
REMARK                         _______ _______ _______ _____ _____    ______ ____
ROOT
ATOM      1  C   UNL     1       0.029  -2.854  -2.454  0.00  0.00    +0.142 C 
ATOM      2  N   UNL     1       0.015  -2.232  -3.594  0.00  0.00    -0.187 NA
ENDROOT
BRANCH   1   6
ATOM      3  C   UNL     1      -0.018   1.503   0.010  0.00  0.00    +0.069 C 
ATOM      4  C   UNL     1       0.002  -0.004   0.002  0.00  0.00    +0.080 A 
ATOM      5  C   UNL     1       0.006  -0.681  -1.206  0.00  0.00    +0.147 A 
ATOM      6  C   UNL     1       0.025  -2.087  -1.196  0.00  0.00    +0.045 A 
ATOM      7  C   UNL     1       0.040  -2.737   0.045  0.00  0.00    +0.008 A 
ATOM      8  C   UNL     1       0.035  -1.980   1.197  0.00  0.00    +0.117 A 
ATOM      9  N   UNL     1       0.022  -0.661   1.145  0.00  0.00    -0.256 NA
BRANCH   5  10
ATOM     10  O   UNL     1      -0.010   0.001  -2.381  0.00  0.00    -0.504 OA
ATOM     11  H   UNL     1       0.869   0.211  -2.725  0.00  0.00    +0.292 HD
ENDBRANCH   5  10
BRANCH   7  12
ATOM     12  C   UNL     1       0.061  -4.242   0.119  0.00  0.00    +0.193 C 
BRANCH  12  13
ATOM     13  O   UNL     1       0.074  -4.651   1.488  0.00  0.00    -0.390 OA
ATOM     14  H   UNL     1       0.087  -5.610   1.612  0.00  0.00    +0.210 HD
ENDBRANCH  12  13
ENDBRANCH   7  12
ENDBRANCH   1   6
BRANCH   2  15
ATOM     15  N   UNL     1       0.018  -2.962  -4.790  0.00  0.00    -0.203 N 
ATOM     16  C   UNL     1       0.003  -2.316  -5.973  0.00  0.00    +0.263 C 
ATOM     17  O   UNL     1      -0.014  -1.101  -6.002  0.00  0.00    -0.268 OA
ATOM     18  H   UNL     1       0.032  -3.931  -4.767  0.00  0.00    +0.178 HD
BRANCH  16  19
ATOM     19  C   UNL     1       0.007  -3.086  -7.234  0.00  0.00    +0.038 A 
ATOM     20  C   UNL     1       0.021  -4.481  -7.204  0.00  0.00    +0.014 A 
ATOM     21  C   UNL     1       0.024  -5.194  -8.385  0.00  0.00    +0.016 A 
ATOM     22  C   UNL     1       0.014  -4.528  -9.599  0.00  0.00    +0.018 A 
ATOM     23  C   UNL     1       0.001  -3.143  -9.636  0.00  0.00    +0.016 A 
ATOM     24  C   UNL     1      -0.008  -2.420  -8.462  0.00  0.00    +0.014 A 
ATOM     25 BR   UNL     1       0.019  -5.512 -11.213  0.00  0.00    -0.050 Br
ENDBRANCH  16  19
ENDBRANCH   2  15
TORSDOF 6
