REMARK  Name = ZINC21228362
REMARK  8 active torsions:
REMARK  status: ('A' for Active; 'I' for Inactive)
REMARK    1  A    between atoms: C_1  and  C_2
REMARK    2  A    between atoms: C_2  and  C_3
REMARK    3  A    between atoms: C_6  and  C_9
REMARK    4  A    between atoms: C_14  and  C_20
REMARK    5  A    between atoms: C_22  and  O_28
REMARK    6  A    between atoms: C_23  and  O_27
REMARK    7  A    between atoms: O_28  and  C_29
REMARK    8  A    between atoms: C_29  and  C_30
REMARK                            x       y       z     vdW  Elec       q    Type
REMARK                         _______ _______ _______ _____ _____    ______ ____
ROOT
ATOM      1  C   UNL     1      -3.000   0.613  -3.673  0.00  0.00    +0.032 C 
ATOM      2  C   UNL     1      -3.727   1.050  -2.399  0.00  0.00    +0.059 C 
ATOM      3  C   UNL     1      -2.904   0.673  -1.192  0.00  0.00    +0.018 C 
ATOM      4  C   UNL     1      -2.103  -0.412  -1.213  0.00  0.00    +0.020 C 
ATOM      5  C   UNL     1      -1.294  -0.773   0.011  0.00  0.00    +0.063 C 
ATOM      6  C   UNL     1      -2.089  -0.419   1.269  0.00  0.00    +0.109 C 
ATOM      7  C   UNL     1      -2.623   0.984   1.136  0.00  0.00    +0.218 C 
ATOM      8  O   UNL     1      -2.725   1.687   2.118  0.00  0.00    -0.275 OA
ATOM      9  N   UNL     1      -2.986   1.456  -0.069  0.00  0.00    -0.289 N 
ATOM     10  C   UNL     1      -1.998  -1.223  -2.355  0.00  0.00    +0.162 C 
ATOM     11  O   UNL     1      -1.275  -2.199  -2.332  0.00  0.00    -0.292 OA
ATOM     12  C   UNL     1      -2.768  -0.901  -3.608  0.00  0.00    +0.088 C 
ATOM     13  H   UNL     1      -3.354   2.490  -0.145  0.00  0.00    +0.155 HD
ENDROOT
BRANCH   5  14
ATOM     14  C   UNL     1       0.002  -0.004   0.002  0.00  0.00    -0.035 A 
ATOM     15  C   UNL     1       1.207  -0.682  -0.013  0.00  0.00    +0.053 A 
ATOM     16  C   UNL     1       2.399   0.023  -0.021  0.00  0.00    +0.163 A 
ATOM     17  C   UNL     1       2.381   1.415  -0.013  0.00  0.00    +0.173 A 
ATOM     18  C   UNL     1       1.170   2.089   0.002  0.00  0.00    +0.063 A 
ATOM     19  C   UNL     1      -0.017   1.378   0.010  0.00  0.00    +0.023 A 
ATOM     20 BR   UNL     1       1.140   3.979   0.012  0.00  0.00    -0.046 Br
BRANCH  17  21
ATOM     21  O   UNL     1       3.549   2.112  -0.020  0.00  0.00    -0.503 OA
ATOM     22  H   UNL     1       3.534   3.212  -0.014  0.00  0.00    +0.292 HD
ENDBRANCH  17  21
BRANCH  16  23
ATOM     23  O   UNL     1       3.585  -0.643  -0.036  0.00  0.00    -0.489 OA
BRANCH  23  24
ATOM     24  C   UNL     1       3.527  -2.071  -0.044  0.00  0.00    +0.226 C 
ATOM     25  C   UNL     1       4.948  -2.639  -0.061  0.00  0.00    +0.048 C 
ENDBRANCH  23  24
ENDBRANCH  16  23
ENDBRANCH   5  14
BRANCH   1  29
ATOM     26  C   UNL     1      -5.395   1.548  -7.084  0.00  0.00    -0.048 A 
ATOM     27  C   UNL     1      -4.127   2.085  -6.962  0.00  0.00    +0.004 A 
ATOM     28  C   UNL     1      -3.352   1.782  -5.858  0.00  0.00    +0.004 A 
ATOM     29  C   UNL     1      -3.845   0.943  -4.877  0.00  0.00    -0.043 A 
ATOM     30  C   UNL     1      -5.111   0.402  -5.002  0.00  0.00    +0.004 A 
ATOM     31  C   UNL     1      -5.888   0.709  -6.103  0.00  0.00    +0.004 A 
BRANCH  26  33
ATOM     32  C   UNL     1      -5.977   0.852  -9.392  0.00  0.00    +0.009 C 
ATOM     33  C   UNL     1      -6.240   1.878  -8.288  0.00  0.00    +0.032 C 
ENDBRANCH  26  33
ENDBRANCH   1  29
TORSDOF 6
