REMARK  Name = ZINC35174419
REMARK  11 active torsions:
REMARK  status: ('A' for Active; 'I' for Inactive)
REMARK    1  A    between atoms: C_1  and  C_2
REMARK    2  A    between atoms: C_3  and  C_32
REMARK    3  A    between atoms: C_4  and  C_9
REMARK    4  A    between atoms: C_6  and  C_8
REMARK    5  A    between atoms: C_15  and  C_18
REMARK    6  A    between atoms: N_21  and  C_22
REMARK    7  A    between atoms: C_27  and  C_28
REMARK    8  A    between atoms: C_32  and  O_34
REMARK    9  A    between atoms: O_34  and  C_35
REMARK   10  A    between atoms: C_35  and  C_36
REMARK   11  A    between atoms: C_35  and  C_37
REMARK                            x       y       z     vdW  Elec       q    Type
REMARK                         _______ _______ _______ _____ _____    ______ ____
ROOT
ATOM      1  C   UNL     1      -0.129  -2.884  -2.183  0.00  0.00    +0.266 C 
ATOM      2  O   UNL     1      -0.357  -2.318  -3.233  0.00  0.00    -0.268 OA
ATOM      3  N   UNL     1      -0.037  -4.228  -2.149  0.00  0.00    -0.293 N 
ATOM      4  C   UNL     1       0.263  -4.925  -0.891  0.00  0.00    +0.127 C 
ATOM      5  C   UNL     1       1.496  -5.812  -1.104  0.00  0.00    +0.128 C 
ATOM      6  N   UNL     1       1.298  -6.607  -2.324  0.00  0.00    -0.280 N 
ATOM      7  C   UNL     1       0.997  -5.910  -3.583  0.00  0.00    +0.092 C 
ATOM      8  C   UNL     1      -0.241  -5.023  -3.368  0.00  0.00    +0.130 C 
ATOM      9  C   UNL     1       0.713  -6.935  -4.682  0.00  0.00    +0.030 C 
ATOM     10  C   UNL     1       1.389  -7.951  -2.290  0.00  0.00    +0.307 C 
ATOM     11  O   UNL     1       1.311  -8.593  -3.320  0.00  0.00    -0.252 OA
ATOM     12  N   UNL     1       1.568  -8.585  -1.114  0.00  0.00    -0.269 N 
ATOM     13  H   UNL     1       1.545  -8.083  -0.284  0.00  0.00    +0.156 HD
ENDROOT
BRANCH   1  17
ATOM     14  C   UNL     1       0.371   1.503   0.243  0.00  0.00    +0.066 C 
ATOM     15  C   UNL     1       0.287  -0.002   0.226  0.00  0.00    +0.056 A 
ATOM     16  C   UNL     1       0.120  -0.690  -0.982  0.00  0.00    +0.110 A 
ATOM     17  C   UNL     1       0.049  -2.095  -0.937  0.00  0.00    +0.143 A 
ATOM     18  N   UNL     1       0.143  -2.703   0.240  0.00  0.00    -0.227 NA
ATOM     19  C   UNL     1       0.300  -2.008   1.349  0.00  0.00    +0.127 A 
ATOM     20  N   UNL     1       0.377  -0.691   1.349  0.00  0.00    -0.237 NA
ATOM     21  C   UNL     1       0.402  -2.743   2.660  0.00  0.00    +0.088 C 
BRANCH  16  22
ATOM     22  C   UNL     1       0.020   0.036  -2.265  0.00  0.00    +0.343 C 
ATOM     23  O   UNL     1       1.023   0.279  -2.905  0.00  0.00    -0.245 OA
BRANCH  22  24
ATOM     24  O   UNL     1      -1.184   0.430  -2.725  0.00  0.00    -0.458 OA
BRANCH  24  25
ATOM     25  C   UNL     1      -1.206   1.127  -3.972  0.00  0.00    +0.171 C 
ATOM     26  C   UNL     1      -2.528   0.848  -4.689  0.00  0.00    +0.052 C 
ATOM     27  C   UNL     1      -1.071   2.630  -3.718  0.00  0.00    +0.052 C 
ENDBRANCH  24  25
ENDBRANCH  22  24
ENDBRANCH  16  22
ENDBRANCH   1  17
BRANCH  12  28
ATOM     28  C   UNL     1       1.787  -9.967  -1.089  0.00  0.00    +0.046 A 
ATOM     29  C   UNL     1       2.204 -10.626  -2.239  0.00  0.00    +0.024 A 
ATOM     30  C   UNL     1       2.420 -11.989  -2.211  0.00  0.00    +0.002 A 
ATOM     31  C   UNL     1       2.221 -12.699  -1.041  0.00  0.00    +0.001 A 
ATOM     32  C   UNL     1       1.805 -12.046   0.105  0.00  0.00    +0.014 A 
ATOM     33  C   UNL     1       1.593 -10.681   0.085  0.00  0.00    +0.076 A 
BRANCH  33  34
ATOM     34  C   UNL     1       1.146  -9.970   1.336  0.00  0.00    +0.419 C 
ATOM     35  F   UNL     1       1.021 -10.893   2.379  0.00  0.00    -0.166 F 
ATOM     36  F   UNL     1       2.092  -8.999   1.684  0.00  0.00    -0.166 F 
ATOM     37  F   UNL     1      -0.090  -9.356   1.107  0.00  0.00    -0.166 F 
ENDBRANCH  33  34
ENDBRANCH  12  28
TORSDOF 6
