REMARK  Name = ZINC66051685
REMARK  8 active torsions:
REMARK  status: ('A' for Active; 'I' for Inactive)
REMARK    1  A    between atoms: C_6  and  C_7
REMARK    2  A    between atoms: C_7  and  C_8
REMARK    3  A    between atoms: C_8  and  C_9
REMARK    4  A    between atoms: C_8  and  C_23
REMARK    5  A    between atoms: C_9  and  N_10
REMARK    6  A    between atoms: C_11  and  C_13
REMARK    7  A    between atoms: C_16  and  N_20
REMARK    8  A    between atoms: C_17  and  O_19
REMARK                            x       y       z     vdW  Elec       q    Type
REMARK                         _______ _______ _______ _____ _____    ______ ____
ROOT
ATOM      1  C   UNL     1      -3.045  -1.803  -1.660  0.00  0.00    +0.117 C 
ENDROOT
BRANCH   1   2
ATOM      2  N   UNL     1      -3.143  -2.144  -3.082  0.00  0.00    -0.311 N 
ATOM      3  C   UNL     1      -4.209  -2.833  -3.537  0.00  0.00    +0.244 C 
ATOM      4  O   UNL     1      -5.088  -3.171  -2.769  0.00  0.00    -0.270 OA
ATOM      5  H   UNL     1      -2.442  -1.875  -3.695  0.00  0.00    +0.149 HD
BRANCH   3   6
ATOM      6  C   UNL     1      -4.308  -3.177  -4.972  0.00  0.00    +0.040 A 
ATOM      7  C   UNL     1      -3.296  -2.795  -5.855  0.00  0.00    +0.015 A 
ATOM      8  C   UNL     1      -3.392  -3.118  -7.193  0.00  0.00    +0.037 A 
ATOM      9  C   UNL     1      -4.487  -3.819  -7.663  0.00  0.00    +0.167 A 
ATOM     10  C   UNL     1      -5.497  -4.203  -6.793  0.00  0.00    +0.148 A 
ATOM     11  C   UNL     1      -5.409  -3.889  -5.447  0.00  0.00    +0.060 A 
BRANCH   9  12
ATOM     12  N   UNL     1      -4.582  -4.161  -9.100  0.00  0.00    +0.060 N 
ATOM     13  O   UNL     1      -3.704  -3.827  -9.861  0.00  0.00    -0.126 OA
ATOM     14  O   UNL     1      -5.539  -4.774  -9.514  0.00  0.00    -0.126 OA
ENDBRANCH   9  12
BRANCH  10  15
ATOM     15  O   UNL     1      -6.572  -4.893  -7.260  0.00  0.00    -0.504 OA
ATOM     16  H   UNL     1      -6.461  -5.853  -7.242  0.00  0.00    +0.292 HD
ENDBRANCH  10  15
ENDBRANCH   3   6
ENDBRANCH   1   2
BRANCH   1  17
ATOM     17  C   UNL     1      -1.818  -0.919  -1.431  0.00  0.00    +0.096 C 
BRANCH  17  18
ATOM     18  C   UNL     1      -1.982   0.374  -2.188  0.00  0.00    +0.215 C 
ATOM     19  O   UNL     1      -3.078   0.885  -2.285  0.00  0.00    -0.276 OA
ATOM     20  N   UNL     1      -0.911   0.962  -2.756  0.00  0.00    -0.329 N 
ATOM     21  H   UNL     1      -0.049   0.519  -2.741  0.00  0.00    +0.145 HD
ATOM     22  H   UNL     1      -1.003   1.829  -3.182  0.00  0.00    +0.145 HD
ENDBRANCH  17  18
BRANCH  17  23
ATOM     23  C   UNL     1      -1.675  -0.621   0.063  0.00  0.00    +0.049 C 
BRANCH  23  29
ATOM     24  C   UNL     1      -0.436   1.530   0.379  0.00  0.00    +0.006 A 
ATOM     25  C   UNL     1       0.731   2.238   0.599  0.00  0.00    +0.038 A 
ATOM     26  C   UNL     1       1.932   1.565   0.741  0.00  0.00    +0.123 A 
ATOM     27  C   UNL     1       1.964   0.183   0.663  0.00  0.00    +0.038 A 
ATOM     28  C   UNL     1       0.796  -0.523   0.444  0.00  0.00    +0.006 A 
ATOM     29  C   UNL     1      -0.403   0.150   0.302  0.00  0.00    -0.046 A 
ATOM     30  F   UNL     1       3.073   2.256   0.955  0.00  0.00    -0.205 F 
ENDBRANCH  23  29
ENDBRANCH  17  23
ENDBRANCH   1  17
TORSDOF 8
