REMARK  Name = ZINC05540078
REMARK  5 active torsions:
REMARK  status: ('A' for Active; 'I' for Inactive)
REMARK    1  A    between atoms: C_1  and  C_2
REMARK    2  A    between atoms: C_5  and  C_8
REMARK    3  A    between atoms: N_9  and  N_10
REMARK    4  A    between atoms: C_11  and  C_13
REMARK    5  A    between atoms: C_16  and  C_18
REMARK                            x       y       z     vdW  Elec       q    Type
REMARK                         _______ _______ _______ _____ _____    ______ ____
ROOT
ATOM      1  N   UNL     1       0.092  -6.304   1.091  0.00  0.00    -0.200 N 
ATOM      2  C   UNL     1       0.107  -6.984   2.255  0.00  0.00    +0.299 C 
ATOM      3  O   UNL     1       0.104  -6.381   3.312  0.00  0.00    -0.265 OA
ATOM      4  H   UNL     1       0.094  -6.784   0.249  0.00  0.00    +0.178 HD
ENDROOT
BRANCH   2   5
ATOM      5  C   UNL     1       0.126  -8.450   2.247  0.00  0.00    +0.191 A 
ATOM      6  C   UNL     1       0.137  -9.258   3.348  0.00  0.00    +0.055 A 
ATOM      7  C   UNL     1       0.154 -10.581   2.877  0.00  0.00    +0.045 A 
ATOM      8  C   UNL     1       0.153 -10.522   1.527  0.00  0.00    +0.103 A 
ATOM      9  O   UNL     1       0.131  -9.236   1.151  0.00  0.00    -0.455 OA
ATOM     10  C   UNL     1       0.169 -11.708   0.597  0.00  0.00    +0.086 C 
ENDBRANCH   2   5
BRANCH   1  12
ATOM     11  C   UNL     1       0.059  -4.248  -0.021  0.00  0.00    +0.138 C 
ATOM     12  N   UNL     1       0.073  -4.903   1.099  0.00  0.00    -0.187 NA
BRANCH  11  17
ATOM     13  C   UNL     1      -0.018   1.503   0.010  0.00  0.00    +0.044 C 
ATOM     14  C   UNL     1       0.002  -0.004   0.002  0.00  0.00    -0.050 A 
ATOM     15  C   UNL     1       0.006  -0.686  -1.202  0.00  0.00    +0.004 A 
ATOM     16  C   UNL     1       0.024  -2.065  -1.217  0.00  0.00    +0.010 A 
ATOM     17  C   UNL     1       0.040  -2.773  -0.013  0.00  0.00    -0.005 A 
ATOM     18  C   UNL     1       0.036  -2.078   1.198  0.00  0.00    +0.010 A 
ATOM     19  C   UNL     1       0.023  -0.699   1.198  0.00  0.00    +0.004 A 
ENDBRANCH  11  17
ENDBRANCH   1  12
TORSDOF 3
