REMARK  Name = ZINC67493119
REMARK  8 active torsions:
REMARK  status: ('A' for Active; 'I' for Inactive)
REMARK    1  A    between atoms: C_1  and  C_2
REMARK    2  A    between atoms: C_2  and  C_3
REMARK    3  A    between atoms: C_2  and  C_4
REMARK    4  A    between atoms: C_2  and  N_5
REMARK    5  A    between atoms: C_6  and  C_8
REMARK    6  A    between atoms: C_8  and  N_9
REMARK    7  A    between atoms: C_10  and  C_12
REMARK    8  A    between atoms: N_14  and  C_15
REMARK                            x       y       z     vdW  Elec       q    Type
REMARK                         _______ _______ _______ _____ _____    ______ ____
ROOT
ATOM      1  N   UNL     1       4.059  -0.129  -2.665  0.00  0.00    -0.299 N 
ATOM      2  C   UNL     1       4.881  -0.434  -3.688  0.00  0.00    +0.300 C 
ATOM      3  O   UNL     1       4.486  -1.135  -4.597  0.00  0.00    -0.265 OA
ATOM      4  H   UNL     1       4.375   0.431  -1.939  0.00  0.00    +0.150 HD
ENDROOT
BRANCH   2   5
ATOM      5  C   UNL     1       6.279   0.092  -3.705  0.00  0.00    +0.303 C 
ATOM      6  O   UNL     1       6.675   0.794  -2.797  0.00  0.00    -0.265 OA
ATOM      7  N   UNL     1       7.101  -0.212  -4.729  0.00  0.00    -0.276 N 
ATOM      8  H   UNL     1       6.808  -0.825  -5.421  0.00  0.00    +0.155 HD
BRANCH   7   9
ATOM      9  C   UNL     1       8.377   0.355  -4.793  0.00  0.00    +0.053 A 
ATOM     10  C   UNL     1       9.089   0.601  -3.625  0.00  0.00    +0.040 A 
ATOM     11  C   UNL     1      10.350   1.162  -3.692  0.00  0.00    +0.020 A 
ATOM     12  C   UNL     1      10.904   1.480  -4.920  0.00  0.00    +0.017 A 
ATOM     13  C   UNL     1      10.198   1.237  -6.084  0.00  0.00    +0.023 A 
ATOM     14  C   UNL     1       8.939   0.670  -6.025  0.00  0.00    +0.062 A 
ATOM     15 CL   UNL     1       8.057   0.357  -7.487  0.00  0.00    -0.082 Cl
ATOM     16 BR   UNL     1      11.320   1.498  -2.104  0.00  0.00    -0.050 Br
ENDBRANCH   7   9
ENDBRANCH   2   5
BRANCH   1  17
ATOM     17  C   UNL     1       2.688  -0.645  -2.649  0.00  0.00    +0.200 C 
BRANCH  17  19
ATOM     18  N   UNL     1       0.704  -0.515  -1.177  0.00  0.00    -0.309 N 
ATOM     19  C   UNL     1       1.985  -0.163  -1.406  0.00  0.00    +0.231 C 
ATOM     20  O   UNL     1       2.571   0.542  -0.613  0.00  0.00    -0.274 OA
ATOM     21  H   UNL     1       0.235  -1.079  -1.812  0.00  0.00    +0.149 HD
BRANCH  18  23
ATOM     22  C   UNL     1      -0.010   1.483   0.038  0.00  0.00    +0.031 C 
ATOM     23  C   UNL     1       0.020  -0.046   0.031  0.00  0.00    +0.026 C 
ATOM     24  C   UNL     1       0.768  -0.547   1.268  0.00  0.00    +0.031 C 
ATOM     25  C   UNL     1      -1.412  -0.585   0.048  0.00  0.00    +0.031 C 
ENDBRANCH  18  23
ENDBRANCH  17  19
ENDBRANCH   1  17
TORSDOF 5
