REMARK  Name = ZINC04535336
REMARK  4 active torsions:
REMARK  status: ('A' for Active; 'I' for Inactive)
REMARK    1  A    between atoms: C_4  and  C_7
REMARK    2  A    between atoms: C_9  and  C_24
REMARK    3  A    between atoms: C_13  and  C_15
REMARK    4  A    between atoms: C_18  and  N_21
REMARK                            x       y       z     vdW  Elec       q    Type
REMARK                         _______ _______ _______ _____ _____    ______ ____
ROOT
ATOM      1  C   UNL     1       0.119   2.340   1.898  0.00  0.00    +0.027 C 
ATOM      2  N   UNL     1      -0.659   1.566   1.228  0.00  0.00    -0.300 NA
ATOM      3  C   UNL     1      -0.013   1.086   0.008  0.00  0.00    +0.088 C 
ATOM      4  C   UNL     1       1.436   2.491   1.175  0.00  0.00    -0.024 C 
ATOM      5  C   UNL     1       1.405   3.047  -0.254  0.00  0.00    -0.041 C 
ATOM      6  N   UNL     1       1.326   1.836   0.133  0.00  0.00    +0.406 N 
ATOM      7  H   UNL     1       2.098   1.216  -0.139  0.00  0.00    -0.076 HD
ENDROOT
BRANCH   3   8
ATOM      8  C   UNL     1      -0.758   1.593  -1.200  0.00  0.00    -0.005 A 
ATOM      9  C   UNL     1      -0.063   1.960  -2.337  0.00  0.00    +0.006 A 
ATOM     10  C   UNL     1      -0.747   2.420  -3.447  0.00  0.00    +0.000 A 
ATOM     11  C   UNL     1      -2.125   2.524  -3.417  0.00  0.00    +0.003 A 
ATOM     12  C   UNL     1      -2.821   2.163  -2.279  0.00  0.00    +0.038 A 
ATOM     13  C   UNL     1      -2.138   1.697  -1.169  0.00  0.00    +0.127 A 
ATOM     14  F   UNL     1      -2.818   1.344  -0.056  0.00  0.00    -0.205 F 
ENDBRANCH   3   8
BRANCH   1  18
ATOM     15  C   UNL     1      -0.869   4.198   5.585  0.00  0.00    +0.000 A 
ATOM     16  C   UNL     1      -1.792   3.381   4.957  0.00  0.00    +0.001 A 
ATOM     17  C   UNL     1      -1.477   2.775   3.758  0.00  0.00    +0.009 A 
ATOM     18  C   UNL     1      -0.224   2.986   3.180  0.00  0.00    -0.006 A 
ATOM     19  C   UNL     1       0.705   3.807   3.823  0.00  0.00    +0.009 A 
ATOM     20  C   UNL     1       0.375   4.412   5.018  0.00  0.00    +0.001 A 
ENDBRANCH   1  18
BRANCH   5  21
ATOM     21  C   UNL     1       2.683   3.624  -0.807  0.00  0.00    -0.062 A 
ATOM     22  C   UNL     1       3.677   2.784  -1.272  0.00  0.00    +0.004 A 
ATOM     23  C   UNL     1       4.847   3.313  -1.784  0.00  0.00    +0.033 A 
ATOM     24  C   UNL     1       5.027   4.684  -1.820  0.00  0.00    +0.126 A 
ATOM     25  C   UNL     1       4.036   5.524  -1.349  0.00  0.00    +0.033 A 
ATOM     26  C   UNL     1       2.864   4.994  -0.843  0.00  0.00    +0.004 A 
BRANCH  24  27
ATOM     27  N   UNL     1       6.282   5.251  -2.363  0.00  0.00    +0.056 N 
ATOM     28  O   UNL     1       6.441   6.458  -2.394  0.00  0.00    -0.126 OA
ATOM     29  O   UNL     1       7.155   4.510  -2.778  0.00  0.00    -0.126 OA
ENDBRANCH  24  27
ENDBRANCH   5  21
TORSDOF 4
