REMARK  Name = ZINC45246583
REMARK  8 active torsions:
REMARK  status: ('A' for Active; 'I' for Inactive)
REMARK    1  A    between atoms: C_1  and  C_2
REMARK    2  A    between atoms: C_2  and  O_3
REMARK    3  A    between atoms: O_3  and  C_4
REMARK    4  A    between atoms: C_11  and  C_18
REMARK    5  A    between atoms: C_13  and  O_14
REMARK    6  A    between atoms: C_18  and  O_19
REMARK    7  A    between atoms: O_19  and  C_20
REMARK    8  A    between atoms: C_20  and  C_22
REMARK                            x       y       z     vdW  Elec       q    Type
REMARK                         _______ _______ _______ _____ _____    ______ ____
ROOT
ATOM      1  C   UNL     1       1.716  -8.938  -3.593  0.00  0.00    +0.405 C 
ATOM      2  O   UNL     1       2.050  -8.466  -2.520  0.00  0.00    -0.226 OA
ATOM      3  N   UNL     1       0.461  -9.319  -3.788  0.00  0.00    -0.251 N 
ATOM      4  C   UNL     1      -0.482  -9.062  -2.843  0.00  0.00    +0.040 A 
ATOM      5  C   UNL     1      -1.704  -9.758  -2.866  0.00  0.00    +0.024 A 
ATOM      6  C   UNL     1      -2.654  -9.509  -1.928  0.00  0.00    +0.014 A 
ATOM      7  C   UNL     1      -2.417  -8.551  -0.925  0.00  0.00    +0.024 A 
ATOM      8  C   UNL     1      -3.390  -8.279   0.058  0.00  0.00    +0.007 A 
ATOM      9  C   UNL     1      -3.108  -7.330   1.021  0.00  0.00    +0.095 A 
ATOM     10  C   UNL     1      -1.889  -6.668   1.004  0.00  0.00    +0.285 A 
ATOM     11  O   UNL     1      -0.969  -6.929   0.069  0.00  0.00    -0.425 OA
ATOM     12  C   UNL     1      -1.192  -7.847  -0.894  0.00  0.00    +0.141 A 
ATOM     13  C   UNL     1      -0.230  -8.111  -1.851  0.00  0.00    +0.070 A 
ATOM     14  H   UNL     1       0.215  -9.782  -4.604  0.00  0.00    +0.158 HD
ENDROOT
BRANCH  10  15
ATOM     15  O   UNL     1      -1.627  -5.745   1.948  0.00  0.00    -0.480 OA
ATOM     16  H   UNL     1      -0.756  -5.332   1.864  0.00  0.00    +0.295 HD
ENDBRANCH  10  15
BRANCH   1  17
ATOM     17  O   UNL     1       2.624  -9.074  -4.585  0.00  0.00    -0.450 OA
BRANCH  17  19
ATOM     18  C   UNL     1       4.837  -8.873  -5.537  0.00  0.00    +0.048 C 
ATOM     19  C   UNL     1       3.958  -8.643  -4.306  0.00  0.00    +0.230 C 
ENDBRANCH  17  19
ENDBRANCH   1  17
BRANCH   8  20
ATOM     20  C   UNL     1      -4.709  -9.008   0.059  0.00  0.00    +0.269 C 
BRANCH  20  21
ATOM     21  O   UNL     1      -5.777  -8.061  -0.006  0.00  0.00    -0.456 OA
BRANCH  21  22
ATOM     22  C   UNL     1      -7.031  -8.553  -0.014  0.00  0.00    +0.340 C 
ATOM     23  O   UNL     1      -7.213  -9.753   0.033  0.00  0.00    -0.245 OA
BRANCH  22  24
ATOM     24  C   UNL     1      -8.186  -7.632  -0.079  0.00  0.00    +0.073 A 
ATOM     25  C   UNL     1      -8.732  -7.233  -1.325  0.00  0.00    +0.015 A 
ATOM     26  C   UNL     1      -8.201  -7.691  -2.537  0.00  0.00    +0.011 A 
ATOM     27  C   UNL     1      -8.756  -7.283  -3.713  0.00  0.00    +0.001 A 
ATOM     28  C   UNL     1      -9.847  -6.416  -3.724  0.00  0.00    +0.002 A 
ATOM     29  C   UNL     1     -10.388  -5.953  -2.565  0.00  0.00    +0.028 A 
ATOM     30  C   UNL     1      -9.841  -6.351  -1.331  0.00  0.00    +0.072 A 
ATOM     31  N   UNL     1     -10.350  -5.912  -0.179  0.00  0.00    -0.251 NA
ATOM     32  C   UNL     1      -9.859  -6.267   0.988  0.00  0.00    +0.046 A 
ATOM     33  C   UNL     1      -8.772  -7.136   1.079  0.00  0.00    -0.012 A 
ATOM     34  C   UNL     1      -8.426  -7.373   2.532  0.00  0.00    +0.038 C 
ATOM     35  C   UNL     1      -9.123  -6.233   3.304  0.00  0.00    +0.011 C 
ATOM     36  C   UNL     1     -10.302  -5.872   2.383  0.00  0.00    +0.056 C 
ENDBRANCH  22  24
ENDBRANCH  21  22
ENDBRANCH  20  21
ENDBRANCH   8  20
TORSDOF 7
