REMARK  Name = ZINC64757472
REMARK  9 active torsions:
REMARK  status: ('A' for Active; 'I' for Inactive)
REMARK    1  A    between atoms: C_1  and  C_2
REMARK    2  A    between atoms: C_2  and  C_3
REMARK    3  A    between atoms: C_6  and  N_9
REMARK    4  A    between atoms: N_9  and  S_10
REMARK    5  A    between atoms: S_10  and  C_13
REMARK    6  A    between atoms: C_18  and  N_19
REMARK    7  A    between atoms: N_19  and  C_20
REMARK    8  A    between atoms: C_20  and  C_22
REMARK    9  A    between atoms: C_20  and  C_23
REMARK                            x       y       z     vdW  Elec       q    Type
REMARK                         _______ _______ _______ _____ _____    ______ ____
ROOT
ATOM      1  C   UNL     1       4.952  -1.164  -3.835  0.00  0.00    +0.146 A 
ATOM      2  C   UNL     1       6.127  -1.873  -4.012  0.00  0.00    +0.033 A 
ATOM      3  C   UNL     1       7.047  -1.902  -2.973  0.00  0.00    +0.019 A 
ATOM      4  C   UNL     1       6.766  -1.227  -1.802  0.00  0.00    +0.084 A 
ATOM      5  N   UNL     1       5.637  -0.558  -1.661  0.00  0.00    -0.348 N 
ATOM      6  C   UNL     1       4.737  -0.502  -2.631  0.00  0.00    +0.124 A 
ATOM      7  H   UNL     1       5.464  -0.093  -0.828  0.00  0.00    +0.167 HD
ENDROOT
BRANCH   1   8
ATOM      8  S   UNL     1       3.749  -1.093  -5.120  0.00  0.00    +0.076 S 
ATOM      9  O   UNL     1       2.501  -1.425  -4.527  0.00  0.00    -0.150 OA
ATOM     10  O   UNL     1       4.286  -1.816  -6.220  0.00  0.00    -0.150 OA
BRANCH   8  11
ATOM     11  N   UNL     1       3.639   0.487  -5.602  0.00  0.00    -0.216 N 
ATOM     12  H   UNL     1       2.828   0.991  -5.430  0.00  0.00    +0.174 HD
BRANCH  11  16
ATOM     13  C   UNL     1       6.842   2.300  -7.549  0.00  0.00    -0.048 A 
ATOM     14  C   UNL     1       5.557   2.466  -8.032  0.00  0.00    +0.005 A 
ATOM     15  C   UNL     1       4.492   1.867  -7.389  0.00  0.00    +0.025 A 
ATOM     16  C   UNL     1       4.713   1.095  -6.255  0.00  0.00    +0.048 A 
ATOM     17  C   UNL     1       6.005   0.930  -5.772  0.00  0.00    +0.025 A 
ATOM     18  C   UNL     1       7.066   1.528  -6.424  0.00  0.00    +0.005 A 
BRANCH  13  20
ATOM     19  C   UNL     1       8.471   2.062  -9.403  0.00  0.00    +0.009 C 
ATOM     20  C   UNL     1       8.001   2.956  -8.254  0.00  0.00    +0.032 C 
ENDBRANCH  13  20
ENDBRANCH  11  16
ENDBRANCH   8  11
ENDBRANCH   1   8
BRANCH   6  21
ATOM     21  N   UNL     1       3.564   0.220  -2.442  0.00  0.00    -0.322 N 
ATOM     22  H   UNL     1       2.876   0.214  -3.125  0.00  0.00    +0.148 HD
BRANCH  21  23
ATOM     23  C   UNL     1       3.368   0.988  -1.210  0.00  0.00    +0.099 C 
ATOM     24  C   UNL     1       3.970   2.384  -1.378  0.00  0.00    +0.033 C 
BRANCH  23  25
ATOM     25  C   UNL     1       1.893   1.109  -0.923  0.00  0.00    -0.028 A 
ATOM     26  C   UNL     1       0.999   1.287  -1.962  0.00  0.00    +0.005 A 
ATOM     27  C   UNL     1      -0.353   1.398  -1.699  0.00  0.00    +0.000 A 
ATOM     28  C   UNL     1      -0.812   1.330  -0.397  0.00  0.00    +0.000 A 
ATOM     29  C   UNL     1       0.082   1.150   0.642  0.00  0.00    +0.000 A 
ATOM     30  C   UNL     1       1.434   1.035   0.379  0.00  0.00    +0.005 A 
ENDBRANCH  23  25
ENDBRANCH  21  23
ENDBRANCH   6  21
TORSDOF 7
