REMARK  Name = ZINC12217807
REMARK  6 active torsions:
REMARK  status: ('A' for Active; 'I' for Inactive)
REMARK    1  A    between atoms: C_1  and  C_2
REMARK    2  A    between atoms: C_2  and  C_17
REMARK    3  A    between atoms: N_5  and  C_9
REMARK    4  A    between atoms: C_9  and  C_10
REMARK    5  A    between atoms: C_22  and  C_23
REMARK    6  A    between atoms: C_22  and  N_62
REMARK                            x       y       z     vdW  Elec       q    Type
REMARK                         _______ _______ _______ _____ _____    ______ ____
ROOT
ATOM      1  C   UNL     1      -1.008  -1.847  -4.554  0.00  0.00    +0.018 C 
ATOM      2  C   UNL     1      -0.083  -0.653  -4.306  0.00  0.00    -0.013 C 
ATOM      3  C   UNL     1       0.919  -0.543  -5.457  0.00  0.00    -0.078 C 
ATOM      4  C   UNL     1      -0.662  -1.529  -7.006  0.00  0.00    -0.078 C 
ATOM      5  C   UNL     1      -1.713  -1.668  -5.902  0.00  0.00    -0.013 C 
ATOM      6  N   UNL     1       0.179  -0.347  -6.722  0.00  0.00    +0.383 N 
ATOM      7  H   UNL     1      -0.425   0.477  -6.630  0.00  0.00    -0.081 HD
ENDROOT
BRANCH   1   9
ATOM      8  C   UNL     1      -3.038  -3.066  -3.700  0.00  0.00    +0.042 C 
ATOM      9  C   UNL     1      -2.052  -1.925  -3.438  0.00  0.00    +0.112 C 
ATOM     10  C   UNL     1      -1.380  -2.100  -2.091  0.00  0.00    +0.247 C 
ATOM     11  O   UNL     1      -0.677  -3.023  -1.737  0.00  0.00    -0.273 OA
ATOM     12  N   UNL     1      -1.726  -1.017  -1.367  0.00  0.00    -0.220 N 
ATOM     13  C   UNL     1      -2.519  -0.193  -2.062  0.00  0.00    +0.310 C 
ATOM     14  O   UNL     1      -2.965   0.848  -1.620  0.00  0.00    -0.252 OA
ATOM     15  N   UNL     1      -2.766  -0.643  -3.305  0.00  0.00    -0.285 N 
ATOM     16  H   UNL     1      -3.311  -0.211  -3.981  0.00  0.00    +0.151 HD
BRANCH  12  17
ATOM     17  C   UNL     1      -1.293  -0.775   0.011  0.00  0.00    +0.153 C 
BRANCH  17  18
ATOM     18  C   UNL     1       0.002  -0.004   0.002  0.00  0.00    -0.029 A 
ATOM     19  C   UNL     1      -0.017   1.378   0.010  0.00  0.00    +0.008 A 
ATOM     20  C   UNL     1       1.170   2.086   0.002  0.00  0.00    +0.038 A 
ATOM     21  C   UNL     1       2.379   1.410  -0.013  0.00  0.00    +0.123 A 
ATOM     22  C   UNL     1       2.396   0.026  -0.021  0.00  0.00    +0.038 A 
ATOM     23  C   UNL     1       1.208  -0.680  -0.013  0.00  0.00    +0.008 A 
ATOM     24  F   UNL     1       3.540   2.101  -0.020  0.00  0.00    -0.205 F 
ENDBRANCH  17  18
ENDBRANCH  12  17
ENDBRANCH   1   9
BRANCH   6  25
ATOM     25  C   UNL     1       1.128  -0.125  -7.833  0.00  0.00    -0.024 C 
BRANCH  25  26
ATOM     26  C   UNL     1       2.148   0.901  -7.413  0.00  0.00    +0.009 A 
ATOM     27  C   UNL     1       3.370   0.640  -6.905  0.00  0.00    +0.021 A 
ATOM     28  C   UNL     1       3.996   1.877  -6.652  0.00  0.00    +0.020 A 
ATOM     29  C   UNL     1       3.132   2.849  -7.006  0.00  0.00    +0.093 A 
ATOM     30  N   UNL     1       1.993   2.257  -7.475  0.00  0.00    -0.307 N 
ATOM     31  C   UNL     1       0.858   2.928  -7.941  0.00  0.00    +0.138 A 
ATOM     32  C   UNL     1       0.832   4.317  -7.944  0.00  0.00    +0.047 A 
ATOM     33  C   UNL     1      -0.295   4.968  -8.412  0.00  0.00    +0.005 A 
ATOM     34  C   UNL     1      -1.367   4.203  -8.853  0.00  0.00    +0.020 A 
ATOM     35  C   UNL     1      -1.274   2.825  -8.816  0.00  0.00    +0.113 A 
ATOM     36  N   UNL     1      -0.183   2.233  -8.369  0.00  0.00    -0.238 NA
ENDBRANCH  25  26
ENDBRANCH   6  25
TORSDOF 5
