REMARK  Name = ZINC66730900
REMARK  9 active torsions:
REMARK  status: ('A' for Active; 'I' for Inactive)
REMARK    1  A    between atoms: C_1  and  C_2
REMARK    2  A    between atoms: C_4  and  N_9
REMARK    3  A    between atoms: C_6  and  C_8
REMARK    4  A    between atoms: C_13  and  O_16
REMARK    5  A    between atoms: O_16  and  C_17
REMARK    6  A    between atoms: C_17  and  C_19
REMARK    7  A    between atoms: C_19  and  C_21
REMARK    8  A    between atoms: C_19  and  N_26
REMARK    9  A    between atoms: C_27  and  C_29
REMARK                            x       y       z     vdW  Elec       q    Type
REMARK                         _______ _______ _______ _____ _____    ______ ____
ROOT
ATOM      1  N   UNL     1       1.072  -2.690  -2.052  0.00  0.00    -0.312 N 
ATOM      2  C   UNL     1       0.961  -4.155  -2.020  0.00  0.00    +0.107 C 
ATOM      3  C   UNL     1       1.911  -4.744  -3.067  0.00  0.00    +0.023 C 
ATOM      4  C   UNL     1       1.610  -4.121  -4.432  0.00  0.00    +0.048 C 
ATOM      5  C   UNL     1       1.841  -2.609  -4.367  0.00  0.00    +0.194 C 
ATOM      6  C   UNL     1       0.884  -1.995  -3.333  0.00  0.00    +0.151 C 
ENDROOT
BRANCH   1  10
ATOM      7  C   UNL     1       1.738   1.588   0.290  0.00  0.00    +0.063 C 
ATOM      8  C   UNL     1       1.668   0.083   0.261  0.00  0.00    +0.017 A 
ATOM      9  C   UNL     1       1.396  -0.582  -0.918  0.00  0.00    +0.064 A 
ATOM     10  C   UNL     1       1.342  -1.977  -0.896  0.00  0.00    +0.125 A 
ATOM     11  N   UNL     1       1.554  -2.610   0.254  0.00  0.00    -0.220 NA
ATOM     12  C   UNL     1       1.811  -1.935   1.356  0.00  0.00    +0.106 A 
ATOM     13  N   UNL     1       1.874  -0.619   1.367  0.00  0.00    -0.347 N 
ATOM     14  C   UNL     1       2.046  -2.690   2.639  0.00  0.00    +0.086 C 
ATOM     15  H   UNL     1       2.069  -0.157   2.197  0.00  0.00    +0.167 HD
ENDBRANCH   1  10
BRANCH   5  16
ATOM     16  O   UNL     1       1.590  -2.032  -5.650  0.00  0.00    -0.458 OA
BRANCH  16  17
ATOM     17  C   UNL     1       2.630  -1.949  -6.494  0.00  0.00    +0.328 C 
ATOM     18  O   UNL     1       3.717  -2.352  -6.155  0.00  0.00    -0.249 OA
BRANCH  17  19
ATOM     19  C   UNL     1       2.441  -1.352  -7.865  0.00  0.00    +0.185 C 
BRANCH  19  20
ATOM     20  C   UNL     1       1.958   0.093  -7.730  0.00  0.00    +0.020 C 
ATOM     21  C   UNL     1       0.527   0.120  -7.154  0.00  0.00    +0.006 C 
ATOM     22  C   UNL     1      -0.162   1.289  -7.902  0.00  0.00    +0.000 C 
ATOM     23  C   UNL     1       0.414   1.164  -9.334  0.00  0.00    +0.000 C 
ATOM     24  C   UNL     1       1.886   0.757  -9.116  0.00  0.00    +0.006 C 
ENDBRANCH  19  20
BRANCH  19  25
ATOM     25  N   UNL     1       3.716  -1.375  -8.588  0.00  0.00    -0.302 N 
ATOM     26  C   UNL     1       4.075  -2.471  -9.284  0.00  0.00    +0.211 C 
ATOM     27  O   UNL     1       3.390  -3.471  -9.239  0.00  0.00    -0.276 OA
ATOM     28  C   UNL     1       5.330  -2.455 -10.119  0.00  0.00    +0.109 C 
ATOM     29  H   UNL     1       4.300  -0.601  -8.565  0.00  0.00    +0.150 HD
ENDBRANCH  19  25
ENDBRANCH  17  19
ENDBRANCH  16  17
ENDBRANCH   5  16
TORSDOF 6
