REMARK  Name = ZINC19507856
REMARK  4 active torsions:
REMARK  status: ('A' for Active; 'I' for Inactive)
REMARK    1  A    between atoms: C_3  and  C_16
REMARK    2  A    between atoms: C_6  and  C_7
REMARK    3  A    between atoms: C_7  and  N_8
REMARK    4  A    between atoms: C_16  and  N_18
REMARK                            x       y       z     vdW  Elec       q    Type
REMARK                         _______ _______ _______ _____ _____    ______ ____
ROOT
ATOM      1  C   UNL     1      -0.357   2.780   1.817  0.00  0.00    +0.006 A 
ATOM      2  C   UNL     1      -1.002   3.234   2.948  0.00  0.00    +0.010 A 
ATOM      3  C   UNL     1      -2.015   2.465   3.526  0.00  0.00    +0.003 A 
ATOM      4  C   UNL     1      -2.370   1.244   2.950  0.00  0.00    +0.010 A 
ATOM      5  C   UNL     1      -1.720   0.805   1.816  0.00  0.00    +0.006 A 
ATOM      6  C   UNL     1      -0.718   1.572   1.248  0.00  0.00    -0.026 A 
ENDROOT
BRANCH   3   7
ATOM      7  C   UNL     1      -2.706   2.942   4.740  0.00  0.00    +0.077 C 
ATOM      8  S   UNL     1      -3.219   1.821   5.929  0.00  0.00    -0.035 S 
BRANCH   7   9
ATOM      9  N   UNL     1      -2.934   4.259   4.913  0.00  0.00    -0.352 N 
ATOM     10  H   UNL     1      -3.450   4.614   5.817  0.00  0.00    +0.143 HD
ATOM     11  H   UNL     1      -2.605   4.979   4.149  0.00  0.00    +0.143 HD
ENDBRANCH   7   9
ENDBRANCH   3   7
BRANCH   6  12
ATOM     12  C   UNL     1      -0.013   1.086   0.008  0.00  0.00    +0.182 C 
BRANCH  12  13
ATOM     13  N   UNL     1      -0.721   1.571  -1.179  0.00  0.00    -0.222 N 
ATOM     14  C   UNL     1      -0.379   2.756  -1.718  0.00  0.00    +0.268 A 
ATOM     15  O   UNL     1       0.512   3.416  -1.219  0.00  0.00    -0.266 OA
ATOM     16  C   UNL     1      -1.087   3.256  -2.915  0.00  0.00    +0.077 A 
ATOM     17  C   UNL     1      -2.071   2.511  -3.451  0.00  0.00    +0.079 A 
ATOM     18  C   UNL     1      -2.413   1.216  -2.827  0.00  0.00    +0.287 A 
ATOM     19  O   UNL     1      -3.298   0.529  -3.297  0.00  0.00    -0.264 OA
ATOM     20  N   UNL     1      -1.740   0.794  -1.740  0.00  0.00    -0.126 NA
ENDBRANCH  12  13
ENDBRANCH   6  12
TORSDOF 4
