REMARK  Name = ZINC29221590
REMARK  11 active torsions:
REMARK  status: ('A' for Active; 'I' for Inactive)
REMARK    1  A    between atoms: C_1  and  C_2
REMARK    2  A    between atoms: C_2  and  C_3
REMARK    3  A    between atoms: C_3  and  N_4
REMARK    4  A    between atoms: C_5  and  C_7
REMARK    5  A    between atoms: C_7  and  N_8
REMARK    6  A    between atoms: C_11  and  N_14
REMARK    7  A    between atoms: C_15  and  C_17
REMARK    8  A    between atoms: C_17  and  C_18
REMARK    9  A    between atoms: C_18  and  C_20
REMARK   10  A    between atoms: C_18  and  N_25
REMARK   11  A    between atoms: C_26  and  C_28
REMARK                            x       y       z     vdW  Elec       q    Type
REMARK                         _______ _______ _______ _____ _____    ______ ____
ROOT
ATOM      1  N   UNL     1       1.984   7.660  -2.443  0.00  0.00    -0.313 N 
ATOM      2  C   UNL     1       1.406   7.115  -1.354  0.00  0.00    +0.215 C 
ATOM      3  O   UNL     1       1.143   7.810  -0.396  0.00  0.00    -0.276 OA
ATOM      4  H   UNL     1       2.222   7.029  -3.313  0.00  0.00    +0.149 HD
ENDROOT
BRANCH   1   8
ATOM      5  N   UNL     1       2.511  11.556  -3.958  0.00  0.00    +0.385 N 
ATOM      6  C   UNL     1       3.722  10.851  -3.519  0.00  0.00    -0.076 C 
ATOM      7  C   UNL     1       3.442   9.348  -3.451  0.00  0.00    +0.003 C 
ATOM      8  C   UNL     1       2.295   9.091  -2.469  0.00  0.00    +0.069 C 
ATOM      9  C   UNL     1       1.060   9.875  -2.923  0.00  0.00    +0.003 C 
ATOM     10  C   UNL     1       1.409  11.363  -3.006  0.00  0.00    -0.076 C 
ATOM     11  H   UNL     1       2.201  11.123  -4.921  0.00  0.00    -0.081 HD
BRANCH   5  12
ATOM     12  C   UNL     1       2.780  12.984  -4.168  0.00  0.00    +0.019 C 
BRANCH  12  14
ATOM     13  N   UNL     1       4.215  14.371  -5.630  0.00  0.00    -0.317 N 
ATOM     14  C   UNL     1       3.725  13.152  -5.330  0.00  0.00    +0.196 C 
ATOM     15  O   UNL     1       4.044  12.189  -5.996  0.00  0.00    -0.278 OA
ATOM     16  H   UNL     1       3.926  15.243  -5.027  0.00  0.00    +0.149 HD
BRANCH  13  17
ATOM     17  C   UNL     1       5.134  14.533  -6.760  0.00  0.00    +0.104 C 
BRANCH  17  19
ATOM     18  C   UNL     1       6.497  16.174  -8.062  0.00  0.00    +0.005 C 
ATOM     19  C   UNL     1       5.538  16.004  -6.882  0.00  0.00    +0.015 C 
ENDBRANCH  17  19
ENDBRANCH  13  17
ENDBRANCH  12  14
ENDBRANCH   5  12
ENDBRANCH   1   8
BRANCH   2  20
ATOM     20  C   UNL     1       1.086   5.643  -1.328  0.00  0.00    +0.123 C 
BRANCH  20  21
ATOM     21  C   UNL     1       0.440   5.285   0.012  0.00  0.00    +0.118 C 
BRANCH  21  22
ATOM     22  C   UNL     1       0.009   3.841  -0.007  0.00  0.00    +0.010 A 
ATOM     23  C   UNL     1      -1.226   3.322  -0.219  0.00  0.00    +0.013 A 
ATOM     24  C   UNL     1      -1.388   1.950  -0.195  0.00  0.00    +0.008 A 
ATOM     25  C   UNL     1      -0.311   1.164   0.049  0.00  0.00    +0.045 A 
ATOM     26  S   UNL     1       0.990   2.371   0.243  0.00  0.00    -0.100 S 
ENDBRANCH  21  22
BRANCH  21  27
ATOM     27  N   UNL     1       1.409   5.491   1.092  0.00  0.00    -0.308 N 
ATOM     28  C   UNL     1       2.569   4.804   1.095  0.00  0.00    +0.210 C 
ATOM     29  O   UNL     1       2.810   4.016   0.206  0.00  0.00    -0.276 OA
ATOM     30  C   UNL     1       3.566   5.016   2.206  0.00  0.00    +0.109 C 
ATOM     31  H   UNL     1       1.190   6.205   1.899  0.00  0.00    +0.149 HD
ENDBRANCH  21  27
ENDBRANCH  20  21
ENDBRANCH   2  20
TORSDOF 9
