REMARK  Name = ZINC01265656
REMARK  12 active torsions:
REMARK  status: ('A' for Active; 'I' for Inactive)
REMARK    1  A    between atoms: C_1  and  C_2
REMARK    2  A    between atoms: N_8  and  C_9
REMARK    3  A    between atoms: C_9  and  C_10
REMARK    4  A    between atoms: C_15  and  C_23
REMARK    5  A    between atoms: C_17  and  C_21
REMARK    6  A    between atoms: C_18  and  N_20
REMARK    7  A    between atoms: C_26  and  O_33
REMARK    8  A    between atoms: C_27  and  O_31
REMARK    9  A    between atoms: C_28  and  O_29
REMARK   10  A    between atoms: O_29  and  C_30
REMARK   11  A    between atoms: O_31  and  C_32
REMARK   12  A    between atoms: O_33  and  C_34
REMARK                            x       y       z     vdW  Elec       q    Type
REMARK                         _______ _______ _______ _____ _____    ______ ____
ROOT
ATOM      1  C   UNL     1       5.255  -2.201   1.353  0.00  0.00    +0.064 C 
ATOM      2  C   UNL     1       3.905  -1.631   0.998  0.00  0.00    +0.023 A 
ATOM      3  C   UNL     1       3.802  -0.330   0.652  0.00  0.00    +0.068 A 
ATOM      4  C   UNL     1       2.542   0.208   0.319  0.00  0.00    +0.141 A 
ATOM      5  C   UNL     1       1.435  -0.613   0.353  0.00  0.00    +0.072 A 
ATOM      6  C   UNL     1       1.590  -1.956   0.718  0.00  0.00    +0.260 A 
ATOM      7  O   UNL     1       0.619  -2.695   0.753  0.00  0.00    -0.267 OA
ATOM      8  N   UNL     1       2.810  -2.434   1.029  0.00  0.00    -0.305 N 
ATOM      9  C   UNL     1       0.072  -0.081   0.004  0.00  0.00    +0.107 C 
ATOM     10  C   UNL     1       0.079   1.422   0.038  0.00  0.00    +0.098 C 
ATOM     11  C   UNL     1       1.239   2.120   0.021  0.00  0.00    +0.199 C 
ATOM     12  O   UNL     1       2.436   1.508  -0.028  0.00  0.00    -0.441 OA
ENDROOT
BRANCH   9  13
ATOM     13  C   UNL     1      -0.304  -0.547  -1.379  0.00  0.00    +0.011 A 
ATOM     14  C   UNL     1       0.471  -0.185  -2.465  0.00  0.00    +0.012 A 
ATOM     15  C   UNL     1       0.134  -0.615  -3.734  0.00  0.00    +0.050 A 
ATOM     16  C   UNL     1      -0.992  -1.403  -3.925  0.00  0.00    +0.165 A 
ATOM     17  C   UNL     1      -1.777  -1.764  -2.837  0.00  0.00    +0.204 A 
ATOM     18  C   UNL     1      -1.431  -1.335  -1.561  0.00  0.00    +0.169 A 
BRANCH  18  19
ATOM     19  O   UNL     1      -2.196  -1.685  -0.493  0.00  0.00    -0.491 OA
ATOM     20  C   UNL     1      -3.206  -0.759  -0.086  0.00  0.00    +0.277 C 
ENDBRANCH  18  19
BRANCH  17  21
ATOM     21  O   UNL     1      -2.882  -2.538  -3.020  0.00  0.00    -0.488 OA
ATOM     22  C   UNL     1      -4.086  -1.869  -3.400  0.00  0.00    +0.277 C 
ENDBRANCH  17  21
BRANCH  16  23
ATOM     23  O   UNL     1      -1.326  -1.821  -5.175  0.00  0.00    -0.491 OA
ATOM     24  C   UNL     1      -0.473  -1.412  -6.246  0.00  0.00    +0.277 C 
ENDBRANCH  16  23
ENDBRANCH   9  13
BRANCH  11  25
ATOM     25  N   UNL     1       1.193   3.491   0.053  0.00  0.00    -0.328 N 
ATOM     26  H   UNL     1       0.337   3.947   0.087  0.00  0.00    +0.145 HD
ATOM     27  H   UNL     1       2.015   4.005   0.041  0.00  0.00    +0.145 HD
ENDBRANCH  11  25
BRANCH  10  28
ATOM     28  C   UNL     1      -1.165   2.130   0.084  0.00  0.00    +0.101 C 
ATOM     29  N   UNL     1      -2.152   2.691   0.120  0.00  0.00    -0.191 NA
ENDBRANCH  10  28
BRANCH   8  30
ATOM     30  C   UNL     1       2.957  -3.841   1.409  0.00  0.00    +0.199 C 
BRANCH  30  31
ATOM     31  C   UNL     1       2.795  -3.979   2.900  0.00  0.00    +0.125 A 
ATOM     32  C   UNL     1       1.636  -4.194   3.549  0.00  0.00    +0.046 A 
ATOM     33  C   UNL     1       1.944  -4.259   4.927  0.00  0.00    +0.041 A 
ATOM     34  C   UNL     1       3.271  -4.072   5.039  0.00  0.00    +0.195 A 
ATOM     35  O   UNL     1       3.781  -3.903   3.808  0.00  0.00    -0.466 OA
ENDBRANCH  30  31
ENDBRANCH   8  30
TORSDOF 8
