REMARK  Name = ZINC09993486
REMARK  5 active torsions:
REMARK  status: ('A' for Active; 'I' for Inactive)
REMARK    1  A    between atoms: C_1  and  C_2
REMARK    2  A    between atoms: C_2  and  C_31
REMARK    3  A    between atoms: C_6  and  C_20
REMARK    4  A    between atoms: C_8  and  C_18
REMARK    5  A    between atoms: C_9  and  N_17
REMARK                            x       y       z     vdW  Elec       q    Type
REMARK                         _______ _______ _______ _____ _____    ______ ____
ROOT
ATOM      1  C   UNL     1       0.118   1.847  -0.015  0.00  0.00    +0.011 C 
ATOM      2  C   UNL     1       0.016   0.321   0.024  0.00  0.00    -0.023 C 
ATOM      3  C   UNL     1       0.700  -0.273  -1.209  0.00  0.00    +0.058 C 
ATOM      4  C   UNL     1       2.162   0.102  -1.207  0.00  0.00    +0.028 C 
ATOM      5  C   UNL     1       2.831   0.283  -0.050  0.00  0.00    +0.025 C 
ATOM      6  C   UNL     1       4.292   0.658  -0.050  0.00  0.00    +0.099 C 
ATOM      7  C   UNL     1       4.926   0.370  -1.378  0.00  0.00    +0.077 C 
ATOM      8  C   UNL     1       4.172   0.184  -2.491  0.00  0.00    +0.109 C 
ATOM      9  N   UNL     1       2.798   0.250  -2.414  0.00  0.00    -0.229 N 
ATOM     10  C   UNL     1       2.051   0.468  -3.565  0.00  0.00    +0.223 A 
ATOM     11  H   UNL     1       1.173   2.330  -3.257  0.00  0.00    +0.192 HD
ATOM     12  N   UNL     1       1.950  -0.351  -4.588  0.00  0.00    -0.201 NA
ATOM     13  C   UNL     1       1.152   0.182  -5.514  0.00  0.00    +0.246 A 
ATOM     14  N   UNL     1       0.732   1.347  -5.097  0.00  0.00    -0.160 NA
ATOM     15  N   UNL     1       1.298   1.556  -3.829  0.00  0.00    -0.246 N 
ATOM     16  C   UNL     1       2.186   0.134   1.191  0.00  0.00    +0.162 C 
ATOM     17  O   UNL     1       2.822   0.286   2.215  0.00  0.00    -0.292 OA
ATOM     18  C   UNL     1       0.725  -0.211   1.274  0.00  0.00    +0.086 C 
ATOM     19  C   UNL     1      -1.456  -0.095   0.051  0.00  0.00    +0.011 C 
ENDROOT
BRANCH   6  20
ATOM     20  C   UNL     1       4.424   2.129   0.251  0.00  0.00    -0.016 A 
ATOM     21  C   UNL     1       3.830   3.060  -0.581  0.00  0.00    +0.007 A 
ATOM     22  C   UNL     1       3.951   4.409  -0.306  0.00  0.00    +0.020 A 
ATOM     23  C   UNL     1       4.667   4.828   0.802  0.00  0.00    +0.042 A 
ATOM     24  C   UNL     1       5.260   3.897   1.635  0.00  0.00    +0.040 A 
ATOM     25  C   UNL     1       5.135   2.546   1.361  0.00  0.00    +0.046 A 
ATOM     26 CL   UNL     1       5.875   1.376   2.409  0.00  0.00    -0.083 Cl
ATOM     27 CL   UNL     1       4.819   6.523   1.147  0.00  0.00    -0.083 Cl
ENDBRANCH   6  20
BRANCH   8  28
ATOM     28  N   UNL     1       4.780  -0.070  -3.697  0.00  0.00    -0.345 N 
ATOM     29  H   UNL     1       5.746  -0.029  -3.772  0.00  0.00    +0.144 HD
ATOM     30  H   UNL     1       4.242  -0.292  -4.474  0.00  0.00    +0.144 HD
ENDBRANCH   8  28
BRANCH   7  31
ATOM     31  C   UNL     1       6.353   0.289  -1.473  0.00  0.00    +0.099 C 
ATOM     32  N   UNL     1       7.485   0.226  -1.549  0.00  0.00    -0.191 NA
ENDBRANCH   7  31
TORSDOF 3
