REMARK  Name = ZINC36586998
REMARK  19 active torsions:
REMARK  status: ('A' for Active; 'I' for Inactive)
REMARK    1  A    between atoms: C_1  and  C_2
REMARK    2  A    between atoms: C_2  and  C_3
REMARK    3  A    between atoms: C_2  and  C_4
REMARK    4  A    between atoms: C_2  and  C_5
REMARK    5  A    between atoms: C_5  and  C_6
REMARK    6  A    between atoms: C_6  and  C_7
REMARK    7  A    between atoms: C_6  and  C_8
REMARK    8  A    between atoms: C_6  and  N_9
REMARK    9  A    between atoms: C_10  and  C_12
REMARK   10  A    between atoms: C_12  and  C_14
REMARK   11  A    between atoms: C_12  and  N_24
REMARK   12  A    between atoms: C_16  and  N_21
REMARK   13  A    between atoms: N_24  and  C_35
REMARK   14  A    between atoms: C_25  and  C_27
REMARK   15  A    between atoms: C_31  and  O_34
REMARK   16  A    between atoms: C_32  and  O_33
REMARK   17  A    between atoms: C_35  and  C_36
REMARK   18  A    between atoms: C_35  and  C_37
REMARK   19  A    between atoms: C_35  and  C_38
REMARK                            x       y       z     vdW  Elec       q    Type
REMARK                         _______ _______ _______ _____ _____    ______ ____
ROOT
ATOM      1  C   UNL     1       4.431   1.074  -2.253  0.00  0.00    +0.194 C 
ENDROOT
BRANCH   1   2
ATOM      2  C   UNL     1       4.170   0.380  -3.565  0.00  0.00    +0.002 A 
ATOM      3  C   UNL     1       5.141  -0.429  -4.125  0.00  0.00    +0.040 A 
ATOM      4  C   UNL     1       4.901  -1.065  -5.328  0.00  0.00    +0.127 A 
ATOM      5  C   UNL     1       3.689  -0.893  -5.972  0.00  0.00    +0.034 A 
ATOM      6  C   UNL     1       2.718  -0.086  -5.413  0.00  0.00    +0.022 A 
ATOM      7  C   UNL     1       2.955   0.547  -4.206  0.00  0.00    +0.047 A 
ATOM      8 CL   UNL     1       1.732   1.556  -3.499  0.00  0.00    -0.083 Cl
BRANCH   4   9
ATOM      9  N   UNL     1       5.941  -1.931  -5.928  0.00  0.00    +0.056 N 
ATOM     10  O   UNL     1       7.001  -2.081  -5.365  0.00  0.00    -0.126 OA
ATOM     11  O   UNL     1       5.732  -2.487  -6.980  0.00  0.00    -0.126 OA
ENDBRANCH   4   9
ENDBRANCH   1   2
BRANCH   1  13
ATOM     12  N   UNL     1       2.790  -0.222  -0.932  0.00  0.00    -0.308 N 
ATOM     13  C   UNL     1       4.072   0.152  -1.116  0.00  0.00    +0.239 C 
ATOM     14  O   UNL     1       4.935  -0.252  -0.367  0.00  0.00    -0.273 OA
ATOM     15  H   UNL     1       2.095   0.128  -1.511  0.00  0.00    +0.149 HD
BRANCH  12  16
ATOM     16  C   UNL     1       2.447  -1.157   0.142  0.00  0.00    +0.030 C 
ATOM     17  C   UNL     1       2.891  -0.576   1.486  0.00  0.00    +0.031 C 
ATOM     18  C   UNL     1       3.159  -2.491  -0.097  0.00  0.00    +0.031 C 
BRANCH  16  19
ATOM     19  C   UNL     1       0.934  -1.383   0.158  0.00  0.00    +0.031 C 
BRANCH  19  21
ATOM     20  C   UNL     1       0.095   0.351  -1.434  0.00  0.00    +0.010 C 
ATOM     21  C   UNL     1       0.216  -0.036   0.042  0.00  0.00    -0.036 C 
ATOM     22  C   UNL     1       1.017   1.034   0.785  0.00  0.00    +0.010 C 
ATOM     23  C   UNL     1      -1.180  -0.147   0.656  0.00  0.00    +0.010 C 
ENDBRANCH  19  21
ENDBRANCH  16  19
ENDBRANCH  12  16
ENDBRANCH   1  13
BRANCH   1  24
ATOM     24  N   UNL     1       5.850   1.429  -2.163  0.00  0.00    -0.277 N 
ATOM     25  C   UNL     1       6.766   0.480  -1.890  0.00  0.00    +0.252 C 
ATOM     26  O   UNL     1       7.950   0.758  -1.892  0.00  0.00    -0.270 OA
BRANCH  25  27
ATOM     27  C   UNL     1       6.334  -0.898  -1.587  0.00  0.00    +0.082 A 
ATOM     28  C   UNL     1       5.080  -1.349  -2.011  0.00  0.00    +0.017 A 
ATOM     29  C   UNL     1       4.680  -2.636  -1.727  0.00  0.00    +0.005 A 
ATOM     30  C   UNL     1       5.513  -3.490  -1.023  0.00  0.00    +0.049 A 
ATOM     31  C   UNL     1       6.757  -3.057  -0.596  0.00  0.00    +0.159 A 
ATOM     32  C   UNL     1       7.178  -1.762  -0.880  0.00  0.00    +0.171 A 
BRANCH  32  33
ATOM     33  O   UNL     1       8.400  -1.336  -0.469  0.00  0.00    -0.503 OA
ATOM     34  H   UNL     1       8.401  -0.934   0.411  0.00  0.00    +0.292 HD
ENDBRANCH  32  33
BRANCH  31  35
ATOM     35  O   UNL     1       7.570  -3.900   0.095  0.00  0.00    -0.503 OA
ATOM     36  H   UNL     1       8.162  -4.423  -0.464  0.00  0.00    +0.292 HD
ENDBRANCH  31  35
ENDBRANCH  25  27
BRANCH  24  37
ATOM     37  C   UNL     1       6.272   2.817  -2.371  0.00  0.00    +0.030 C 
ATOM     38  C   UNL     1       5.038   3.704  -2.546  0.00  0.00    +0.031 C 
ATOM     39  C   UNL     1       7.075   3.292  -1.159  0.00  0.00    +0.031 C 
ATOM     40  C   UNL     1       7.144   2.902  -3.626  0.00  0.00    +0.031 C 
ENDBRANCH  24  37
ENDBRANCH   1  24
TORSDOF 11
