REMARK  Name = ZINC36146057
REMARK  11 active torsions:
REMARK  status: ('A' for Active; 'I' for Inactive)
REMARK    1  A    between atoms: C_1  and  C_2
REMARK    2  A    between atoms: C_5  and  C_8
REMARK    3  A    between atoms: C_11  and  C_14
REMARK    4  A    between atoms: C_14  and  N_15
REMARK    5  A    between atoms: N_15  and  C_16
REMARK    6  A    between atoms: N_15  and  C_24
REMARK    7  A    between atoms: C_16  and  C_17
REMARK    8  A    between atoms: C_24  and  C_25
REMARK    9  A    between atoms: C_25  and  C_27
REMARK   10  A    between atoms: C_25  and  O_34
REMARK   11  A    between atoms: C_27  and  C_28
REMARK                            x       y       z     vdW  Elec       q    Type
REMARK                         _______ _______ _______ _____ _____    ______ ____
ROOT
ATOM      1  N   UNL     1       0.221  -9.001   0.587  0.00  0.00    +0.386 N 
ATOM      2  H   UNL     1      -0.783  -8.899   0.584  0.00  0.00    -0.081 HD
ENDROOT
BRANCH   1   3
ATOM      3  C   UNL     1       0.837  -7.761   1.077  0.00  0.00    -0.030 C 
BRANCH   3   7
ATOM      4  C   UNL     1       1.080  -4.469  -0.527  0.00  0.00    +0.091 C 
ATOM      5  N   UNL     1       0.946  -5.293  -1.512  0.00  0.00    -0.089 NA
ATOM      6  O   UNL     1       0.710  -6.622  -1.088  0.00  0.00    -0.392 OA
ATOM      7  C   UNL     1       0.285  -6.571   0.289  0.00  0.00    +0.194 C 
ATOM      8  C   UNL     1       0.928  -5.246   0.767  0.00  0.00    +0.104 C 
BRANCH   4  13
ATOM      9  C   UNL     1       2.098   1.175  -0.972  0.00  0.00    +0.044 C 
ATOM     10  C   UNL     1       1.831  -0.303  -0.855  0.00  0.00    -0.050 A 
ATOM     11  C   UNL     1       1.704  -1.072  -1.999  0.00  0.00    +0.004 A 
ATOM     12  C   UNL     1       1.460  -2.426  -1.899  0.00  0.00    +0.010 A 
ATOM     13  C   UNL     1       1.341  -3.021  -0.641  0.00  0.00    -0.000 A 
ATOM     14  C   UNL     1       1.471  -2.239   0.508  0.00  0.00    +0.010 A 
ATOM     15  C   UNL     1       1.721  -0.887   0.394  0.00  0.00    +0.004 A 
ENDBRANCH   4  13
ENDBRANCH   3   7
ENDBRANCH   1   3
BRANCH   1  16
ATOM     16  C   UNL     1       0.689  -9.276  -0.777  0.00  0.00    -0.043 C 
BRANCH  16  17
ATOM     17  C   UNL     1       2.179  -9.506  -0.760  0.00  0.00    -0.063 A 
ATOM     18  C   UNL     1       3.045  -8.432  -0.848  0.00  0.00    +0.002 A 
ATOM     19  C   UNL     1       4.411  -8.643  -0.833  0.00  0.00    +0.002 A 
ATOM     20  C   UNL     1       4.912  -9.927  -0.730  0.00  0.00    +0.020 A 
ATOM     21  C   UNL     1       4.045 -11.002  -0.642  0.00  0.00    +0.041 A 
ATOM     22  C   UNL     1       2.678 -10.790  -0.651  0.00  0.00    +0.021 A 
ATOM     23 CL   UNL     1       4.673 -12.615  -0.512  0.00  0.00    -0.084 Cl
ENDBRANCH  16  17
ENDBRANCH   1  16
BRANCH   1  24
ATOM     24  C   UNL     1       0.597 -10.115   1.468  0.00  0.00    -0.046 C 
BRANCH  24  25
ATOM     25  C   UNL     1      -0.166 -11.374   1.051  0.00  0.00    +0.102 C 
BRANCH  25  26
ATOM     26  O   UNL     1      -1.571 -11.139   1.164  0.00  0.00    -0.393 OA
ATOM     27  H   UNL     1      -1.861 -10.912   2.058  0.00  0.00    +0.210 HD
ENDBRANCH  25  26
BRANCH  25  28
ATOM     28  C   UNL     1       0.231 -12.537   1.963  0.00  0.00    +0.064 C 
BRANCH  28  29
ATOM     29  C   UNL     1      -0.425 -13.803   1.477  0.00  0.00    -0.045 A 
ATOM     30  C   UNL     1      -1.676 -14.158   1.948  0.00  0.00    +0.004 A 
ATOM     31  C   UNL     1      -2.278 -15.320   1.503  0.00  0.00    +0.000 A 
ATOM     32  C   UNL     1      -1.630 -16.127   0.586  0.00  0.00    +0.000 A 
ATOM     33  C   UNL     1      -0.380 -15.771   0.115  0.00  0.00    +0.000 A 
ATOM     34  C   UNL     1       0.221 -14.607   0.557  0.00  0.00    +0.004 A 
ENDBRANCH  28  29
ENDBRANCH  25  28
ENDBRANCH  24  25
ENDBRANCH   1  24
TORSDOF 10
