REMARK  Name = ZINC38806296
REMARK  14 active torsions:
REMARK  status: ('A' for Active; 'I' for Inactive)
REMARK    1  A    between atoms: C_1  and  C_2
REMARK    2  A    between atoms: C_2  and  C_33
REMARK    3  A    between atoms: C_5  and  C_29
REMARK    4  A    between atoms: C_6  and  N_13
REMARK    5  A    between atoms: C_9  and  C_11
REMARK    6  A    between atoms: C_9  and  C_12
REMARK    7  A    between atoms: C_14  and  C_16
REMARK    8  A    between atoms: C_18  and  O_27
REMARK    9  A    between atoms: C_19  and  O_25
REMARK   10  A    between atoms: C_21  and  N_22
REMARK   11  A    between atoms: O_25  and  C_26
REMARK   12  A    between atoms: O_27  and  C_28
REMARK   13  A    between atoms: C_29  and  O_31
REMARK   14  A    between atoms: O_31  and  C_32
REMARK                            x       y       z     vdW  Elec       q    Type
REMARK                         _______ _______ _______ _____ _____    ______ ____
ROOT
ATOM      1  C   UNL     1       0.844   2.924   1.890  0.00  0.00    -0.010 C 
ATOM      2  C   UNL     1       0.952   1.450   1.490  0.00  0.00    -0.069 C 
ATOM      3  C   UNL     1      -0.405   0.963   0.966  0.00  0.00    +0.024 C 
ATOM      4  C   UNL     1      -1.373   1.002   2.138  0.00  0.00    -0.024 A 
ATOM      5  C   UNL     1      -2.798   1.243   2.081  0.00  0.00    +0.091 A 
ATOM      6  C   UNL     1      -3.486   1.238   3.290  0.00  0.00    +0.086 A 
ATOM      7  S   UNL     1      -2.299   0.927   4.437  0.00  0.00    -0.079 S 
ATOM      8  C   UNL     1      -0.887   0.784   3.382  0.00  0.00    -0.016 A 
ATOM      9  C   UNL     1       0.530   0.481   3.738  0.00  0.00    -0.041 C 
ATOM     10  N   UNL     1       1.434   0.640   2.600  0.00  0.00    +0.389 N 
ATOM     11  C   UNL     1       0.971   1.387   4.896  0.00  0.00    -0.005 C 
ATOM     12  C   UNL     1       0.603  -0.979   4.226  0.00  0.00    -0.005 C 
ATOM     13  C   UNL     1       1.967   1.347   0.336  0.00  0.00    -0.010 C 
ATOM     14  H   UNL     1       1.673  -0.288   2.244  0.00  0.00    -0.084 HD
ATOM     15  H   UNL     1       2.312   1.039   2.936  0.00  0.00    -0.084 HD
ENDROOT
BRANCH   6  16
ATOM     16  N   UNL     1      -4.839   1.441   3.498  0.00  0.00    -0.275 N 
ATOM     17  C   UNL     1      -5.343   1.401   4.748  0.00  0.00    +0.251 C 
ATOM     18  O   UNL     1      -4.608   1.186   5.692  0.00  0.00    -0.270 OA
ATOM     19  H   UNL     1      -5.426   1.612   2.744  0.00  0.00    +0.156 HD
BRANCH  17  20
ATOM     20  C   UNL     1      -6.785   1.617   4.969  0.00  0.00    +0.071 A 
ATOM     21  C   UNL     1      -7.404   2.770   4.478  0.00  0.00    +0.064 A 
ATOM     22  C   UNL     1      -8.755   2.968   4.688  0.00  0.00    +0.162 A 
ATOM     23  C   UNL     1      -9.498   2.018   5.388  0.00  0.00    +0.164 A 
ATOM     24  C   UNL     1      -8.883   0.874   5.876  0.00  0.00    +0.082 A 
ATOM     25  C   UNL     1      -7.537   0.667   5.666  0.00  0.00    +0.142 A 
BRANCH  25  26
ATOM     26  N   UNL     1      -6.886  -0.558   6.182  0.00  0.00    +0.057 N 
ATOM     27  O   UNL     1      -7.505  -1.319   6.888  0.00  0.00    -0.126 OA
ATOM     28  O   UNL     1      -5.736  -0.797   5.897  0.00  0.00    -0.126 OA
ENDBRANCH  25  26
BRANCH  23  29
ATOM     29  O   UNL     1     -10.826   2.215   5.594  0.00  0.00    -0.491 OA
ATOM     30  C   UNL     1     -11.526   1.202   6.319  0.00  0.00    +0.277 C 
ENDBRANCH  23  29
BRANCH  22  31
ATOM     31  O   UNL     1      -9.360   4.089   4.212  0.00  0.00    -0.491 OA
ATOM     32  C   UNL     1      -8.538   5.019   3.504  0.00  0.00    +0.277 C 
ENDBRANCH  22  31
ENDBRANCH  17  20
ENDBRANCH   6  16
BRANCH   5  33
ATOM     33  C   UNL     1      -3.496   1.480   0.816  0.00  0.00    +0.342 C 
ATOM     34  O   UNL     1      -3.958   0.544   0.192  0.00  0.00    -0.245 OA
BRANCH  33  35
ATOM     35  O   UNL     1      -3.628   2.737   0.343  0.00  0.00    -0.464 OA
ATOM     36  C   UNL     1      -4.321   2.894  -0.897  0.00  0.00    +0.280 C 
ENDBRANCH  33  35
ENDBRANCH   5  33
TORSDOF 7
