REMARK  Name = ZINC16937305
REMARK  8 active torsions:
REMARK  status: ('A' for Active; 'I' for Inactive)
REMARK    1  A    between atoms: C_1  and  C_2
REMARK    2  A    between atoms: C_5  and  N_9
REMARK    3  A    between atoms: C_6  and  O_8
REMARK    4  A    between atoms: C_15  and  C_16
REMARK    5  A    between atoms: C_19  and  O_22
REMARK    6  A    between atoms: O_22  and  C_23
REMARK    7  A    between atoms: C_23  and  C_25
REMARK    8  A    between atoms: C_23  and  C_26
REMARK                            x       y       z     vdW  Elec       q    Type
REMARK                         _______ _______ _______ _____ _____    ______ ____
ROOT
ATOM      1  N   UNL     1       2.677  -5.242  -0.791  0.00  0.00    -0.222 NA
ATOM      2  C   UNL     1       2.130  -5.725  -1.884  0.00  0.00    +0.166 C 
ATOM      3  N   UNL     1       1.849  -7.038  -2.194  0.00  0.00    -0.260 N 
ATOM      4  C   UNL     1       1.292  -7.353  -3.351  0.00  0.00    +0.256 C 
ATOM      5  O   UNL     1       1.037  -8.507  -3.641  0.00  0.00    -0.269 OA
ATOM      6  C   UNL     1       0.992  -6.242  -4.274  0.00  0.00    +0.078 C 
ATOM      7  C   UNL     1       0.429  -6.276  -5.508  0.00  0.00    +0.028 C 
ATOM      8  S   UNL     1       1.563  -4.838  -3.326  0.00  0.00    -0.049 S 
ATOM      9  H   UNL     1       2.062  -7.738  -1.557  0.00  0.00    +0.157 HD
ENDROOT
BRANCH   1  14
ATOM     10  C   UNL     1       3.071   0.346  -0.063  0.00  0.00    +0.044 C 
ATOM     11  C   UNL     1       2.968  -1.145  -0.257  0.00  0.00    -0.047 A 
ATOM     12  C   UNL     1       1.761  -1.709  -0.628  0.00  0.00    +0.005 A 
ATOM     13  C   UNL     1       1.657  -3.074  -0.808  0.00  0.00    +0.032 A 
ATOM     14  C   UNL     1       2.774  -3.888  -0.615  0.00  0.00    +0.108 A 
ATOM     15  C   UNL     1       3.994  -3.312  -0.239  0.00  0.00    +0.142 A 
ATOM     16  C   UNL     1       4.083  -1.942  -0.068  0.00  0.00    +0.051 A 
BRANCH  15  17
ATOM     17  O   UNL     1       5.088  -4.097  -0.048  0.00  0.00    -0.505 OA
ATOM     18  H   UNL     1       5.622  -4.228  -0.843  0.00  0.00    +0.292 HD
ENDBRANCH  15  17
ENDBRANCH   1  14
BRANCH   7  19
ATOM     19  C   UNL     1       0.382  -5.058  -6.328  0.00  0.00    -0.024 A 
ATOM     20  C   UNL     1       1.203  -3.968  -6.014  0.00  0.00    +0.011 A 
ATOM     21  C   UNL     1       1.155  -2.829  -6.786  0.00  0.00    +0.046 A 
ATOM     22  C   UNL     1       0.294  -2.759  -7.874  0.00  0.00    +0.122 A 
ATOM     23  C   UNL     1      -0.524  -3.838  -8.190  0.00  0.00    +0.046 A 
ATOM     24  C   UNL     1      -0.480  -4.984  -7.429  0.00  0.00    +0.011 A 
BRANCH  22  25
ATOM     25  O   UNL     1       0.250  -1.633  -8.631  0.00  0.00    -0.478 OA
BRANCH  25  26
ATOM     26  C   UNL     1       1.080  -0.544  -8.223  0.00  0.00    +0.282 C 
ATOM     27  C   UNL     1       2.491  -0.740  -8.781  0.00  0.00    +0.064 C 
BRANCH  26  28
ATOM     28  C   UNL     1       0.508   0.748  -8.747  0.00  0.00    +0.395 C 
ATOM     29  O   UNL     1      -0.516   0.737  -9.409  0.00  0.00    -0.242 OA
ATOM     30  O   UNL     1       1.068   1.804  -8.509  0.00  0.00    -0.242 OA
ENDBRANCH  26  28
ENDBRANCH  25  26
ENDBRANCH  22  25
ENDBRANCH   7  19
TORSDOF 6
