REMARK  Name = ZINC48063567
REMARK  12 active torsions:
REMARK  status: ('A' for Active; 'I' for Inactive)
REMARK    1  A    between atoms: C_1  and  C_2
REMARK    2  A    between atoms: C_2  and  C_4
REMARK    3  A    between atoms: C_2  and  O_27
REMARK    4  A    between atoms: C_4  and  C_5
REMARK    5  A    between atoms: N_7  and  C_10
REMARK    6  A    between atoms: C_10  and  C_11
REMARK    7  A    between atoms: N_14  and  C_17
REMARK    8  A    between atoms: C_17  and  C_18
REMARK    9  A    between atoms: C_18  and  C_19
REMARK   10  A    between atoms: C_18  and  C_20
REMARK   11  A    between atoms: C_18  and  C_21
REMARK   12  A    between atoms: C_21  and  N_22
REMARK                            x       y       z     vdW  Elec       q    Type
REMARK                         _______ _______ _______ _____ _____    ______ ____
ROOT
ATOM      1  C   UNL     1      -0.286  -7.987   2.810  0.00  0.00    +0.007 C 
ATOM      2  C   UNL     1      -0.044  -6.824   3.776  0.00  0.00    -0.013 C 
ATOM      3  C   UNL     1      -0.017  -7.356   5.210  0.00  0.00    -0.078 C 
ATOM      4  N   UNL     1       1.062  -8.342   5.349  0.00  0.00    +0.380 N 
ATOM      5  C   UNL     1       0.799  -9.494   4.478  0.00  0.00    -0.078 C 
ATOM      6  C   UNL     1       0.803  -9.044   3.016  0.00  0.00    -0.013 C 
ATOM      7  H   UNL     1       1.939  -7.918   5.089  0.00  0.00    -0.082 HD
ENDROOT
BRANCH   1   8
ATOM      8  C   UNL     1      -0.236  -7.475   1.369  0.00  0.00    +0.148 C 
BRANCH   8  11
ATOM      9  C   UNL     1      -2.513  -4.803   0.621  0.00  0.00    +0.085 A 
ATOM     10  C   UNL     1      -1.249  -5.283   0.684  0.00  0.00    +0.133 A 
ATOM     11  N   UNL     1      -1.351  -6.553   1.139  0.00  0.00    -0.251 N 
ATOM     12  N   UNL     1      -2.597  -6.813   1.335  0.00  0.00    -0.065 NA
ATOM     13  N   UNL     1      -3.315  -5.788   1.040  0.00  0.00    -0.134 NA
BRANCH   9  14
ATOM     14  C   UNL     1      -2.933  -3.427   0.172  0.00  0.00    +0.090 C 
BRANCH  14  16
ATOM     15  C   UNL     1      -4.485  -2.159  -1.320  0.00  0.00    +0.038 C 
ATOM     16  C   UNL     1      -3.966  -3.550  -0.950  0.00  0.00    +0.117 C 
BRANCH  16  17
ATOM     17  O   UNL     1      -3.357  -4.151  -2.095  0.00  0.00    -0.392 OA
ATOM     18  H   UNL     1      -2.608  -3.652  -2.449  0.00  0.00    +0.210 HD
ENDBRANCH  16  17
ENDBRANCH  14  16
ENDBRANCH   9  14
ENDBRANCH   8  11
ENDBRANCH   1   8
BRANCH   4  19
ATOM     19  C   UNL     1       1.134  -8.792   6.746  0.00  0.00    -0.074 C 
BRANCH  19  20
ATOM     20  C   UNL     1       2.028  -7.840   7.543  0.00  0.00    -0.064 C 
ATOM     21  C   UNL     1       3.411  -7.775   6.893  0.00  0.00    +0.007 C 
ATOM     22  C   UNL     1       1.403  -6.443   7.553  0.00  0.00    +0.007 C 
BRANCH  20  23
ATOM     23  C   UNL     1       2.162  -8.349   8.979  0.00  0.00    -0.074 C 
BRANCH  23  24
ATOM     24  N   UNL     1       2.868  -9.637   8.978  0.00  0.00    +0.380 N 
ATOM     25  C   UNL     1       4.334  -9.418   8.891  0.00  0.00    -0.079 C 
ATOM     26  C   UNL     1       4.923 -10.735   9.457  0.00  0.00    -0.020 C 
ATOM     27  C   UNL     1       3.944 -11.089  10.599  0.00  0.00    -0.020 C 
ATOM     28  C   UNL     1       2.641 -10.344  10.258  0.00  0.00    -0.079 C 
ATOM     29  H   UNL     1       2.553 -10.206   8.206  0.00  0.00    -0.082 HD
ENDBRANCH  23  24
ENDBRANCH  20  23
ENDBRANCH  19  20
ENDBRANCH   4  19
TORSDOF 9
