REMARK  Name = ZINC07524277
REMARK  6 active torsions:
REMARK  status: ('A' for Active; 'I' for Inactive)
REMARK    1  A    between atoms: C_1  and  C_2
REMARK    2  A    between atoms: C_2  and  C_4
REMARK    3  A    between atoms: C_2  and  N_53
REMARK    4  A    between atoms: C_14  and  C_15
REMARK    5  A    between atoms: C_14  and  N_53
REMARK    6  A    between atoms: C_18  and  C_20
REMARK                            x       y       z     vdW  Elec       q    Type
REMARK                         _______ _______ _______ _____ _____    ______ ____
ROOT
ATOM      1  N   UNL     1       1.369   1.603  -0.007  0.00  0.00    +0.386 N 
ATOM      2  H   UNL     1       1.383   2.544   0.404  0.00  0.00    -0.085 HD
ATOM      3  H   UNL     1       1.702   1.649  -0.977  0.00  0.00    -0.085 HD
ENDROOT
BRANCH   1   5
ATOM      4  C   UNL     1      -0.729   1.579   1.267  0.00  0.00    -0.013 C 
ATOM      5  C   UNL     1      -0.013   1.086   0.008  0.00  0.00    -0.068 C 
BRANCH   5   6
ATOM      6  C   UNL     1      -0.753   1.593  -1.232  0.00  0.00    -0.041 C 
ATOM      7  C   UNL     1      -0.037   1.099  -2.490  0.00  0.00    +0.009 C 
ATOM      8  C   UNL     1      -0.777   1.606  -3.730  0.00  0.00    -0.010 C 
ATOM      9  C   UNL     1      -2.212   1.077  -3.719  0.00  0.00    +0.007 C 
ATOM     10  C   UNL     1      -2.928   1.570  -2.460  0.00  0.00    -0.010 C 
ATOM     11  C   UNL     1      -2.188   1.063  -1.221  0.00  0.00    +0.009 C 
ATOM     12  C   UNL     1      -2.949   3.100  -2.452  0.00  0.00    +0.007 C 
ATOM     13  C   UNL     1      -1.513   3.629  -2.463  0.00  0.00    -0.010 C 
ATOM     14  C   UNL     1      -0.797   3.136  -3.721  0.00  0.00    +0.007 C 
ATOM     15  C   UNL     1      -0.773   3.123  -1.223  0.00  0.00    +0.009 C 
ENDBRANCH   5   6
ENDBRANCH   1   5
BRANCH   1  16
ATOM     16  C   UNL     1       2.256   0.718   0.771  0.00  0.00    -0.007 C 
BRANCH  16  17
ATOM     17  C   UNL     1       3.657   1.271   0.738  0.00  0.00    +0.089 A 
ATOM     18  C   UNL     1       4.178   2.147   1.619  0.00  0.00    +0.043 A 
ATOM     19  C   UNL     1       5.507   2.392   1.221  0.00  0.00    +0.050 A 
ATOM     20  C   UNL     1       5.725   1.651   0.102  0.00  0.00    +0.138 A 
ATOM     21  O   UNL     1       4.594   0.976  -0.179  0.00  0.00    -0.462 OA
BRANCH  20  22
ATOM     22  C   UNL     1       6.983   1.595  -0.670  0.00  0.00    +0.052 A 
ATOM     23  C   UNL     1       7.545   0.362  -1.008  0.00  0.00    +0.014 A 
ATOM     24  C   UNL     1       8.719   0.317  -1.730  0.00  0.00    +0.001 A 
ATOM     25  C   UNL     1       9.342   1.490  -2.120  0.00  0.00    +0.003 A 
ATOM     26  C   UNL     1       8.793   2.715  -1.789  0.00  0.00    +0.039 A 
ATOM     27  C   UNL     1       7.614   2.776  -1.071  0.00  0.00    +0.134 A 
ATOM     28  F   UNL     1       7.075   3.974  -0.753  0.00  0.00    -0.205 F 
ENDBRANCH  20  22
ENDBRANCH  16  17
ENDBRANCH   1  16
TORSDOF 5
