REMARK  Name = ZINC17122790
REMARK  11 active torsions:
REMARK  status: ('A' for Active; 'I' for Inactive)
REMARK    1  A    between atoms: C_1  and  C_2
REMARK    2  A    between atoms: C_8  and  C_28
REMARK    3  A    between atoms: C_12  and  C_14
REMARK    4  A    between atoms: C_12  and  C_17
REMARK    5  A    between atoms: C_14  and  C_15
REMARK    6  A    between atoms: C_15  and  O_16
REMARK    7  A    between atoms: C_17  and  O_18
REMARK    8  A    between atoms: C_21  and  O_27
REMARK    9  A    between atoms: C_23  and  C_24
REMARK   10  A    between atoms: C_23  and  C_25
REMARK   11  A    between atoms: C_25  and  O_26
REMARK                            x       y       z     vdW  Elec       q    Type
REMARK                         _______ _______ _______ _____ _____    ______ ____
ROOT
ATOM      1  C   UNL     1      -0.757   0.038   4.210  0.00  0.00    +0.010 C 
ATOM      2  C   UNL     1      -1.305   1.033   3.190  0.00  0.00    +0.018 C 
ATOM      3  C   UNL     1      -2.833   1.005   3.216  0.00  0.00    +0.006 C 
ATOM      4  C   UNL     1      -3.385   2.057   2.255  0.00  0.00    +0.005 C 
ATOM      5  C   UNL     1      -2.861   1.882   0.828  0.00  0.00    +0.008 C 
ATOM      6  C   UNL     1      -1.343   1.775   0.812  0.00  0.00    +0.001 C 
ATOM      7  C   UNL     1      -0.844   0.686   1.777  0.00  0.00    +0.079 C 
ATOM      8  C   UNL     1      -1.380  -0.689   1.362  0.00  0.00    +0.039 C 
ATOM      9  C   UNL     1      -0.155  -1.629   1.441  0.00  0.00    +0.040 C 
ATOM     10  C   UNL     1       1.058  -0.685   1.465  0.00  0.00    +0.095 C 
ATOM     11  O   UNL     1       0.584   0.637   1.718  0.00  0.00    -0.364 OA
ATOM     12  C   UNL     1      -0.735   3.117   1.235  0.00  0.00    +0.012 C 
ATOM     13  C   UNL     1      -1.146   4.199   0.241  0.00  0.00    +0.032 C 
ATOM     14  C   UNL     1      -2.659   4.343   0.194  0.00  0.00    +0.123 C 
ATOM     15  C   UNL     1      -3.389   3.027  -0.032  0.00  0.00    +0.020 C 
ATOM     16  C   UNL     1      -4.877   3.275   0.315  0.00  0.00    +0.016 C 
ATOM     17  C   UNL     1      -0.799   1.415  -0.575  0.00  0.00    +0.014 C 
ENDROOT
BRANCH  14  18
ATOM     18  O   UNL     1      -3.125   4.959   1.400  0.00  0.00    -0.391 OA
ATOM     19  H   UNL     1      -2.697   5.802   1.601  0.00  0.00    +0.210 HD
ENDBRANCH  14  18
BRANCH  10  20
ATOM     20  C   UNL     1       1.787  -0.746   0.117  0.00  0.00    +0.065 C 
BRANCH  20  21
ATOM     21  C   UNL     1       2.387  -2.141  -0.075  0.00  0.00    +0.158 C 
BRANCH  21  22
ATOM     22  O   UNL     1       2.947  -2.242  -1.386  0.00  0.00    -0.395 OA
ATOM     23  H   UNL     1       3.346  -3.101  -1.579  0.00  0.00    +0.209 HD
ENDBRANCH  21  22
ENDBRANCH  20  21
ENDBRANCH  10  20
BRANCH  10  24
ATOM     24  C   UNL     1       2.031  -1.121   2.568  0.00  0.00    +0.190 C 
BRANCH  24  25
ATOM     25  O   UNL     1       3.166  -0.252   2.572  0.00  0.00    -0.392 OA
ATOM     26  H   UNL     1       3.825  -0.469   3.246  0.00  0.00    +0.210 HD
ENDBRANCH  24  25
ENDBRANCH  10  24
BRANCH  15  27
ATOM     27  C   UNL     1      -3.378   2.671  -1.524  0.00  0.00    +0.165 C 
BRANCH  27  28
ATOM     28  O   UNL     1      -3.945   3.746  -2.275  0.00  0.00    -0.394 OA
ATOM     29  H   UNL     1      -3.970   3.589  -3.229  0.00  0.00    +0.209 HD
ENDBRANCH  27  28
ENDBRANCH  15  27
TORSDOF 8
