REMARK  Name = ZINC21864910
REMARK  10 active torsions:
REMARK  status: ('A' for Active; 'I' for Inactive)
REMARK    1  A    between atoms: C_1  and  C_2
REMARK    2  A    between atoms: C_8  and  N_10
REMARK    3  A    between atoms: C_11  and  C_13
REMARK    4  A    between atoms: C_13  and  C_33
REMARK    5  A    between atoms: C_16  and  C_28
REMARK    6  A    between atoms: N_22  and  C_23
REMARK    7  A    between atoms: C_23  and  C_24
REMARK    8  A    between atoms: C_24  and  C_25
REMARK    9  A    between atoms: C_25  and  C_26
REMARK   10  A    between atoms: C_25  and  C_27
REMARK                            x       y       z     vdW  Elec       q    Type
REMARK                         _______ _______ _______ _____ _____    ______ ____
ROOT
ATOM      1  C   UNL     1      -4.356   0.810  -0.923  0.00  0.00    +0.128 C 
ATOM      2  C   UNL     1      -3.032   0.868  -0.162  0.00  0.00    +0.157 C 
ATOM      3  N   UNL     1      -2.468  -0.482  -0.073  0.00  0.00    -0.331 N 
ATOM      4  C   UNL     1      -1.175  -0.883   0.008  0.00  0.00    +0.085 A 
ATOM      5  C   UNL     1      -1.156  -2.267   0.092  0.00  0.00    +0.032 A 
ATOM      6  C   UNL     1      -2.478  -2.714   0.062  0.00  0.00    +0.033 A 
ATOM      7  C   UNL     1      -3.279  -1.611  -0.050  0.00  0.00    +0.105 A 
ATOM      8  C   UNL     1      -4.737  -1.492  -0.148  0.00  0.00    +0.264 C 
ATOM      9  O   UNL     1      -5.472  -2.444   0.042  0.00  0.00    -0.268 OA
ATOM     10  N   UNL     1      -5.222  -0.268  -0.460  0.00  0.00    -0.281 N 
ATOM     11  C   UNL     1      -5.087   2.142  -0.747  0.00  0.00    +0.043 C 
ENDROOT
BRANCH   4  12
ATOM     12  C   UNL     1       0.002  -0.004   0.002  0.00  0.00    +0.151 A 
ATOM     13  C   UNL     1       1.304  -0.409  -0.013  0.00  0.00    +0.051 A 
ATOM     14  C   UNL     1       2.091   0.757  -0.014  0.00  0.00    +0.042 A 
ATOM     15  C   UNL     1       1.244   1.807  -0.000  0.00  0.00    +0.196 A 
ATOM     16  O   UNL     1      -0.016   1.344   0.009  0.00  0.00    -0.461 OA
ENDBRANCH   4  12
BRANCH   1  18
ATOM     17  N   UNL     1      -3.874  -0.637  -2.871  0.00  0.00    -0.310 N 
ATOM     18  C   UNL     1      -4.066   0.606  -2.388  0.00  0.00    +0.238 C 
ATOM     19  O   UNL     1      -4.006   1.562  -3.133  0.00  0.00    -0.273 OA
ATOM     20  H   UNL     1      -3.929  -1.504  -2.195  0.00  0.00    +0.149 HD
BRANCH  17  27
ATOM     21  C   UNL     1      -1.510  -2.085  -3.710  0.00  0.00    +0.009 C 
ATOM     22  C   UNL     1      -2.827  -2.146  -4.486  0.00  0.00    +0.006 C 
ATOM     23  C   UNL     1      -3.672  -3.311  -3.967  0.00  0.00    +0.005 C 
ATOM     24  C   UNL     1      -4.989  -3.371  -4.743  0.00  0.00    +0.000 C 
ATOM     25  C   UNL     1      -5.755  -2.060  -4.552  0.00  0.00    +0.002 C 
ATOM     26  C   UNL     1      -4.910  -0.895  -5.071  0.00  0.00    +0.022 C 
ATOM     27  C   UNL     1      -3.593  -0.835  -4.295  0.00  0.00    +0.076 C 
ENDBRANCH  17  27
ENDBRANCH   1  18
BRANCH  10  28
ATOM     28  C   UNL     1      -6.659  -0.018  -0.328  0.00  0.00    +0.109 C 
BRANCH  28  29
ATOM     29  C   UNL     1      -7.359  -0.357  -1.645  0.00  0.00    +0.022 C 
BRANCH  29  30
ATOM     30  C   UNL     1      -8.860  -0.095  -1.508  0.00  0.00    -0.016 C 
ATOM     31  C   UNL     1      -9.100   1.401  -1.295  0.00  0.00    +0.007 C 
ATOM     32  C   UNL     1      -9.576  -0.551  -2.781  0.00  0.00    +0.007 C 
ENDBRANCH  29  30
ENDBRANCH  28  29
ENDBRANCH  10  28
TORSDOF 6
