REMARK  Name = ZINC11997169
REMARK  7 active torsions:
REMARK  status: ('A' for Active; 'I' for Inactive)
REMARK    1  A    between atoms: C_1  and  C_2
REMARK    2  A    between atoms: C_3  and  C_26
REMARK    3  A    between atoms: C_8  and  C_10
REMARK    4  A    between atoms: C_12  and  C_23
REMARK    5  A    between atoms: N_13  and  C_15
REMARK    6  A    between atoms: C_23  and  C_24
REMARK    7  A    between atoms: C_23  and  C_25
REMARK                            x       y       z     vdW  Elec       q    Type
REMARK                         _______ _______ _______ _____ _____    ______ ____
ROOT
ATOM      1  C   UNL     1       1.121   3.551   0.010  0.00  0.00    +0.148 A 
ATOM      2  C   UNL     1       2.247   4.409   0.004  0.00  0.00    +0.058 A 
ATOM      3  C   UNL     1       1.744   5.665   0.015  0.00  0.00    +0.043 A 
ATOM      4  N   UNL     1       0.398   5.558   0.027  0.00  0.00    -0.263 N 
ATOM      5  N   UNL     1       0.051   4.321   0.019  0.00  0.00    -0.166 NA
ENDROOT
BRANCH   1  13
ATOM      6  C   UNL     1      -1.984  -3.105   0.004  0.00  0.00    +0.066 C 
ATOM      7  C   UNL     1      -0.818  -2.151  -0.002  0.00  0.00    +0.050 A 
ATOM      8  C   UNL     1       0.456  -2.614  -0.016  0.00  0.00    +0.011 A 
ATOM      9  S   UNL     1       1.368  -1.077  -0.024  0.00  0.00    -0.057 S 
ATOM     10  C   UNL     1       0.002  -0.004   0.002  0.00  0.00    +0.165 A 
ATOM     11  N   UNL     1      -1.013  -0.847   0.007  0.00  0.00    -0.230 NA
ATOM     12  N   UNL     1      -0.017   1.385   0.010  0.00  0.00    -0.259 N 
ATOM     13  C   UNL     1       1.141   2.075   0.002  0.00  0.00    +0.270 C 
ATOM     14  O   UNL     1       2.202   1.481  -0.011  0.00  0.00    -0.268 OA
ATOM     15  C   UNL     1       0.964  -4.032  -0.029  0.00  0.00    +0.053 C 
ATOM     16  H   UNL     1      -0.863   1.858   0.016  0.00  0.00    +0.157 HD
ENDBRANCH   1  13
BRANCH   4  17
ATOM     17  C   UNL     1      -0.532   6.689   0.042  0.00  0.00    +0.130 C 
ATOM     18  C   UNL     1      -1.432   6.637  -1.204  0.00  0.00    +0.051 C 
ATOM     19  C   UNL     1      -2.614   7.623  -1.043  0.00  0.00    +0.168 C 
ATOM     20  S   UNL     1      -2.837   7.692   0.782  0.00  0.00    -0.029 S 
ATOM     21  O   UNL     1      -2.582   9.016   1.229  0.00  0.00    -0.174 OA
ATOM     22  O   UNL     1      -4.065   7.063   1.121  0.00  0.00    -0.174 OA
ATOM     23  C   UNL     1      -1.443   6.604   1.300  0.00  0.00    +0.192 C 
ENDBRANCH   4  17
BRANCH   3  24
ATOM     24  C   UNL     1       2.539   6.946   0.014  0.00  0.00    +0.031 C 
ATOM     25  C   UNL     1       3.819   6.752   0.829  0.00  0.00    +0.014 C 
ATOM     26  C   UNL     1       2.901   7.320  -1.425  0.00  0.00    +0.014 C 
ENDBRANCH   3  24
TORSDOF 3
