REMARK  Name = ZINC37042130
REMARK  4 active torsions:
REMARK  status: ('A' for Active; 'I' for Inactive)
REMARK    1  A    between atoms: C_3  and  N_11
REMARK    2  A    between atoms: C_4  and  N_8
REMARK    3  A    between atoms: C_12  and  C_14
REMARK    4  A    between atoms: C_17  and  O_21
REMARK                            x       y       z     vdW  Elec       q    Type
REMARK                         _______ _______ _______ _____ _____    ______ ____
ROOT
ATOM      1  N   UNL     1       3.421   2.037  -0.040  0.00  0.00    -0.285 N 
ATOM      2  C   UNL     1       3.342   3.376  -0.177  0.00  0.00    +0.203 C 
ATOM      3  O   UNL     1       2.259   3.921  -0.190  0.00  0.00    -0.277 OA
ATOM      4  H   UNL     1       4.286   1.609   0.052  0.00  0.00    +0.155 HD
ENDROOT
BRANCH   1   7
ATOM      5  C   UNL     1      -0.043   0.967  -0.652  0.00  0.00    +0.017 A 
ATOM      6  C   UNL     1       1.107   1.731  -0.661  0.00  0.00    +0.027 A 
ATOM      7  C   UNL     1       2.254   1.265  -0.033  0.00  0.00    +0.064 A 
ATOM      8  C   UNL     1       2.241   0.030   0.604  0.00  0.00    +0.148 A 
ATOM      9  C   UNL     1       1.088  -0.730   0.609  0.00  0.00    +0.050 A 
ATOM     10  C   UNL     1      -0.054  -0.263  -0.018  0.00  0.00    +0.020 A 
ATOM     11 BR   UNL     1      -1.631  -1.306  -0.007  0.00  0.00    -0.050 Br
BRANCH   8  12
ATOM     12  N   UNL     1       3.462  -0.471   1.274  0.00  0.00    +0.058 N 
ATOM     13  O   UNL     1       3.480  -1.585   1.744  0.00  0.00    -0.126 OA
ATOM     14  O   UNL     1       4.441   0.234   1.352  0.00  0.00    -0.126 OA
ENDBRANCH   8  12
ENDBRANCH   1   7
BRANCH   2  15
ATOM     15  C   UNL     1       4.600   4.194  -0.312  0.00  0.00    +0.019 C 
ATOM     16  C   UNL     1       5.229   4.425   1.078  0.00  0.00    +0.023 C 
ATOM     17  C   UNL     1       5.748   5.884   0.990  0.00  0.00    +0.097 C 
ATOM     18  C   UNL     1       4.656   6.552   0.118  0.00  0.00    -0.050 C 
ATOM     19  N   UNL     1       4.279   5.519  -0.875  0.00  0.00    +0.388 N 
ATOM     20  H   UNL     1       4.797   5.660  -1.728  0.00  0.00    -0.085 HD
ATOM     21  H   UNL     1       3.289   5.575  -1.066  0.00  0.00    -0.085 HD
BRANCH  17  22
ATOM     22  O   UNL     1       5.809   6.485   2.285  0.00  0.00    -0.394 OA
ATOM     23  H   UNL     1       6.128   7.398   2.280  0.00  0.00    +0.210 HD
ENDBRANCH  17  22
ENDBRANCH   2  15
TORSDOF 4
