REMARK  Name = ZINC18663558
REMARK  8 active torsions:
REMARK  status: ('A' for Active; 'I' for Inactive)
REMARK    1  A    between atoms: C_1  and  C_2
REMARK    2  A    between atoms: C_2  and  N_3
REMARK    3  A    between atoms: C_7  and  S_9
REMARK    4  A    between atoms: S_9  and  C_10
REMARK    5  A    between atoms: C_10  and  C_11
REMARK    6  A    between atoms: N_13  and  C_14
REMARK    7  A    between atoms: C_17  and  N_21
REMARK    8  A    between atoms: C_19  and  C_20
REMARK                            x       y       z     vdW  Elec       q    Type
REMARK                         _______ _______ _______ _____ _____    ______ ____
ROOT
ATOM      1  C   UNL     1      -2.459  -8.639  -0.604  0.00  0.00    +0.227 C 
ATOM      2  O   UNL     1      -3.531  -8.837  -1.137  0.00  0.00    -0.275 OA
ATOM      3  N   UNL     1      -1.795  -9.659  -0.026  0.00  0.00    -0.285 N 
ATOM      4  H   UNL     1      -0.904  -9.519   0.329  0.00  0.00    +0.155 HD
ENDROOT
BRANCH   3   5
ATOM      5  C   UNL     1      -2.394 -10.924   0.063  0.00  0.00    +0.036 A 
ATOM      6  C   UNL     1      -3.778 -11.039   0.054  0.00  0.00    +0.025 A 
ATOM      7  C   UNL     1      -4.367 -12.284   0.142  0.00  0.00    +0.025 A 
ATOM      8  C   UNL     1      -3.576 -13.422   0.239  0.00  0.00    +0.030 A 
ATOM      9  C   UNL     1      -2.192 -13.306   0.247  0.00  0.00    +0.028 A 
ATOM     10  C   UNL     1      -1.603 -12.061   0.155  0.00  0.00    -0.028 A 
ATOM     11  C   UNL     1      -0.101 -11.936   0.158  0.00  0.00    +0.046 C 
BRANCH   8  12
ATOM     12  N   UNL     1      -4.173 -14.684   0.328  0.00  0.00    -0.330 N 
ATOM     13  C   UNL     1      -3.459 -15.964   0.442  0.00  0.00    +0.105 C 
ATOM     14  C   UNL     1      -4.523 -17.080   0.485  0.00  0.00    +0.020 C 
ATOM     15  C   UNL     1      -5.757 -16.410  -0.175  0.00  0.00    +0.020 C 
ATOM     16  C   UNL     1      -5.623 -14.950   0.331  0.00  0.00    +0.105 C 
ENDBRANCH   8  12
ENDBRANCH   3   5
BRANCH   1  17
ATOM     17  C   UNL     1      -1.870  -7.252  -0.590  0.00  0.00    +0.172 C 
BRANCH  17  18
ATOM     18  S   UNL     1      -2.992  -6.109  -1.441  0.00  0.00    -0.088 S 
BRANCH  18  23
ATOM     19  N   UNL     1      -1.001  -0.666  -1.560  0.00  0.00    -0.322 N 
ATOM     20  C   UNL     1      -1.272  -2.021  -1.410  0.00  0.00    +0.182 A 
ATOM     21  N   UNL     1      -0.554  -2.956  -0.821  0.00  0.00    -0.125 NA
ATOM     22  N   UNL     1      -1.014  -4.252  -0.785  0.00  0.00    -0.133 NA
ATOM     23  C   UNL     1      -2.172  -4.553  -1.341  0.00  0.00    +0.160 A 
ATOM     24  S   UNL     1      -2.690  -2.959  -1.958  0.00  0.00    -0.025 S 
ATOM     25  H   UNL     1      -1.634  -0.092  -2.019  0.00  0.00    +0.148 HD
BRANCH  19  27
ATOM     26  C   UNL     1       0.292   1.396  -1.322  0.00  0.00    +0.024 C 
ATOM     27  C   UNL     1       0.241  -0.104  -1.024  0.00  0.00    +0.100 C 
ENDBRANCH  19  27
ENDBRANCH  18  23
ENDBRANCH  17  18
ENDBRANCH   1  17
TORSDOF 6
