REMARK  Name = ZINC11563507
REMARK  10 active torsions:
REMARK  status: ('A' for Active; 'I' for Inactive)
REMARK    1  A    between atoms: C_1  and  N_62
REMARK    2  A    between atoms: C_2  and  N_62
REMARK    3  A    between atoms: C_3  and  C_5
REMARK    4  A    between atoms: C_3  and  C_26
REMARK    5  A    between atoms: C_3  and  N_62
REMARK    6  A    between atoms: C_5  and  N_6
REMARK    7  A    between atoms: C_7  and  C_9
REMARK    8  A    between atoms: N_12  and  S_15
REMARK    9  A    between atoms: S_15  and  C_18
REMARK   10  A    between atoms: C_19  and  C_20
REMARK                            x       y       z     vdW  Elec       q    Type
REMARK                         _______ _______ _______ _____ _____    ______ ____
ROOT
ATOM      1  N   UNL     1      -4.141   6.509   3.126  0.00  0.00    -0.316 N 
ATOM      2  C   UNL     1      -3.842   5.884   1.970  0.00  0.00    +0.216 C 
ATOM      3  O   UNL     1      -4.682   5.215   1.408  0.00  0.00    -0.276 OA
ATOM      4  H   UNL     1      -3.469   7.045   3.576  0.00  0.00    +0.149 HD
ENDROOT
BRANCH   2   5
ATOM      5  C   UNL     1      -2.463   6.018   1.376  0.00  0.00    +0.077 C 
ATOM      6  C   UNL     1      -2.389   5.217   0.074  0.00  0.00    +0.030 C 
ATOM      7  C   UNL     1      -0.977   5.327  -0.509  0.00  0.00    +0.110 C 
ATOM      8  N   UNL     1      -0.635   6.748  -0.655  0.00  0.00    -0.177 NA
ATOM      9  C   UNL     1      -0.753   7.627   0.516  0.00  0.00    +0.110 C 
ATOM     10  C   UNL     1      -2.174   7.493   1.087  0.00  0.00    +0.030 C 
BRANCH   8  11
ATOM     11  S   UNL     1      -0.119   7.347  -2.110  0.00  0.00    +0.054 S 
ATOM     12  O   UNL     1       0.421   6.249  -2.833  0.00  0.00    -0.153 OA
ATOM     13  O   UNL     1       0.636   8.517  -1.824  0.00  0.00    -0.153 OA
BRANCH  11  14
ATOM     14  C   UNL     1      -1.550   7.875  -2.993  0.00  0.00    +0.153 C 
ATOM     15  C   UNL     1      -1.718   9.160  -3.275  0.00  0.00    +0.028 C 
BRANCH  15  16
ATOM     16  C   UNL     1      -2.918   9.603  -4.015  0.00  0.00    -0.024 A 
ATOM     17  C   UNL     1      -3.873   8.671  -4.424  0.00  0.00    +0.008 A 
ATOM     18  C   UNL     1      -4.994   9.092  -5.110  0.00  0.00    +0.001 A 
ATOM     19  C   UNL     1      -5.166  10.433  -5.402  0.00  0.00    +0.000 A 
ATOM     20  C   UNL     1      -4.221  11.361  -5.004  0.00  0.00    +0.001 A 
ATOM     21  C   UNL     1      -3.099  10.954  -4.313  0.00  0.00    +0.008 A 
ENDBRANCH  15  16
ENDBRANCH  11  14
ENDBRANCH   8  11
ENDBRANCH   2   5
BRANCH   1  22
ATOM     22  C   UNL     1      -5.481   6.379   3.704  0.00  0.00    +0.093 C 
BRANCH  22  23
ATOM     23  C   UNL     1      -5.484   6.958   5.120  0.00  0.00    -0.020 C 
BRANCH  23  24
ATOM     24  C   UNL     1      -6.888   6.936   5.668  0.00  0.00    -0.041 A 
ATOM     25  C   UNL     1      -7.248   5.990   6.609  0.00  0.00    +0.003 A 
ATOM     26  C   UNL     1      -8.534   5.973   7.115  0.00  0.00    +0.000 A 
ATOM     27  C   UNL     1      -9.463   6.896   6.674  0.00  0.00    +0.001 A 
ATOM     28  C   UNL     1      -9.106   7.840   5.729  0.00  0.00    +0.020 A 
ATOM     29  C   UNL     1      -7.817   7.860   5.226  0.00  0.00    +0.043 A 
ATOM     30 CL   UNL     1      -7.367   9.044   4.039  0.00  0.00    -0.083 Cl
ENDBRANCH  23  24
BRANCH  23  33
ATOM     31  C   UNL     1      -4.738   4.721   5.668  0.00  0.00    -0.096 C 
ATOM     32  C   UNL     1      -3.212   6.590   5.872  0.00  0.00    -0.096 C 
ATOM     33  N   UNL     1      -4.618   6.154   6.008  0.00  0.00    +0.382 N 
ATOM     34  H   UNL     1      -4.917   6.292   6.981  0.00  0.00    -0.082 HD
ENDBRANCH  23  33
ENDBRANCH  22  23
ENDBRANCH   1  22
TORSDOF 8
