REMARK  Name = ZINC32732487
REMARK  11 active torsions:
REMARK  status: ('A' for Active; 'I' for Inactive)
REMARK    1  A    between atoms: C_1  and  C_2
REMARK    2  A    between atoms: N_5  and  S_11
REMARK    3  A    between atoms: C_7  and  C_10
REMARK    4  A    between atoms: S_11  and  C_14
REMARK    5  A    between atoms: C_18  and  C_20
REMARK    6  A    between atoms: N_22  and  C_23
REMARK    7  A    between atoms: C_23  and  C_24
REMARK    8  A    between atoms: C_24  and  C_26
REMARK    9  A    between atoms: C_24  and  N_33
REMARK   10  A    between atoms: N_33  and  C_34
REMARK   11  A    between atoms: N_33  and  C_35
REMARK                            x       y       z     vdW  Elec       q    Type
REMARK                         _______ _______ _______ _____ _____    ______ ____
ROOT
ATOM      1  C   UNL     1      -1.126  -3.211  -2.436  0.00  0.00    +0.106 A 
ATOM      2  C   UNL     1      -0.928  -2.355  -3.505  0.00  0.00    +0.028 A 
ATOM      3  C   UNL     1      -0.007  -2.669  -4.489  0.00  0.00    +0.003 A 
ATOM      4  C   UNL     1       0.720  -3.839  -4.411  0.00  0.00    +0.013 A 
ATOM      5  C   UNL     1       0.525  -4.707  -3.335  0.00  0.00    +0.039 A 
ATOM      6  C   UNL     1      -0.402  -4.381  -2.343  0.00  0.00    +0.041 A 
ENDROOT
BRANCH   5   7
ATOM      7  C   UNL     1       1.300  -5.963  -3.245  0.00  0.00    +0.244 C 
ATOM      8  O   UNL     1       1.128  -6.717  -2.307  0.00  0.00    -0.270 OA
ATOM      9  N   UNL     1       2.196  -6.272  -4.202  0.00  0.00    -0.313 N 
ATOM     10  H   UNL     1       2.334  -5.670  -4.950  0.00  0.00    +0.149 HD
BRANCH   9  11
ATOM     11  C   UNL     1       2.964  -7.516  -4.112  0.00  0.00    +0.094 C 
BRANCH  11  12
ATOM     12  C   UNL     1       3.821  -7.679  -5.370  0.00  0.00    -0.021 C 
BRANCH  12  13
ATOM     13  C   UNL     1       4.840  -6.570  -5.430  0.00  0.00    -0.057 A 
ATOM     14  C   UNL     1       5.998  -6.654  -4.679  0.00  0.00    +0.002 A 
ATOM     15  C   UNL     1       6.933  -5.638  -4.734  0.00  0.00    +0.003 A 
ATOM     16  C   UNL     1       6.712  -4.537  -5.539  0.00  0.00    +0.038 A 
ATOM     17  C   UNL     1       5.553  -4.452  -6.292  0.00  0.00    +0.124 A 
ATOM     18  C   UNL     1       4.620  -5.473  -6.241  0.00  0.00    +0.040 A 
ATOM     19  F   UNL     1       5.336  -3.376  -7.079  0.00  0.00    -0.205 F 
ENDBRANCH  12  13
BRANCH  12  20
ATOM     20  N   UNL     1       4.509  -8.976  -5.329  0.00  0.00    +0.382 N 
ATOM     21  C   UNL     1       3.516 -10.056  -5.271  0.00  0.00    -0.096 C 
ATOM     22  C   UNL     1       5.333  -9.131  -6.535  0.00  0.00    -0.096 C 
ATOM     23  H   UNL     1       5.099  -9.017  -4.511  0.00  0.00    -0.082 HD
ENDBRANCH  12  20
ENDBRANCH  11  12
ENDBRANCH   9  11
ENDBRANCH   5   7
BRANCH   1  24
ATOM     24  S   UNL     1      -2.300  -2.802  -1.188  0.00  0.00    +0.061 S 
ATOM     25  O   UNL     1      -2.686  -4.025  -0.577  0.00  0.00    -0.153 OA
ATOM     26  O   UNL     1      -3.239  -1.920  -1.788  0.00  0.00    -0.153 OA
BRANCH  24  30
ATOM     27  C   UNL     1       0.150   1.472   0.163  0.00  0.00    +0.039 C 
ATOM     28  C   UNL     1       0.053  -0.051   0.052  0.00  0.00    +0.131 C 
ATOM     29  C   UNL     1      -1.415  -0.460  -0.116  0.00  0.00    +0.140 C 
ATOM     30  N   UNL     1      -1.501  -1.927  -0.032  0.00  0.00    -0.172 NA
ATOM     31  C   UNL     1      -0.855  -2.593   1.111  0.00  0.00    +0.140 C 
ATOM     32  C   UNL     1       0.585  -2.080   1.219  0.00  0.00    +0.131 C 
ATOM     33  O   UNL     1       0.577  -0.651   1.240  0.00  0.00    -0.371 OA
ATOM     34  C   UNL     1       1.220  -2.607   2.507  0.00  0.00    +0.039 C 
ENDBRANCH  24  30
ENDBRANCH   1  24
TORSDOF 7
