REMARK  Name = ZINC20882157
REMARK  8 active torsions:
REMARK  status: ('A' for Active; 'I' for Inactive)
REMARK    1  A    between atoms: C_1  and  C_2
REMARK    2  A    between atoms: C_2  and  C_3
REMARK    3  A    between atoms: C_6  and  C_9
REMARK    4  A    between atoms: C_14  and  C_19
REMARK    5  A    between atoms: C_21  and  O_27
REMARK    6  A    between atoms: C_24  and  O_25
REMARK    7  A    between atoms: O_25  and  C_26
REMARK    8  A    between atoms: O_27  and  C_28
REMARK                            x       y       z     vdW  Elec       q    Type
REMARK                         _______ _______ _______ _____ _____    ______ ____
ROOT
ATOM      1  C   UNL     1       2.797  -1.919   4.683  0.00  0.00    +0.136 C 
ATOM      2  C   UNL     1       3.516  -0.754   5.320  0.00  0.00    +0.036 C 
ATOM      3  C   UNL     1       4.847  -0.566   5.342  0.00  0.00    +0.017 C 
ATOM      4  C   UNL     1       5.443   0.649   6.032  0.00  0.00    +0.060 C 
ATOM      5  C   UNL     1       4.485   1.834   5.924  0.00  0.00    +0.036 C 
ATOM      6  C   UNL     1       3.166   1.430   6.595  0.00  0.00    +0.088 C 
ATOM      7  C   UNL     1       2.654   0.188   5.928  0.00  0.00    +0.163 C 
ATOM      8  O   UNL     1       1.456  -0.015   5.910  0.00  0.00    -0.292 OA
ATOM      9  N   UNL     1       5.755  -1.411   4.791  0.00  0.00    -0.316 N 
ATOM     10  C   UNL     1       5.659  -1.965   3.520  0.00  0.00    +0.052 A 
ATOM     11  C   UNL     1       6.561  -1.669   2.513  0.00  0.00    +0.025 A 
ATOM     12  C   UNL     1       6.436  -2.295   1.284  0.00  0.00    +0.002 A 
ATOM     13  C   UNL     1       5.419  -3.208   1.067  0.00  0.00    +0.002 A 
ATOM     14  C   UNL     1       4.505  -3.490   2.067  0.00  0.00    +0.025 A 
ATOM     15  C   UNL     1       4.616  -2.849   3.291  0.00  0.00    +0.049 A 
ATOM     16  N   UNL     1       3.659  -3.012   4.287  0.00  0.00    -0.331 N 
ATOM     17  H   UNL     1       6.649  -1.706   5.361  0.00  0.00    +0.152 HD
ATOM     18  H   UNL     1       3.564  -3.993   4.777  0.00  0.00    +0.147 HD
ENDROOT
BRANCH   1  22
ATOM     19  C   UNL     1       0.731  -0.505   1.222  0.00  0.00    -0.048 A 
ATOM     20  C   UNL     1       0.019  -1.021   2.289  0.00  0.00    +0.004 A 
ATOM     21  C   UNL     1       0.688  -1.483   3.407  0.00  0.00    +0.006 A 
ATOM     22  C   UNL     1       2.068  -1.420   3.462  0.00  0.00    -0.023 A 
ATOM     23  C   UNL     1       2.779  -0.899   2.398  0.00  0.00    +0.006 A 
ATOM     24  C   UNL     1       2.111  -0.441   1.278  0.00  0.00    +0.004 A 
BRANCH  19  26
ATOM     25  C   UNL     1      -0.161  -1.152  -1.000  0.00  0.00    +0.009 C 
ATOM     26  C   UNL     1       0.002  -0.006   0.001  0.00  0.00    +0.032 C 
ENDBRANCH  19  26
ENDBRANCH   1  22
BRANCH   5  27
ATOM     27  C   UNL     1       5.071   3.030   6.628  0.00  0.00    +0.002 A 
ATOM     28  C   UNL     1       5.356   2.966   7.978  0.00  0.00    +0.053 A 
ATOM     29  C   UNL     1       5.899   4.066   8.625  0.00  0.00    +0.121 A 
ATOM     30  C   UNL     1       6.146   5.234   7.919  0.00  0.00    +0.049 A 
ATOM     31  C   UNL     1       5.857   5.300   6.570  0.00  0.00    +0.049 A 
ATOM     32  C   UNL     1       5.318   4.198   5.922  0.00  0.00    +0.124 A 
BRANCH  32  33
ATOM     33  O   UNL     1       5.033   4.263   4.594  0.00  0.00    -0.495 OA
ATOM     34  C   UNL     1       5.314   5.497   3.929  0.00  0.00    +0.277 C 
ENDBRANCH  32  33
BRANCH  29  35
ATOM     35  O   UNL     1       6.184   4.001   9.953  0.00  0.00    -0.495 OA
ATOM     36  C   UNL     1       6.737   5.173  10.556  0.00  0.00    +0.277 C 
ENDBRANCH  29  35
ENDBRANCH   5  27
TORSDOF 5
