REMARK  Name = ZINC64502702
REMARK  9 active torsions:
REMARK  status: ('A' for Active; 'I' for Inactive)
REMARK    1  A    between atoms: C_1  and  O_2
REMARK    2  A    between atoms: O_2  and  C_3
REMARK    3  A    between atoms: C_3  and  C_4
REMARK    4  A    between atoms: C_8  and  C_11
REMARK    5  A    between atoms: N_13  and  C_14
REMARK    6  A    between atoms: C_18  and  C_20
REMARK    7  A    between atoms: N_22  and  C_23
REMARK    8  A    between atoms: C_23  and  C_24
REMARK    9  A    between atoms: C_24  and  C_25
REMARK                            x       y       z     vdW  Elec       q    Type
REMARK                         _______ _______ _______ _____ _____    ______ ____
ROOT
ATOM      1  C   UNL     1      -0.006  -7.607  -0.375  0.00  0.00    +0.034 A 
ATOM      2  C   UNL     1       1.215  -7.765   0.270  0.00  0.00    +0.023 A 
ATOM      3  C   UNL     1       1.618  -9.016   0.698  0.00  0.00    +0.003 A 
ATOM      4  C   UNL     1       0.812 -10.116   0.487  0.00  0.00    +0.013 A 
ATOM      5  C   UNL     1      -0.417  -9.967  -0.159  0.00  0.00    +0.038 A 
ATOM      6  C   UNL     1      -0.827  -8.704  -0.586  0.00  0.00    +0.036 A 
ENDROOT
BRANCH   1   9
ATOM      7  C   UNL     1      -1.713  -5.993  -0.759  0.00  0.00    +0.254 C 
ATOM      8  O   UNL     1      -2.544  -6.809  -0.421  0.00  0.00    -0.272 OA
ATOM      9  N   UNL     1      -0.411  -6.338  -0.806  0.00  0.00    -0.283 N 
ATOM     10  H   UNL     1       0.246  -5.707  -1.139  0.00  0.00    +0.155 HD
BRANCH   7  14
ATOM     11  C   UNL     1      -4.344  -4.567  -2.723  0.00  0.00    +0.213 C 
ATOM     12  N   UNL     1      -2.996  -4.344  -3.293  0.00  0.00    -0.174 NA
ATOM     13  N   UNL     1      -2.011  -4.356  -2.581  0.00  0.00    -0.167 NA
ATOM     14  C   UNL     1      -2.135  -4.593  -1.124  0.00  0.00    +0.272 C 
ATOM     15  S   UNL     1      -3.960  -4.367  -0.926  0.00  0.00    -0.093 S 
BRANCH  11  16
ATOM     16  C   UNL     1      -5.335  -3.505  -3.203  0.00  0.00    +0.199 C 
BRANCH  16  18
ATOM     17  C   UNL     1      -5.671  -1.135  -3.323  0.00  0.00    +0.194 C 
ATOM     18  O   UNL     1      -4.817  -2.205  -2.913  0.00  0.00    -0.380 OA
ENDBRANCH  16  18
ENDBRANCH  11  16
ENDBRANCH   7  14
ENDBRANCH   1   9
BRANCH   5  19
ATOM     19  C   UNL     1      -1.283 -11.144  -0.386  0.00  0.00    +0.244 C 
ATOM     20  O   UNL     1      -2.352 -11.012  -0.949  0.00  0.00    -0.270 OA
ATOM     21  N   UNL     1      -0.887 -12.363   0.032  0.00  0.00    -0.311 N 
ATOM     22  H   UNL     1      -0.034 -12.468   0.481  0.00  0.00    +0.149 HD
BRANCH  21  23
ATOM     23  C   UNL     1      -1.745 -13.528  -0.192  0.00  0.00    +0.109 C 
BRANCH  23  24
ATOM     24  C   UNL     1      -1.067 -14.778   0.373  0.00  0.00    +0.052 C 
BRANCH  24  25
ATOM     25  C   UNL     1      -1.950 -15.977   0.142  0.00  0.00    -0.040 C 
ATOM     26  C   UNL     1      -1.880 -16.852  -0.886  0.00  0.00    +0.000 A 
ATOM     27  C   UNL     1      -0.995 -16.945  -2.054  0.00  0.00    +0.030 A 
ATOM     28  C   UNL     1      -1.174 -17.958  -2.934  0.00  0.00    +0.042 A 
ATOM     29  C   UNL     1      -2.181 -18.918  -2.758  0.00  0.00    +0.022 A 
ATOM     30  C   UNL     1      -3.032 -18.898  -1.710  0.00  0.00    +0.027 A 
ATOM     31  C   UNL     1      -2.934 -17.878  -0.724  0.00  0.00    +0.043 A 
ATOM     32  N   UNL     1      -3.629 -17.646   0.364  0.00  0.00    -0.380 N 
ATOM     33  C   UNL     1      -3.089 -16.450   1.018  0.00  0.00    +0.144 C 
ATOM     34 CL   UNL     1      -0.129 -18.071  -4.316  0.00  0.00    -0.084 Cl
ATOM     35  H   UNL     1      -4.373 -18.180   0.684  0.00  0.00    +0.160 HD
ENDBRANCH  24  25
ENDBRANCH  23  24
ENDBRANCH  21  23
ENDBRANCH   5  19
TORSDOF 8
