REMARK  Name = ZINC36588714
REMARK  20 active torsions:
REMARK  status: ('A' for Active; 'I' for Inactive)
REMARK    1  A    between atoms: C_1  and  C_2
REMARK    2  A    between atoms: C_3  and  C_4
REMARK    3  A    between atoms: C_4  and  C_6
REMARK    4  A    between atoms: C_4  and  N_17
REMARK    5  A    between atoms: N_8  and  C_9
REMARK    6  A    between atoms: C_9  and  C_10
REMARK    7  A    between atoms: C_9  and  C_11
REMARK    8  A    between atoms: C_9  and  C_12
REMARK    9  A    between atoms: C_12  and  C_13
REMARK   10  A    between atoms: C_13  and  C_14
REMARK   11  A    between atoms: C_13  and  C_15
REMARK   12  A    between atoms: C_13  and  C_16
REMARK   13  A    between atoms: N_17  and  C_34
REMARK   14  A    between atoms: C_18  and  C_20
REMARK   15  A    between atoms: C_20  and  C_21
REMARK   16  A    between atoms: C_20  and  C_27
REMARK   17  A    between atoms: C_20  and  O_33
REMARK   18  A    between atoms: C_34  and  C_35
REMARK   19  A    between atoms: C_34  and  C_36
REMARK   20  A    between atoms: C_34  and  C_37
REMARK                            x       y       z     vdW  Elec       q    Type
REMARK                         _______ _______ _______ _____ _____    ______ ____
ROOT
ATOM      1  N   UNL     1       1.003   0.513  -1.042  0.00  0.00    -0.279 N 
ATOM      2  C   UNL     1       2.064   0.205  -1.813  0.00  0.00    +0.258 C 
ATOM      3  O   UNL     1       2.181  -0.914  -2.265  0.00  0.00    -0.272 OA
ENDROOT
BRANCH   1   4
ATOM      4  C   UNL     1       0.691   1.915  -0.751  0.00  0.00    +0.030 C 
ATOM      5  C   UNL     1       1.403   2.339   0.535  0.00  0.00    +0.031 C 
ATOM      6  C   UNL     1       1.164   2.794  -1.911  0.00  0.00    +0.031 C 
ATOM      7  C   UNL     1      -0.821   2.075  -0.574  0.00  0.00    +0.031 C 
ENDBRANCH   1   4
BRANCH   1   8
ATOM      8  C   UNL     1       0.161  -0.553  -0.495  0.00  0.00    +0.185 C 
BRANCH   8   9
ATOM      9  C   UNL     1      -0.345  -1.421  -1.619  0.00  0.00    +0.238 C 
ATOM     10  O   UNL     1      -0.105  -1.123  -2.770  0.00  0.00    -0.273 OA
ATOM     11  N   UNL     1      -1.064  -2.527  -1.346  0.00  0.00    -0.308 N 
ATOM     12  H   UNL     1      -1.256  -2.766  -0.425  0.00  0.00    +0.149 HD
BRANCH  11  13
ATOM     13  C   UNL     1      -1.556  -3.370  -2.438  0.00  0.00    +0.030 C 
ATOM     14  C   UNL     1      -2.712  -2.663  -3.148  0.00  0.00    +0.031 C 
ATOM     15  C   UNL     1      -0.424  -3.623  -3.436  0.00  0.00    +0.031 C 
BRANCH  13  16
ATOM     16  C   UNL     1      -2.044  -4.705  -1.873  0.00  0.00    +0.031 C 
BRANCH  16  17
ATOM     17  C   UNL     1      -1.111  -5.154  -0.747  0.00  0.00    -0.036 C 
ATOM     18  C   UNL     1      -1.427  -4.363   0.524  0.00  0.00    +0.010 C 
ATOM     19  C   UNL     1      -1.313  -6.647  -0.481  0.00  0.00    +0.010 C 
ATOM     20  C   UNL     1       0.341  -4.901  -1.157  0.00  0.00    +0.010 C 
ENDBRANCH  16  17
ENDBRANCH  13  16
ENDBRANCH  11  13
ENDBRANCH   8   9
BRANCH   8  23
ATOM     21  C   UNL     1      -0.790  -1.032   2.115  0.00  0.00    +0.035 C 
ATOM     22  C   UNL     1       0.552  -1.570   1.690  0.00  0.00    -0.032 C 
ATOM     23  C   UNL     1       0.969  -1.392   0.461  0.00  0.00    +0.000 C 
ENDBRANCH   8  23
ENDBRANCH   1   8
BRANCH   2  24
ATOM     24  C   UNL     1       3.107   1.251  -2.114  0.00  0.00    +0.192 C 
BRANCH  24  25
ATOM     25  C   UNL     1       3.461   1.986  -0.846  0.00  0.00    -0.003 A 
ATOM     26  C   UNL     1       3.753   1.277   0.304  0.00  0.00    +0.007 A 
ATOM     27  C   UNL     1       4.078   1.951   1.467  0.00  0.00    +0.000 A 
ATOM     28  C   UNL     1       4.111   3.333   1.479  0.00  0.00    +0.000 A 
ATOM     29  C   UNL     1       3.820   4.041   0.328  0.00  0.00    +0.000 A 
ATOM     30  C   UNL     1       3.499   3.367  -0.835  0.00  0.00    +0.007 A 
ENDBRANCH  24  25
BRANCH  24  31
ATOM     31  C   UNL     1       4.339   0.587  -2.671  0.00  0.00    -0.003 A 
ATOM     32  C   UNL     1       4.638  -0.717  -2.325  0.00  0.00    +0.007 A 
ATOM     33  C   UNL     1       5.769  -1.327  -2.836  0.00  0.00    +0.000 A 
ATOM     34  C   UNL     1       6.600  -0.631  -3.693  0.00  0.00    +0.000 A 
ATOM     35  C   UNL     1       6.301   0.673  -4.040  0.00  0.00    +0.000 A 
ATOM     36  C   UNL     1       5.168   1.281  -3.532  0.00  0.00    +0.007 A 
ENDBRANCH  24  31
BRANCH  24  37
ATOM     37  O   UNL     1       2.590   2.177  -3.072  0.00  0.00    -0.371 OA
ATOM     38  H   UNL     1       2.272   1.764  -3.886  0.00  0.00    +0.212 HD
ENDBRANCH  24  37
ENDBRANCH   2  24
TORSDOF 11
