REMARK  Name = ZINC46017408
REMARK  3 active torsions:
REMARK  status: ('A' for Active; 'I' for Inactive)
REMARK    1  A    between atoms: C_6  and  N_7
REMARK    2  A    between atoms: N_7  and  S_8
REMARK    3  A    between atoms: S_8  and  C_11
REMARK                            x       y       z     vdW  Elec       q    Type
REMARK                         _______ _______ _______ _____ _____    ______ ____
ROOT
ATOM      1  C   UNL     1      -0.017   1.386   0.010  0.00  0.00    +0.029 A 
ATOM      2  C   UNL     1       1.149   2.113   0.002  0.00  0.00    +0.029 A 
ATOM      3  C   UNL     1       2.400   1.475  -0.013  0.00  0.00    +0.056 A 
ATOM      4  C   UNL     1       2.389   0.072  -0.020  0.00  0.00    +0.042 A 
ATOM      5  C   UNL     1       1.228  -0.661  -0.014  0.00  0.00    +0.044 A 
ATOM      6  C   UNL     1       0.002  -0.004   0.002  0.00  0.00    +0.075 A 
ATOM      7  S   UNL     1       4.115  -0.347  -0.039  0.00  0.00    -0.027 S 
ATOM      8  C   UNL     1       4.770   1.314  -0.036  0.00  0.00    +0.289 A 
ATOM      9  O   UNL     1       5.933   1.674  -0.044  0.00  0.00    -0.260 OA
ATOM     10  N   UNL     1       3.654   2.068  -0.021  0.00  0.00    -0.316 N 
ATOM     11  H   UNL     1       3.728   3.035  -0.017  0.00  0.00    +0.169 HD
ENDROOT
BRANCH   6  12
ATOM     12  N   UNL     1      -1.193  -0.731   0.009  0.00  0.00    -0.097 NA
BRANCH  12  13
ATOM     13  S   UNL     1      -2.646   0.065   0.028  0.00  0.00    +0.098 S 
ATOM     14  O   UNL     1      -2.726   0.736   1.277  0.00  0.00    -0.148 OA
ATOM     15  O   UNL     1      -2.749   0.749  -1.213  0.00  0.00    -0.148 OA
BRANCH  13  16
ATOM     16  C   UNL     1      -3.911  -1.162   0.033  0.00  0.00    +0.149 A 
ATOM     17  C   UNL     1      -4.518  -1.757   1.089  0.00  0.00    +0.038 A 
ATOM     18  C   UNL     1      -5.497  -2.704   0.853  0.00  0.00    +0.025 A 
ATOM     19  C   UNL     1      -5.821  -3.009  -0.429  0.00  0.00    +0.057 A 
ATOM     20  S   UNL     1      -4.732  -1.936  -1.350  0.00  0.00    -0.061 S 
ATOM     21 BR   UNL     1      -7.100  -4.244  -1.072  0.00  0.00    -0.043 Br
ENDBRANCH  13  16
ENDBRANCH  12  13
ENDBRANCH   6  12
TORSDOF 3
