REMARK  Name = ZINC65061487
REMARK  9 active torsions:
REMARK  status: ('A' for Active; 'I' for Inactive)
REMARK    1  A    between atoms: C_1  and  C_2
REMARK    2  A    between atoms: C_2  and  N_3
REMARK    3  A    between atoms: C_9  and  C_11
REMARK    4  A    between atoms: C_11  and  C_13
REMARK    5  A    between atoms: C_11  and  C_14
REMARK    6  A    between atoms: N_17  and  S_20
REMARK    7  A    between atoms: S_20  and  C_23
REMARK    8  A    between atoms: C_24  and  C_29
REMARK    9  A    between atoms: C_27  and  C_28
REMARK                            x       y       z     vdW  Elec       q    Type
REMARK                         _______ _______ _______ _____ _____    ______ ____
ROOT
ATOM      1  C   UNL     1      -5.037  -4.795  -2.630  0.00  0.00    +0.003 C 
ATOM      2  C   UNL     1      -5.008  -6.324  -2.674  0.00  0.00    +0.021 C 
ATOM      3  C   UNL     1      -5.747  -6.810  -3.924  0.00  0.00    +0.110 C 
ATOM      4  N   UNL     1      -7.097  -6.232  -3.930  0.00  0.00    -0.176 NA
ATOM      5  C   UNL     1      -7.243  -4.776  -3.801  0.00  0.00    +0.110 C 
ATOM      6  C   UNL     1      -6.487  -4.313  -2.552  0.00  0.00    +0.021 C 
ENDROOT
BRANCH   4   7
ATOM      7  S   UNL     1      -8.430  -7.203  -4.079  0.00  0.00    +0.066 S 
ATOM      8  O   UNL     1      -9.470  -6.389  -4.602  0.00  0.00    -0.153 OA
ATOM      9  O   UNL     1      -7.996  -8.393  -4.724  0.00  0.00    -0.153 OA
BRANCH   7  10
ATOM     10  C   UNL     1      -8.923  -7.665  -2.451  0.00  0.00    +0.170 A 
ATOM     11  C   UNL     1      -8.475  -8.794  -1.742  0.00  0.00    +0.107 A 
ATOM     12  N   UNL     1      -9.060  -8.798  -0.578  0.00  0.00    -0.081 NA
ATOM     13  O   UNL     1      -9.904  -7.663  -0.510  0.00  0.00    -0.358 OA
ATOM     14  C   UNL     1      -9.789  -6.995  -1.668  0.00  0.00    +0.161 A 
ATOM     15  C   UNL     1     -10.507  -5.720  -2.029  0.00  0.00    +0.091 C 
ATOM     16  C   UNL     1      -7.491  -9.820  -2.242  0.00  0.00    +0.071 C 
ENDBRANCH   7  10
ENDBRANCH   4   7
BRANCH   1  17
ATOM     17  C   UNL     1      -4.270  -4.305  -1.400  0.00  0.00    +0.075 C 
ATOM     18  C   UNL     1      -2.820  -4.787  -1.478  0.00  0.00    +0.017 C 
BRANCH  17  25
ATOM     19  N   UNL     1      -4.706  -0.840   2.207  0.00  0.00    +0.382 N 
ATOM     20  C   UNL     1      -4.976  -2.279   2.089  0.00  0.00    -0.060 C 
ATOM     21  C   UNL     1      -4.007  -2.898   1.077  0.00  0.00    +0.089 C 
ATOM     22  N   UNL     1      -4.116  -2.154  -0.188  0.00  0.00    -0.305 N 
ATOM     23  C   UNL     1      -4.020  -0.687  -0.140  0.00  0.00    +0.089 C 
ATOM     24  C   UNL     1      -4.989  -0.172   0.930  0.00  0.00    -0.060 C 
ATOM     25  C   UNL     1      -4.297  -2.799  -1.358  0.00  0.00    +0.219 C 
ATOM     26  O   UNL     1      -4.483  -2.167  -2.376  0.00  0.00    -0.275 OA
ATOM     27  H   UNL     1      -3.737  -0.701   2.450  0.00  0.00    -0.082 HD
BRANCH  19  29
ATOM     28  C   UNL     1      -5.180  -0.873   4.609  0.00  0.00    -0.017 C 
ATOM     29  C   UNL     1      -5.560  -0.268   3.256  0.00  0.00    -0.082 C 
ENDBRANCH  19  29
ENDBRANCH  17  25
ENDBRANCH   1  17
TORSDOF 5
