REMARK  Name = ZINC32753735
REMARK  8 active torsions:
REMARK  status: ('A' for Active; 'I' for Inactive)
REMARK    1  A    between atoms: C_1  and  C_2
REMARK    2  A    between atoms: C_5  and  S_7
REMARK    3  A    between atoms: S_7  and  N_10
REMARK    4  A    between atoms: C_14  and  C_16
REMARK    5  A    between atoms: N_18  and  C_19
REMARK    6  A    between atoms: C_23  and  N_26
REMARK    7  A    between atoms: C_24  and  C_25
REMARK    8  A    between atoms: C_27  and  C_29
REMARK                            x       y       z     vdW  Elec       q    Type
REMARK                         _______ _______ _______ _____ _____    ______ ____
ROOT
ATOM      1  C   UNL     1       0.577   5.886  -0.062  0.00  0.00    +0.236 C 
ATOM      2  O   UNL     1       1.523   5.210  -0.405  0.00  0.00    -0.274 OA
ATOM      3  N   UNL     1      -0.445   5.322   0.612  0.00  0.00    -0.284 N 
ATOM      4  H   UNL     1      -1.344   5.912   0.843  0.00  0.00    +0.155 HD
ENDROOT
BRANCH   3   5
ATOM      5  C   UNL     1      -0.361   3.986   1.019  0.00  0.00    +0.038 A 
ATOM      6  C   UNL     1       0.876   3.361   1.104  0.00  0.00    +0.024 A 
ATOM      7  C   UNL     1       0.960   2.042   1.506  0.00  0.00    +0.004 A 
ATOM      8  C   UNL     1      -0.187   1.340   1.824  0.00  0.00    +0.024 A 
ATOM      9  C   UNL     1      -1.428   1.957   1.736  0.00  0.00    +0.038 A 
ATOM     10  C   UNL     1      -1.515   3.284   1.339  0.00  0.00    -0.008 A 
ATOM     11  C   UNL     1      -2.859   3.959   1.247  0.00  0.00    +0.047 C 
BRANCH   9  12
ATOM     12  N   UNL     1      -2.589   1.244   2.054  0.00  0.00    -0.285 N 
ATOM     13  C   UNL     1      -2.516   0.152   2.840  0.00  0.00    +0.214 C 
ATOM     14  O   UNL     1      -1.462  -0.153   3.357  0.00  0.00    -0.276 OA
ATOM     15  C   UNL     1      -3.743  -0.690   3.077  0.00  0.00    +0.109 C 
ATOM     16  H   UNL     1      -3.562   1.575   1.661  0.00  0.00    +0.155 HD
ENDBRANCH   9  12
ENDBRANCH   3   5
BRANCH   1  21
ATOM     17  N   UNL     1       1.912   7.880  -0.542  0.00  0.00    -0.164 NA
ATOM     18  C   UNL     1       1.919   8.875  -1.624  0.00  0.00    +0.110 C 
ATOM     19  C   UNL     1       0.484   8.951  -2.186  0.00  0.00    +0.019 C 
ATOM     20  C   UNL     1      -0.125   7.586  -1.769  0.00  0.00    +0.031 C 
ATOM     21  C   UNL     1       0.543   7.357  -0.390  0.00  0.00    +0.166 C 
BRANCH  17  22
ATOM     22  S   UNL     1       3.225   7.424   0.358  0.00  0.00    +0.068 S 
ATOM     23  O   UNL     1       4.012   8.592   0.550  0.00  0.00    -0.152 OA
ATOM     24  O   UNL     1       2.727   6.654   1.443  0.00  0.00    -0.152 OA
BRANCH  22  29
ATOM     25  C   UNL     1       5.976   3.029  -2.492  0.00  0.00    +0.051 C 
ATOM     26  C   UNL     1       5.427   4.313  -1.924  0.00  0.00    -0.011 A 
ATOM     27  C   UNL     1       5.739   5.591  -2.250  0.00  0.00    +0.013 A 
ATOM     28  C   UNL     1       5.101   6.625  -1.590  0.00  0.00    +0.036 A 
ATOM     29  C   UNL     1       4.184   6.330  -0.637  0.00  0.00    +0.143 A 
ATOM     30  S   UNL     1       4.204   4.545  -0.645  0.00  0.00    -0.074 S 
ENDBRANCH  22  29
ENDBRANCH  17  22
ENDBRANCH   1  21
TORSDOF 5
