REMARK  Name = ZINC59891105
REMARK  8 active torsions:
REMARK  status: ('A' for Active; 'I' for Inactive)
REMARK    1  A    between atoms: C_1  and  C_2
REMARK    2  A    between atoms: C_7  and  C_9
REMARK    3  A    between atoms: C_7  and  N_27
REMARK    4  A    between atoms: C_9  and  N_10
REMARK    5  A    between atoms: C_11  and  C_13
REMARK    6  A    between atoms: C_13  and  C_14
REMARK    7  A    between atoms: N_27  and  C_28
REMARK    8  A    between atoms: N_27  and  C_29
REMARK                            x       y       z     vdW  Elec       q    Type
REMARK                         _______ _______ _______ _____ _____    ______ ____
ROOT
ATOM      1  N   UNL     1       2.821  -1.812  -0.209  0.00  0.00    -0.317 N 
ATOM      2  C   UNL     1       3.509  -1.954  -1.359  0.00  0.00    +0.215 C 
ATOM      3  O   UNL     1       2.943  -2.339  -2.360  0.00  0.00    -0.276 OA
ATOM      4  H   UNL     1       3.273  -1.504   0.592  0.00  0.00    +0.149 HD
ENDROOT
BRANCH   1   5
ATOM      5  C   UNL     1       1.390  -2.124  -0.168  0.00  0.00    +0.092 C 
BRANCH   5  11
ATOM      6  C   UNL     1       0.315   1.904   0.992  0.00  0.00    +0.007 C 
ATOM      7  C   UNL     1       0.182   0.424   0.626  0.00  0.00    -0.015 C 
ATOM      8  C   UNL     1      -1.290   0.013   0.691  0.00  0.00    +0.003 C 
ATOM      9  C   UNL     1      -1.422  -1.467   0.326  0.00  0.00    -0.001 C 
ATOM     10  C   UNL     1      -0.613  -2.310   1.314  0.00  0.00    -0.010 C 
ATOM     11  C   UNL     1       0.859  -1.899   1.249  0.00  0.00    -0.050 C 
ATOM     12  C   UNL     1       0.992  -0.419   1.614  0.00  0.00    -0.007 C 
BRANCH  11  13
ATOM     13  N   UNL     1       1.636  -2.708   2.197  0.00  0.00    +0.381 N 
ATOM     14  C   UNL     1       1.078  -2.552   3.547  0.00  0.00    -0.096 C 
ATOM     15  C   UNL     1       1.572  -4.122   1.802  0.00  0.00    -0.096 C 
ATOM     16  H   UNL     1       2.597  -2.401   2.193  0.00  0.00    -0.082 HD
ENDBRANCH  11  13
ENDBRANCH   5  11
ENDBRANCH   1   5
BRANCH   2  17
ATOM     17  C   UNL     1       4.981  -1.633  -1.401  0.00  0.00    +0.119 C 
BRANCH  17  18
ATOM     18  C   UNL     1       5.516  -1.877  -2.814  0.00  0.00    +0.146 C 
ATOM     19  C   UNL     1       7.008  -1.666  -2.834  0.00  0.00    +0.231 C 
ATOM     20  O   UNL     1       7.729  -2.639  -2.762  0.00  0.00    -0.274 OA
ATOM     21  N   UNL     1       7.572  -0.467  -2.927  0.00  0.00    -0.284 N 
ATOM     22  C   UNL     1       6.919   0.745  -3.134  0.00  0.00    +0.048 A 
ATOM     23  C   UNL     1       7.592   1.933  -2.866  0.00  0.00    +0.044 A 
ATOM     24  C   UNL     1       6.962   3.148  -3.054  0.00  0.00    +0.043 A 
ATOM     25  C   UNL     1       5.656   3.198  -3.509  0.00  0.00    +0.021 A 
ATOM     26  C   UNL     1       4.977   2.025  -3.783  0.00  0.00    +0.018 A 
ATOM     27  C   UNL     1       5.606   0.804  -3.600  0.00  0.00    +0.030 A 
ATOM     28  S   UNL     1       4.747  -0.701  -3.970  0.00  0.00    -0.110 S 
ATOM     29 CL   UNL     1       7.814   4.622  -2.716  0.00  0.00    -0.083 Cl
ATOM     30  H   UNL     1       8.537  -0.432  -2.841  0.00  0.00    +0.155 HD
ENDBRANCH  17  18
ENDBRANCH   2  17
TORSDOF 5
