REMARK  Name = ZINC03323738
REMARK  2 active torsions:
REMARK  status: ('A' for Active; 'I' for Inactive)
REMARK    1  A    between atoms: C_10  and  C_12
REMARK    2  A    between atoms: C_12  and  N_13
REMARK                            x       y       z     vdW  Elec       q    Type
REMARK                         _______ _______ _______ _____ _____    ______ ____
ROOT
ATOM      1  N   UNL     1       2.714   4.795   1.221  0.00  0.00    -0.215 N 
ATOM      2  C   UNL     1       1.577   4.092   1.399  0.00  0.00    +0.252 C 
ATOM      3  O   UNL     1       0.987   3.902   2.441  0.00  0.00    -0.272 OA
ATOM      4  C   UNL     1       1.192   3.592   0.026  0.00  0.00    +0.144 C 
ATOM      5  C   UNL     1      -0.168   4.150  -0.380  0.00  0.00    +0.081 C 
ATOM      6  C   UNL     1      -1.252   3.395   0.402  0.00  0.00    +0.232 C 
ATOM      7  O   UNL     1      -1.217   2.022   0.014  0.00  0.00    -0.492 OA
ATOM      8  C   UNL     1      -0.017   1.386   0.010  0.00  0.00    +0.126 A 
ATOM      9  C   UNL     1       1.177   2.089   0.002  0.00  0.00    +0.027 A 
ATOM     10  C   UNL     1       2.379   1.403  -0.023  0.00  0.00    +0.010 A 
ATOM     11  C   UNL     1       2.394   0.021  -0.032  0.00  0.00    +0.001 A 
ATOM     12  C   UNL     1       1.204  -0.682  -0.018  0.00  0.00    +0.004 A 
ATOM     13  C   UNL     1       0.002  -0.004   0.002  0.00  0.00    +0.046 A 
ATOM     14  N   UNL     1       2.247   4.112  -0.852  0.00  0.00    -0.281 N 
ATOM     15  C   UNL     1       3.092   4.804  -0.063  0.00  0.00    +0.310 C 
ATOM     16  O   UNL     1       4.086   5.372  -0.471  0.00  0.00    -0.252 OA
ATOM     17  H   UNL     1       2.322   3.983  -1.810  0.00  0.00    +0.152 HD
ENDROOT
BRANCH   1  18
ATOM     18  C   UNL     1       3.445   5.467   2.299  0.00  0.00    +0.214 C 
BRANCH  18  28
ATOM     19  C   UNL     1       5.478   8.569   5.896  0.00  0.00    +0.000 A 
ATOM     20  C   UNL     1       4.544   8.465   4.882  0.00  0.00    +0.002 A 
ATOM     21  C   UNL     1       4.413   7.287   4.178  0.00  0.00    +0.024 A 
ATOM     22  C   UNL     1       5.226   6.193   4.479  0.00  0.00    +0.040 A 
ATOM     23  C   UNL     1       6.155   6.306   5.501  0.00  0.00    -0.024 A 
ATOM     24  C   UNL     1       6.282   7.489   6.204  0.00  0.00    +0.005 A 
ATOM     25  C   UNL     1       6.893   4.992   5.628  0.00  0.00    +0.056 C 
ATOM     26  C   UNL     1       6.269   4.092   4.549  0.00  0.00    +0.118 C 
ATOM     27  N   UNL     1       5.250   4.921   3.899  0.00  0.00    -0.270 N 
ATOM     28  C   UNL     1       4.457   4.518   2.886  0.00  0.00    +0.238 C 
ATOM     29  O   UNL     1       4.559   3.392   2.447  0.00  0.00    -0.274 OA
ENDBRANCH  18  28
ENDBRANCH   1  18
TORSDOF 2
