REMARK  Name = ZINC14747394
REMARK  11 active torsions:
REMARK  status: ('A' for Active; 'I' for Inactive)
REMARK    1  A    between atoms: C_1  and  C_2
REMARK    2  A    between atoms: C_5  and  C_7
REMARK    3  A    between atoms: C_7  and  C_9
REMARK    4  A    between atoms: C_7  and  C_10
REMARK    5  A    between atoms: C_10  and  C_11
REMARK    6  A    between atoms: C_11  and  N_66
REMARK    7  A    between atoms: C_16  and  C_26
REMARK    8  A    between atoms: N_18  and  C_19
REMARK    9  A    between atoms: C_19  and  C_20
REMARK   10  A    between atoms: N_28  and  C_29
REMARK   11  A    between atoms: C_29  and  C_30
REMARK                            x       y       z     vdW  Elec       q    Type
REMARK                         _______ _______ _______ _____ _____    ______ ____
ROOT
ATOM      1  C   UNL     1      -6.362  -0.536   4.355  0.00  0.00    -0.072 C 
ATOM      2  C   UNL     1      -7.483  -1.568   4.546  0.00  0.00    +0.037 C 
ATOM      3  C   UNL     1      -8.087  -1.848   3.194  0.00  0.00    +0.040 A 
ATOM      4  C   UNL     1      -7.888  -1.045   2.116  0.00  0.00    -0.011 A 
ATOM      5  C   UNL     1      -8.600  -1.635   1.061  0.00  0.00    +0.149 A 
ATOM      6  N   UNL     1      -9.171  -2.723   1.551  0.00  0.00    -0.166 NA
ATOM      7  N   UNL     1      -8.877  -2.856   2.799  0.00  0.00    -0.263 N 
ATOM      8  C   UNL     1      -7.058   0.208   2.146  0.00  0.00    -0.039 C 
ATOM      9  N   UNL     1      -6.884   0.603   3.567  0.00  0.00    +0.383 N 
ATOM     10  H   UNL     1      -7.796   0.881   3.949  0.00  0.00    -0.081 HD
ENDROOT
BRANCH   5  11
ATOM     11  C   UNL     1      -8.694  -1.137  -0.327  0.00  0.00    +0.265 C 
ATOM     12  O   UNL     1      -8.116  -0.116  -0.647  0.00  0.00    -0.268 OA
ATOM     13  N   UNL     1      -9.420  -1.815  -1.238  0.00  0.00    -0.304 N 
ATOM     14  H   UNL     1      -9.881  -2.629  -0.982  0.00  0.00    +0.149 HD
BRANCH  13  15
ATOM     15  C   UNL     1      -9.513  -1.321  -2.614  0.00  0.00    +0.167 C 
BRANCH  15  16
ATOM     16  C   UNL     1     -10.377  -2.253  -3.424  0.00  0.00    +0.095 A 
ATOM     17  N   UNL     1     -11.676  -2.220  -3.612  0.00  0.00    -0.251 NA
ATOM     18  C   UNL     1     -12.285  -3.115  -4.361  0.00  0.00    +0.119 A 
ATOM     19  C   UNL     1     -11.538  -4.093  -4.934  0.00  0.00    +0.066 A 
ATOM     20  S   UNL     1      -9.910  -3.650  -4.344  0.00  0.00    -0.079 S 
ENDBRANCH  15  16
ENDBRANCH  13  15
ENDBRANCH   5  11
BRANCH   9  21
ATOM     21  C   UNL     1      -5.955   1.748   3.661  0.00  0.00    -0.078 C 
BRANCH  21  22
ATOM     22  C   UNL     1      -4.610   1.407   3.017  0.00  0.00    -0.008 C 
BRANCH  22  23
ATOM     23  C   UNL     1      -3.672   2.610   3.127  0.00  0.00    +0.050 C 
ATOM     24  C   UNL     1      -4.232   3.771   2.303  0.00  0.00    +0.015 C 
BRANCH  23  29
ATOM     25  C   UNL     1      -0.013   1.086   0.008  0.00  0.00    +0.086 C 
ATOM     26  C   UNL     1      -0.718   1.572   1.248  0.00  0.00    +0.102 A 
ATOM     27  C   UNL     1      -0.136   1.835   2.432  0.00  0.00    +0.044 A 
ATOM     28  C   UNL     1      -1.162   2.263   3.306  0.00  0.00    +0.045 A 
ATOM     29  C   UNL     1      -2.309   2.234   2.604  0.00  0.00    +0.108 A 
ATOM     30  O   UNL     1      -2.033   1.821   1.357  0.00  0.00    -0.465 OA
ENDBRANCH  23  29
ENDBRANCH  22  23
ENDBRANCH  21  22
ENDBRANCH   9  21
BRANCH   7  31
ATOM     31  C   UNL     1      -9.340  -3.947   3.660  0.00  0.00    +0.179 C 
BRANCH  31  32
ATOM     32  C   UNL     1     -10.646  -3.559   4.304  0.00  0.00    -0.026 A 
ATOM     33  C   UNL     1     -10.648  -2.912   5.526  0.00  0.00    +0.005 A 
ATOM     34  C   UNL     1     -11.845  -2.552   6.115  0.00  0.00    +0.000 A 
ATOM     35  C   UNL     1     -13.041  -2.849   5.488  0.00  0.00    +0.000 A 
ATOM     36  C   UNL     1     -13.039  -3.501   4.269  0.00  0.00    +0.000 A 
ATOM     37  C   UNL     1     -11.841  -3.856   3.677  0.00  0.00    +0.005 A 
ENDBRANCH  31  32
ENDBRANCH   7  31
TORSDOF 9
