REMARK  Name = ZINC20293877
REMARK  13 active torsions:
REMARK  status: ('A' for Active; 'I' for Inactive)
REMARK    1  A    between atoms: C_1  and  C_2
REMARK    2  A    between atoms: C_3  and  C_34
REMARK    3  A    between atoms: C_4  and  C_33
REMARK    4  A    between atoms: C_5  and  S_10
REMARK    5  A    between atoms: C_6  and  C_9
REMARK    6  A    between atoms: C_7  and  C_8
REMARK    7  A    between atoms: S_10  and  N_13
REMARK    8  A    between atoms: C_16  and  C_19
REMARK    9  A    between atoms: N_21  and  N_22
REMARK   10  A    between atoms: C_23  and  C_24
REMARK   11  A    between atoms: C_23  and  C_25
REMARK   12  A    between atoms: C_28  and  O_32
REMARK   13  A    between atoms: C_30  and  O_31
REMARK                            x       y       z     vdW  Elec       q    Type
REMARK                         _______ _______ _______ _____ _____    ______ ____
ROOT
ATOM      1  N   UNL     1       0.289  -5.425   0.342  0.00  0.00    -0.177 NA
ATOM      2  C   UNL     1       0.856  -6.094  -0.837  0.00  0.00    +0.110 C 
ATOM      3  C   UNL     1       2.371  -5.869  -0.851  0.00  0.00    +0.030 C 
ATOM      4  C   UNL     1       2.965  -6.333   0.481  0.00  0.00    +0.079 C 
ATOM      5  C   UNL     1       2.364  -5.511   1.624  0.00  0.00    +0.030 C 
ATOM      6  C   UNL     1       0.853  -5.728   1.665  0.00  0.00    +0.110 C 
ENDROOT
BRANCH   4   7
ATOM      7  C   UNL     1       4.460  -6.144   0.459  0.00  0.00    +0.235 C 
ATOM      8  O   UNL     1       4.998  -5.684  -0.526  0.00  0.00    -0.274 OA
ATOM      9  N   UNL     1       5.199  -6.488   1.532  0.00  0.00    -0.207 N 
ATOM     10  H   UNL     1       4.768  -6.856   2.319  0.00  0.00    +0.177 HD
BRANCH   9  11
ATOM     11  N   UNL     1       6.588  -6.312   1.511  0.00  0.00    -0.184 NA
ATOM     12  C   UNL     1       7.301  -6.643   2.545  0.00  0.00    +0.067 C 
ATOM     13  C   UNL     1       6.632  -7.216   3.768  0.00  0.00    +0.068 C 
BRANCH  12  14
ATOM     14  C   UNL     1       8.762  -6.458   2.522  0.00  0.00    +0.039 A 
ATOM     15  C   UNL     1       9.531  -6.819   3.631  0.00  0.00    +0.017 A 
ATOM     16  C   UNL     1      10.898  -6.645   3.606  0.00  0.00    +0.046 A 
ATOM     17  C   UNL     1      11.515  -6.111   2.481  0.00  0.00    +0.120 A 
ATOM     18  C   UNL     1      10.759  -5.750   1.375  0.00  0.00    +0.091 A 
ATOM     19  C   UNL     1       9.387  -5.926   1.385  0.00  0.00    +0.129 A 
BRANCH  19  20
ATOM     20  O   UNL     1       8.647  -5.578   0.301  0.00  0.00    -0.506 OA
ATOM     21  H   UNL     1       8.335  -4.662   0.315  0.00  0.00    +0.292 HD
ENDBRANCH  19  20
BRANCH  17  22
ATOM     22  O   UNL     1      12.862  -5.943   2.464  0.00  0.00    -0.507 OA
ATOM     23  H   UNL     1      13.350  -6.707   2.127  0.00  0.00    +0.292 HD
ENDBRANCH  17  22
ENDBRANCH  12  14
ENDBRANCH   9  11
ENDBRANCH   4   7
BRANCH   1  24
ATOM     24  S   UNL     1      -0.957  -4.346   0.183  0.00  0.00    +0.061 S 
ATOM     25  O   UNL     1      -1.684  -4.383   1.403  0.00  0.00    -0.153 OA
ATOM     26  O   UNL     1      -1.564  -4.610  -1.075  0.00  0.00    -0.153 OA
BRANCH  24  31
ATOM     27  C   UNL     1       1.491   1.155  -0.202  0.00  0.00    +0.044 C 
ATOM     28  C   UNL     1       0.879  -0.219  -0.106  0.00  0.00    -0.044 A 
ATOM     29  C   UNL     1       0.494  -0.719   1.124  0.00  0.00    -0.043 A 
ATOM     30  C   UNL     1      -0.067  -1.980   1.212  0.00  0.00    -0.021 A 
ATOM     31  C   UNL     1      -0.243  -2.739   0.070  0.00  0.00    +0.112 A 
ATOM     32  C   UNL     1       0.142  -2.238  -1.159  0.00  0.00    -0.021 A 
ATOM     33  C   UNL     1       0.699  -0.976  -1.248  0.00  0.00    -0.043 A 
ATOM     34  C   UNL     1       1.113  -0.428  -2.589  0.00  0.00    +0.044 C 
ATOM     35  C   UNL     1      -0.050  -3.067  -2.404  0.00  0.00    +0.046 C 
ATOM     36  C   UNL     1      -0.486  -2.526   2.552  0.00  0.00    +0.046 C 
ATOM     37  C   UNL     1       0.686   0.109   2.368  0.00  0.00    +0.044 C 
ENDBRANCH  24  31
ENDBRANCH   1  24
TORSDOF 7
