REMARK  Name = ZINC56937727
REMARK  11 active torsions:
REMARK  status: ('A' for Active; 'I' for Inactive)
REMARK    1  A    between atoms: C_1  and  C_2
REMARK    2  A    between atoms: C_2  and  C_3
REMARK    3  A    between atoms: C_2  and  N_4
REMARK    4  A    between atoms: C_5  and  C_7
REMARK    5  A    between atoms: C_7  and  N_8
REMARK    6  A    between atoms: N_16  and  C_17
REMARK    7  A    between atoms: C_17  and  C_18
REMARK    8  A    between atoms: C_18  and  C_20
REMARK    9  A    between atoms: C_18  and  N_27
REMARK   10  A    between atoms: N_27  and  C_28
REMARK   11  A    between atoms: N_27  and  C_29
REMARK                            x       y       z     vdW  Elec       q    Type
REMARK                         _______ _______ _______ _____ _____    ______ ____
ROOT
ATOM      1  N   UNL     1       0.261  -1.525   4.627  0.00  0.00    -0.291 NA
ATOM      2  C   UNL     1      -0.823  -2.490   4.397  0.00  0.00    +0.104 C 
ATOM      3  C   UNL     1      -1.905  -2.301   5.465  0.00  0.00    +0.124 C 
ATOM      4  N   UNL     1      -1.273  -2.381   6.791  0.00  0.00    -0.283 N 
ATOM      5  C   UNL     1      -0.093  -1.542   7.050  0.00  0.00    +0.124 C 
ATOM      6  C   UNL     1       0.918  -1.761   5.920  0.00  0.00    +0.104 C 
ATOM      7  C   UNL     1      -1.762  -3.201   7.742  0.00  0.00    +0.302 C 
ATOM      8  O   UNL     1      -2.789  -3.819   7.543  0.00  0.00    -0.253 OA
ATOM      9  N   UNL     1      -1.111  -3.336   8.915  0.00  0.00    -0.300 N 
ATOM     10  H   UNL     1      -0.331  -2.790   9.102  0.00  0.00    +0.150 HD
ENDROOT
BRANCH   1  11
ATOM     11  C   UNL     1       1.235  -1.556   3.528  0.00  0.00    +0.180 C 
BRANCH  11  13
ATOM     12  N   UNL     1       1.285  -1.015   1.115  0.00  0.00    -0.312 N 
ATOM     13  C   UNL     1       0.578  -1.073   2.261  0.00  0.00    +0.227 C 
ATOM     14  O   UNL     1      -0.587  -0.736   2.272  0.00  0.00    -0.274 OA
ATOM     15  H   UNL     1       2.217  -1.284   1.106  0.00  0.00    +0.149 HD
BRANCH  12  17
ATOM     16  C   UNL     1       0.709   0.983  -0.173  0.00  0.00    +0.027 C 
ATOM     17  C   UNL     1       0.646  -0.545  -0.117  0.00  0.00    +0.067 C 
ATOM     18  C   UNL     1       1.378  -1.130  -1.326  0.00  0.00    +0.027 C 
ENDBRANCH  12  17
ENDBRANCH  11  13
ENDBRANCH   1  11
BRANCH   9  19
ATOM     19  C   UNL     1      -1.580  -4.308   9.906  0.00  0.00    +0.095 C 
BRANCH  19  20
ATOM     20  C   UNL     1      -0.753  -4.171  11.185  0.00  0.00    -0.021 C 
BRANCH  20  21
ATOM     21  C   UNL     1      -0.988  -2.812  11.793  0.00  0.00    -0.059 A 
ATOM     22  C   UNL     1      -2.122  -2.581  12.549  0.00  0.00    +0.005 A 
ATOM     23  C   UNL     1      -2.338  -1.335  13.107  0.00  0.00    +0.038 A 
ATOM     24  C   UNL     1      -1.419  -0.319  12.909  0.00  0.00    +0.123 A 
ATOM     25  C   UNL     1      -0.283  -0.552  12.152  0.00  0.00    +0.038 A 
ATOM     26  C   UNL     1      -0.066  -1.800  11.599  0.00  0.00    +0.005 A 
ATOM     27  F   UNL     1      -1.629   0.899  13.454  0.00  0.00    -0.205 F 
ENDBRANCH  20  21
BRANCH  20  28
ATOM     28  N   UNL     1      -1.155  -5.212  12.142  0.00  0.00    +0.382 N 
ATOM     29  C   UNL     1      -0.845  -6.535  11.584  0.00  0.00    -0.096 C 
ATOM     30  C   UNL     1      -0.423  -5.027  13.402  0.00  0.00    -0.096 C 
ATOM     31  H   UNL     1      -2.147  -5.144  12.315  0.00  0.00    -0.082 HD
ENDBRANCH  20  28
ENDBRANCH  19  20
ENDBRANCH   9  19
TORSDOF 7
