REMARK  Name = ZINC59892420
REMARK  12 active torsions:
REMARK  status: ('A' for Active; 'I' for Inactive)
REMARK    1  A    between atoms: C_1  and  C_2
REMARK    2  A    between atoms: C_2  and  N_3
REMARK    3  A    between atoms: N_3  and  C_4
REMARK    4  A    between atoms: N_3  and  S_6
REMARK    5  A    between atoms: C_4  and  C_5
REMARK    6  A    between atoms: S_6  and  C_9
REMARK    7  A    between atoms: C_11  and  N_16
REMARK    8  A    between atoms: C_17  and  C_19
REMARK    9  A    between atoms: C_19  and  C_21
REMARK   10  A    between atoms: C_19  and  S_22
REMARK   11  A    between atoms: S_22  and  C_23
REMARK   12  A    between atoms: N_27  and  C_28
REMARK                            x       y       z     vdW  Elec       q    Type
REMARK                         _______ _______ _______ _____ _____    ______ ____
ROOT
ATOM      1  C   UNL     1      -2.986   0.725   2.020  0.00  0.00    +0.125 A 
ATOM      2  C   UNL     1      -4.367   0.705   2.025  0.00  0.00    +0.053 A 
ATOM      3  C   UNL     1      -5.076   1.853   2.355  0.00  0.00    +0.035 A 
ATOM      4  C   UNL     1      -4.394   3.018   2.680  0.00  0.00    +0.025 A 
ATOM      5  C   UNL     1      -3.013   3.033   2.674  0.00  0.00    +0.024 A 
ATOM      6  C   UNL     1      -2.309   1.886   2.350  0.00  0.00    +0.067 A 
ATOM      7 CL   UNL     1      -0.573   1.906   2.350  0.00  0.00    -0.082 Cl
ENDROOT
BRANCH   3   8
ATOM      8  N   UNL     1      -6.476   1.835   2.360  0.00  0.00    -0.285 N 
ATOM      9  C   UNL     1      -7.134   0.728   2.757  0.00  0.00    +0.230 C 
ATOM     10  O   UNL     1      -6.518  -0.221   3.192  0.00  0.00    -0.274 OA
ATOM     11  H   UNL     1      -6.972   2.619   2.077  0.00  0.00    +0.155 HD
BRANCH   9  12
ATOM     12  C   UNL     1      -8.637   0.671   2.662  0.00  0.00    +0.137 C 
ATOM     13  C   UNL     1      -9.043   0.229   1.255  0.00  0.00    +0.029 C 
BRANCH  12  14
ATOM     14  S   UNL     1      -9.275  -0.516   3.877  0.00  0.00    -0.072 S 
BRANCH  14  15
ATOM     15  C   UNL     1     -11.025  -0.361   3.746  0.00  0.00    +0.210 A 
ATOM     16  N   UNL     1     -11.681   0.441   2.935  0.00  0.00    -0.101 NA
ATOM     17  N   UNL     1     -12.947   0.306   3.095  0.00  0.00    -0.022 NA
ATOM     18  N   UNL     1     -13.193  -0.576   4.003  0.00  0.00    -0.043 NA
ATOM     19  N   UNL     1     -11.949  -1.048   4.458  0.00  0.00    -0.217 N 
BRANCH  19  20
ATOM     20  C   UNL     1     -11.706  -2.065   5.484  0.00  0.00    +0.112 C 
ATOM     21  C   UNL     1     -12.914  -2.846   6.006  0.00  0.00    +0.029 C 
ATOM     22  C   UNL     1     -12.244  -1.792   6.890  0.00  0.00    +0.029 C 
ENDBRANCH  19  20
ENDBRANCH  14  15
ENDBRANCH  12  14
ENDBRANCH   9  12
ENDBRANCH   3   8
BRANCH   1  23
ATOM     23  S   UNL     1      -2.086  -0.731   1.601  0.00  0.00    +0.062 S 
ATOM     24  O   UNL     1      -3.049  -1.746   1.352  0.00  0.00    -0.153 OA
ATOM     25  O   UNL     1      -1.065  -0.873   2.580  0.00  0.00    -0.153 OA
BRANCH  23  26
ATOM     26  N   UNL     1      -1.323  -0.437   0.161  0.00  0.00    -0.177 NA
BRANCH  26  28
ATOM     27  C   UNL     1      -0.162   1.616  -0.484  0.00  0.00    +0.022 C 
ATOM     28  C   UNL     1      -0.019   0.229   0.145  0.00  0.00    +0.106 C 
ENDBRANCH  26  28
BRANCH  26  29
ATOM     29  C   UNL     1      -1.953  -0.844  -1.097  0.00  0.00    +0.106 C 
ATOM     30  C   UNL     1      -1.421  -2.217  -1.514  0.00  0.00    +0.022 C 
ENDBRANCH  26  29
ENDBRANCH  23  26
ENDBRANCH   1  23
TORSDOF 9
