REMARK  Name = ZINC11878356
REMARK  9 active torsions:
REMARK  status: ('A' for Active; 'I' for Inactive)
REMARK    1  A    between atoms: C_1  and  C_2
REMARK    2  A    between atoms: C_7  and  C_8
REMARK    3  A    between atoms: C_10  and  C_14
REMARK    4  A    between atoms: C_11  and  C_13
REMARK    5  A    between atoms: C_14  and  N_52
REMARK    6  A    between atoms: C_15  and  N_52
REMARK    7  A    between atoms: C_16  and  C_17
REMARK    8  A    between atoms: C_16  and  N_52
REMARK    9  A    between atoms: C_20  and  N_23
REMARK                            x       y       z     vdW  Elec       q    Type
REMARK                         _______ _______ _______ _____ _____    ______ ____
ROOT
ATOM      1  C   UNL     1       2.028   2.016   1.295  0.00  0.00    -0.095 C 
ATOM      2  N   UNL     1       1.919   1.764   2.747  0.00  0.00    +0.384 N 
ATOM      3  H   UNL     1       1.531   2.599   3.203  0.00  0.00    -0.081 HD
ENDROOT
BRANCH   2   4
ATOM      4  C   UNL     1       1.018   0.619   2.995  0.00  0.00    -0.019 C 
BRANCH   4   7
ATOM      5  C   UNL     1      -2.395   1.782   2.725  0.00  0.00    +0.228 A 
ATOM      6  N   UNL     1      -1.292   1.591   3.410  0.00  0.00    -0.216 NA
ATOM      7  C   UNL     1      -0.385   1.012   2.609  0.00  0.00    +0.066 A 
ATOM      8  C   UNL     1      -0.950   0.845   1.399  0.00  0.00    +0.124 A 
ATOM      9  O   UNL     1      -2.204   1.332   1.473  0.00  0.00    -0.440 OA
ATOM     10  C   UNL     1      -0.299   0.232   0.186  0.00  0.00    +0.088 C 
BRANCH   5  17
ATOM     11  C   UNL     1      -4.585   2.322   0.914  0.00  0.00    +0.044 C 
ATOM     12  C   UNL     1      -4.700   2.660   2.378  0.00  0.00    -0.038 A 
ATOM     13  C   UNL     1      -5.856   3.233   2.867  0.00  0.00    +0.004 A 
ATOM     14  C   UNL     1      -5.962   3.545   4.211  0.00  0.00    +0.000 A 
ATOM     15  C   UNL     1      -4.911   3.285   5.073  0.00  0.00    +0.001 A 
ATOM     16  C   UNL     1      -3.752   2.708   4.598  0.00  0.00    +0.013 A 
ATOM     17  C   UNL     1      -3.636   2.396   3.242  0.00  0.00    +0.040 A 
ENDBRANCH   5  17
ENDBRANCH   4   7
ENDBRANCH   2   4
BRANCH   2  18
ATOM     18  C   UNL     1       3.256   1.486   3.313  0.00  0.00    -0.043 C 
BRANCH  18  19
ATOM     19  C   UNL     1       4.084   2.744   3.245  0.00  0.00    -0.064 A 
ATOM     20  C   UNL     1       4.875   2.990   2.138  0.00  0.00    +0.004 A 
ATOM     21  C   UNL     1       5.631   4.144   2.070  0.00  0.00    +0.028 A 
ATOM     22  C   UNL     1       5.604   5.053   3.119  0.00  0.00    +0.065 A 
ATOM     23  C   UNL     1       4.812   4.801   4.231  0.00  0.00    +0.028 A 
ATOM     24  C   UNL     1       4.055   3.647   4.292  0.00  0.00    +0.004 A 
BRANCH  22  25
ATOM     25  N   UNL     1       6.374   6.222   3.055  0.00  0.00    -0.240 N 
ATOM     26  C   UNL     1       7.187   6.585   2.038  0.00  0.00    +0.114 A 
ATOM     27  C   UNL     1       7.744   7.776   2.360  0.00  0.00    +0.041 A 
ATOM     28  C   UNL     1       7.262   8.149   3.619  0.00  0.00    +0.135 A 
ATOM     29  N   UNL     1       6.441   7.219   4.037  0.00  0.00    -0.175 NA
ENDBRANCH  22  25
ENDBRANCH  18  19
ENDBRANCH   2  18
TORSDOF 6
