REMARK  Name = ZINC09109797
REMARK  11 active torsions:
REMARK  status: ('A' for Active; 'I' for Inactive)
REMARK    1  A    between atoms: C_1  and  C_2
REMARK    2  A    between atoms: C_10  and  C_31
REMARK    3  A    between atoms: C_11  and  N_12
REMARK    4  A    between atoms: C_13  and  C_15
REMARK    5  A    between atoms: C_15  and  N_63
REMARK    6  A    between atoms: N_18  and  C_23
REMARK    7  A    between atoms: C_19  and  C_22
REMARK    8  A    between atoms: C_26  and  O_29
REMARK    9  A    between atoms: O_29  and  C_30
REMARK   10  A    between atoms: C_31  and  O_33
REMARK   11  A    between atoms: O_33  and  C_34
REMARK                            x       y       z     vdW  Elec       q    Type
REMARK                         _______ _______ _______ _____ _____    ______ ____
ROOT
ATOM      1  N   UNL     1       3.459  -2.605   1.153  0.00  0.00    -0.285 N 
ATOM      2  C   UNL     1       4.698  -2.321   0.704  0.00  0.00    +0.201 C 
ATOM      3  O   UNL     1       5.654  -2.928   1.139  0.00  0.00    -0.278 OA
ATOM      4  H   UNL     1       2.688  -2.172   0.755  0.00  0.00    +0.155 HD
ENDROOT
BRANCH   1  15
ATOM      5  C   UNL     1       5.626  -8.482   3.764  0.00  0.00    +0.044 C 
ATOM      6  C   UNL     1       5.058  -7.171   3.285  0.00  0.00    -0.048 A 
ATOM      7  C   UNL     1       5.558  -6.585   2.130  0.00  0.00    +0.004 A 
ATOM      8  C   UNL     1       5.061  -5.395   1.684  0.00  0.00    +0.012 A 
ATOM      9  C   UNL     1       4.031  -4.764   2.389  0.00  0.00    +0.022 A 
ATOM     10  C   UNL     1       3.516  -5.356   3.557  0.00  0.00    +0.049 A 
ATOM     11  C   UNL     1       4.044  -6.568   3.996  0.00  0.00    +0.029 A 
ATOM     12  N   UNL     1       2.525  -4.537   4.046  0.00  0.00    -0.348 N 
ATOM     13  H   UNL     1       2.003  -4.709   4.845  0.00  0.00    +0.166 HD
ATOM     14  C   UNL     1       2.382  -3.428   3.225  0.00  0.00    +0.147 A 
ATOM     15  C   UNL     1       3.287  -3.518   2.188  0.00  0.00    +0.073 A 
BRANCH  14  16
ATOM     16  C   UNL     1       1.456  -2.372   3.421  0.00  0.00    +0.357 C 
ATOM     17  O   UNL     1       1.352  -1.491   2.587  0.00  0.00    -0.243 OA
BRANCH  16  18
ATOM     18  O   UNL     1       0.690  -2.343   4.532  0.00  0.00    -0.463 OA
ATOM     19  C   UNL     1      -0.221  -1.250   4.663  0.00  0.00    +0.280 C 
ENDBRANCH  16  18
ENDBRANCH  14  16
ENDBRANCH   1  15
BRANCH   2  20
ATOM     20  C   UNL     1       4.895  -1.250  -0.338  0.00  0.00    +0.019 C 
BRANCH  20  27
ATOM     21  C   UNL     1       6.967  -0.469   0.643  0.00  0.00    -0.059 C 
ATOM     22  C   UNL     1       8.473  -0.337   0.404  0.00  0.00    +0.087 C 
ATOM     23  N   UNL     1       8.708   0.518  -0.768  0.00  0.00    -0.331 N 
ATOM     24  C   UNL     1       8.073  -0.050  -1.966  0.00  0.00    +0.054 C 
ATOM     25  C   UNL     1       6.567  -0.182  -1.727  0.00  0.00    -0.056 C 
ATOM     26  C   UNL     1       8.321   0.872  -3.161  0.00  0.00    +0.026 C 
ATOM     27  N   UNL     1       6.345  -1.062  -0.560  0.00  0.00    +0.388 N 
ATOM     28  H   UNL     1       6.776  -1.975  -0.743  0.00  0.00    -0.081 HD
BRANCH  23  29
ATOM     29  C   UNL     1      10.077   0.721  -0.975  0.00  0.00    +0.030 A 
ATOM     30  C   UNL     1      10.898  -0.353  -1.292  0.00  0.00    +0.027 A 
ATOM     31  C   UNL     1      12.248  -0.150  -1.502  0.00  0.00    +0.047 A 
ATOM     32  C   UNL     1      12.785   1.123  -1.385  0.00  0.00    +0.120 A 
ATOM     33  C   UNL     1      11.966   2.195  -1.063  0.00  0.00    +0.047 A 
ATOM     34  C   UNL     1      10.615   1.996  -0.859  0.00  0.00    +0.027 A 
BRANCH  32  35
ATOM     35  O   UNL     1      14.116   1.321  -1.587  0.00  0.00    -0.495 OA
ATOM     36  C   UNL     1      14.900   0.172  -1.916  0.00  0.00    +0.277 C 
ENDBRANCH  32  35
ENDBRANCH  23  29
ENDBRANCH  20  27
ENDBRANCH   2  20
TORSDOF 7
