REMARK  Name = ZINC04703350
REMARK  6 active torsions:
REMARK  status: ('A' for Active; 'I' for Inactive)
REMARK    1  A    between atoms: C_7  and  N_16
REMARK    2  A    between atoms: N_16  and  C_17
REMARK    3  A    between atoms: C_17  and  C_18
REMARK    4  A    between atoms: C_18  and  N_19
REMARK    5  A    between atoms: N_19  and  C_20
REMARK    6  A    between atoms: C_23  and  N_26
REMARK                            x       y       z     vdW  Elec       q    Type
REMARK                         _______ _______ _______ _____ _____    ______ ____
ROOT
ATOM      1  C   UNL     1       1.204  -0.705  -0.014  0.00  0.00    +0.001 A 
ATOM      2  C   UNL     1       0.002  -0.004   0.002  0.00  0.00    +0.002 A 
ATOM      3  C   UNL     1      -0.016   1.359   0.009  0.00  0.00    +0.026 A 
ATOM      4  C   UNL     1       1.193   2.068   0.002  0.00  0.00    +0.052 A 
ATOM      5  C   UNL     1       2.415   1.353  -0.014  0.00  0.00    +0.038 A 
ATOM      6  C   UNL     1       2.399  -0.046  -0.021  0.00  0.00    +0.013 A 
ATOM      7  C   UNL     1       3.625   2.090  -0.022  0.00  0.00    +0.132 A 
ATOM      8  N   UNL     1       3.555   3.413  -0.014  0.00  0.00    -0.201 NA
ATOM      9  C   UNL     1       2.385   4.045   0.000  0.00  0.00    +0.198 A 
ATOM     10  N   UNL     1       1.229   3.408   0.008  0.00  0.00    -0.327 N 
ATOM     11  N   UNL     1       2.378   5.428   0.007  0.00  0.00    -0.301 N 
ATOM     12  C   UNL     1       3.003   5.969  -1.228  0.00  0.00    +0.108 C 
ATOM     13  C   UNL     1       2.450   7.415  -1.300  0.00  0.00    +0.020 C 
ATOM     14  C   UNL     1       0.997   7.256  -0.798  0.00  0.00    +0.020 C 
ATOM     15  C   UNL     1       0.996   5.953   0.022  0.00  0.00    +0.108 C 
ATOM     16  H   UNL     1       0.292   3.984   0.020  0.00  0.00    +0.169 HD
ENDROOT
BRANCH   7  17
ATOM     17  N   UNL     1       4.845   1.448  -0.037  0.00  0.00    -0.327 N 
ATOM     18  H   UNL     1       4.887   0.349  -0.043  0.00  0.00    +0.148 HD
BRANCH  17  19
ATOM     19  C   UNL     1       6.084   2.229  -0.045  0.00  0.00    +0.121 C 
BRANCH  19  20
ATOM     20  C   UNL     1       7.284   1.280  -0.061  0.00  0.00    +0.120 C 
BRANCH  20  21
ATOM     21  N   UNL     1       8.524   2.061  -0.069  0.00  0.00    -0.342 N 
ATOM     22  H   UNL     1       8.481   3.160  -0.063  0.00  0.00    +0.146 HD
BRANCH  21  23
ATOM     23  C   UNL     1       9.759   1.410  -0.085  0.00  0.00    +0.027 A 
ATOM     24  C   UNL     1       9.815   0.022  -0.086  0.00  0.00    +0.025 A 
ATOM     25  C   UNL     1      11.038  -0.619  -0.107  0.00  0.00    +0.034 A 
ATOM     26  C   UNL     1      12.207   0.120  -0.115  0.00  0.00    +0.126 A 
ATOM     27  C   UNL     1      12.156   1.502  -0.107  0.00  0.00    +0.034 A 
ATOM     28  C   UNL     1      10.936   2.149  -0.092  0.00  0.00    +0.025 A 
BRANCH  26  29
ATOM     29  N   UNL     1      13.516  -0.570  -0.132  0.00  0.00    +0.056 N 
ATOM     30  O   UNL     1      14.547   0.079  -0.139  0.00  0.00    -0.126 OA
ATOM     31  O   UNL     1      13.563  -1.787  -0.138  0.00  0.00    -0.126 OA
ENDBRANCH  26  29
ENDBRANCH  21  23
ENDBRANCH  20  21
ENDBRANCH  19  20
ENDBRANCH  17  19
ENDBRANCH   7  17
TORSDOF 6
