REMARK  Name = ZINC36374669
REMARK  20 active torsions:
REMARK  status: ('A' for Active; 'I' for Inactive)
REMARK    1  A    between atoms: C_1  and  C_2
REMARK    2  A    between atoms: C_2  and  O_4
REMARK    3  A    between atoms: O_4  and  C_5
REMARK    4  A    between atoms: C_8  and  C_45
REMARK    5  A    between atoms: C_16  and  C_34
REMARK    6  A    between atoms: C_19  and  C_33
REMARK    7  A    between atoms: C_20  and  C_22
REMARK    8  A    between atoms: C_22  and  C_23
REMARK    9  A    between atoms: C_22  and  C_24
REMARK   10  A    between atoms: C_22  and  O_32
REMARK   11  A    between atoms: C_24  and  C_26
REMARK   12  A    between atoms: C_26  and  C_27
REMARK   13  A    between atoms: C_27  and  C_28
REMARK   14  A    between atoms: C_28  and  C_29
REMARK   15  A    between atoms: C_28  and  C_30
REMARK   16  A    between atoms: C_28  and  O_31
REMARK   17  A    between atoms: C_36  and  O_44
REMARK   18  A    between atoms: C_38  and  O_43
REMARK   19  A    between atoms: C_40  and  C_41
REMARK   20  A    between atoms: C_40  and  C_42
REMARK                            x       y       z     vdW  Elec       q    Type
REMARK                         _______ _______ _______ _____ _____    ______ ____
ROOT
ATOM      1  C   UNL     1      -2.718  -2.959  -0.216  0.00  0.00    +0.184 C 
ATOM      2  C   UNL     1      -2.715  -3.031   1.340  0.00  0.00    +0.052 C 
ATOM      3  C   UNL     1      -3.067  -4.517   1.575  0.00  0.00    -0.019 C 
ATOM      4  C   UNL     1      -3.375  -4.919   2.996  0.00  0.00    +0.006 C 
ATOM      5  C   UNL     1      -2.106  -5.489   3.640  0.00  0.00    +0.031 C 
ATOM      6  C   UNL     1      -2.328  -5.885   5.080  0.00  0.00    -0.026 C 
ATOM      7  C   UNL     1      -3.383  -6.570   5.377  0.00  0.00    -0.062 C 
ATOM      8  C   UNL     1      -4.478  -6.773   4.378  0.00  0.00    +0.024 C 
ATOM      9  C   UNL     1      -4.535  -5.873   3.163  0.00  0.00    -0.022 C 
ATOM     10  C   UNL     1      -5.005  -6.642   1.951  0.00  0.00    +0.008 C 
ATOM     11  C   UNL     1      -4.638  -6.125   0.564  0.00  0.00    +0.008 C 
ATOM     12  C   UNL     1      -4.253  -4.674   0.602  0.00  0.00    -0.017 C 
ATOM     13  C   UNL     1      -3.755  -4.006  -0.687  0.00  0.00    +0.075 C 
ATOM     14  C   UNL     1      -5.462  -3.803   0.990  0.00  0.00    +0.012 C 
ATOM     15  C   UNL     1      -5.744  -4.991   3.619  0.00  0.00    +0.012 C 
ATOM     16  C   UNL     1      -4.674  -8.258   4.126  0.00  0.00    +0.042 C 
ATOM     17  C   UNL     1      -5.039  -8.911   5.468  0.00  0.00    +0.144 C 
ATOM     18  C   UNL     1      -3.999  -8.654   6.544  0.00  0.00    +0.153 C 
ATOM     19  C   UNL     1      -3.628  -7.180   6.741  0.00  0.00    +0.015 C 
ATOM     20  C   UNL     1      -4.749  -6.445   7.477  0.00  0.00    +0.018 C 
ATOM     21  C   UNL     1      -2.359  -7.130   7.604  0.00  0.00    +0.018 C 
ATOM     22  C   UNL     1      -1.851  -5.327   1.063  0.00  0.00    +0.012 C 
ENDROOT
BRANCH  13  23
ATOM     23  C   UNL     1      -3.207  -4.969  -1.720  0.00  0.00    +0.127 C 
ATOM     24  C   UNL     1      -4.308  -5.943  -2.145  0.00  0.00    +0.050 C 
BRANCH  23  25
ATOM     25  C   UNL     1      -2.728  -4.196  -2.923  0.00  0.00    +0.165 C 
ATOM     26  O   UNL     1      -3.196  -3.110  -3.168  0.00  0.00    -0.294 OA
BRANCH  25  27
ATOM     27  C   UNL     1      -1.667  -4.780  -3.820  0.00  0.00    +0.080 C 
BRANCH  27  28
ATOM     28  C   UNL     1      -1.365  -3.801  -4.956  0.00  0.00    +0.042 C 
BRANCH  28  29
ATOM     29  C   UNL     1      -0.288  -4.393  -5.867  0.00  0.00    +0.061 C 
ATOM     30  C   UNL     1      -0.785  -5.717  -6.451  0.00  0.00    +0.041 C 
ATOM     31  C   UNL     1       0.014  -3.414  -7.003  0.00  0.00    +0.041 C 
BRANCH  29  32
ATOM     32  O   UNL     1       0.902  -4.624  -5.109  0.00  0.00    -0.389 OA
ATOM     33  H   UNL     1       1.274  -3.826  -4.708  0.00  0.00    +0.210 HD
ENDBRANCH  29  32
ENDBRANCH  28  29
ENDBRANCH  27  28
ENDBRANCH  25  27
ENDBRANCH  23  25
BRANCH  23  34
ATOM     34  O   UNL     1      -2.115  -5.700  -1.159  0.00  0.00    -0.381 OA
ATOM     35  H   UNL     1      -1.255  -5.273  -1.274  0.00  0.00    +0.211 HD
ENDBRANCH  23  34
ENDBRANCH  13  23
BRANCH  18  36
ATOM     36  O   UNL     1      -4.466  -9.192   7.787  0.00  0.00    -0.388 OA
ATOM     37  H   UNL     1      -4.631 -10.145   7.766  0.00  0.00    +0.210 HD
ENDBRANCH  18  36
BRANCH  17  38
ATOM     38  O   UNL     1      -6.329  -8.452   5.877  0.00  0.00    -0.389 OA
ATOM     39  H   UNL     1      -7.037  -8.662   5.252  0.00  0.00    +0.210 HD
ENDBRANCH  17  38
BRANCH   1  40
ATOM     40  O   UNL     1      -3.097  -1.654  -0.650  0.00  0.00    -0.461 OA
BRANCH  40  42
ATOM     41  C   UNL     1      -2.431   0.625  -1.327  0.00  0.00    +0.136 C 
ATOM     42  C   UNL     1      -2.108  -0.773  -0.867  0.00  0.00    +0.304 C 
ATOM     43  O   UNL     1      -0.958  -1.101  -0.694  0.00  0.00    -0.251 OA
ENDBRANCH  40  42
ENDBRANCH   1  40
TORSDOF 11
