REMARK  Name = ZINC13434719
REMARK  2 active torsions:
REMARK  status: ('A' for Active; 'I' for Inactive)
REMARK    1  A    between atoms: C_9  and  C_12
REMARK    2  A    between atoms: C_14  and  C_16
REMARK                            x       y       z     vdW  Elec       q    Type
REMARK                         _______ _______ _______ _____ _____    ______ ____
ROOT
ATOM      1  C   UNL     1      -0.834   3.453   0.018  0.00  0.00    +0.002 A 
ATOM      2  C   UNL     1       0.157   4.102   0.732  0.00  0.00    +0.004 A 
ATOM      3  C   UNL     1       1.093   3.375   1.443  0.00  0.00    +0.047 A 
ATOM      4  C   UNL     1       1.042   1.989   1.444  0.00  0.00    +0.143 A 
ATOM      5  C   UNL     1       0.043   1.339   0.726  0.00  0.00    +0.079 A 
ATOM      6  C   UNL     1      -0.896   2.072   0.017  0.00  0.00    +0.027 A 
ATOM      7  N   UNL     1      -0.016  -0.065   0.728  0.00  0.00    -0.260 N 
ATOM      8  C   UNL     1       1.157  -0.798   1.234  0.00  0.00    +0.170 C 
ATOM      9  C   UNL     1       1.654  -0.068   2.490  0.00  0.00    +0.303 C 
ATOM     10  O   UNL     1       1.969   1.283   2.143  0.00  0.00    -0.474 OA
ATOM     11  C   UNL     1      -1.107  -0.718   0.281  0.00  0.00    +0.251 C 
ATOM     12  O   UNL     1      -2.106  -0.096  -0.021  0.00  0.00    -0.270 OA
ENDROOT
BRANCH  11  13
ATOM     13  C   UNL     1      -1.087  -2.191   0.158  0.00  0.00    +0.037 A 
ATOM     14  C   UNL     1       0.102  -2.853  -0.151  0.00  0.00    +0.014 A 
ATOM     15  C   UNL     1       0.115  -4.228  -0.258  0.00  0.00    +0.015 A 
ATOM     16  C   UNL     1      -1.052  -4.950  -0.072  0.00  0.00    +0.013 A 
ATOM     17  C   UNL     1      -2.236  -4.299   0.228  0.00  0.00    +0.015 A 
ATOM     18  C   UNL     1      -2.260  -2.925   0.344  0.00  0.00    +0.014 A 
ATOM     19  I   UNL     1      -1.025  -7.038  -0.247  0.00  0.00    -0.044 I 
ENDBRANCH  11  13
BRANCH   9  20
ATOM     20  C   UNL     1       2.887  -0.754   3.019  0.00  0.00    +0.397 C 
ATOM     21  O   UNL     1       3.947  -0.175   3.020  0.00  0.00    -0.242 OA
ATOM     22  O   UNL     1       2.807  -2.009   3.489  0.00  0.00    -0.242 OA
ENDBRANCH   9  20
TORSDOF 2
