REMARK  Name = ZINC28843134
REMARK  7 active torsions:
REMARK  status: ('A' for Active; 'I' for Inactive)
REMARK    1  A    between atoms: C_1  and  C_2
REMARK    2  A    between atoms: C_2  and  C_3
REMARK    3  A    between atoms: C_3  and  N_13
REMARK    4  A    between atoms: N_13  and  C_14
REMARK    5  A    between atoms: C_14  and  C_15
REMARK    6  A    between atoms: N_20  and  C_21
REMARK    7  A    between atoms: C_21  and  C_22
REMARK                            x       y       z     vdW  Elec       q    Type
REMARK                         _______ _______ _______ _____ _____    ______ ____
ROOT
ATOM      1  C   UNL     1      -0.172   5.575  -0.090  0.00  0.00    +0.021 C 
ATOM      2  C   UNL     1      -0.489   4.234  -0.197  0.00  0.00    +0.116 C 
ATOM      3  C   UNL     1       0.477   3.254  -0.725  0.00  0.00    +0.256 C 
ATOM      4  O   UNL     1       1.587   3.602  -1.083  0.00  0.00    -0.270 OA
ATOM      5  N   UNL     1       0.098   1.962  -0.801  0.00  0.00    -0.263 N 
ATOM      6  C   UNL     1      -1.121   1.565  -0.410  0.00  0.00    +0.143 C 
ATOM      7  S   UNL     1      -1.515  -0.096  -0.543  0.00  0.00    -0.018 S 
ATOM      8  N   UNL     1      -2.051   2.401   0.075  0.00  0.00    -0.263 N 
ATOM      9  C   UNL     1      -1.809   3.721   0.212  0.00  0.00    +0.256 C 
ATOM     10  O   UNL     1      -2.660   4.468   0.657  0.00  0.00    -0.270 OA
ATOM     11  H   UNL     1       0.796   1.206  -1.190  0.00  0.00    +0.157 HD
ATOM     12  H   UNL     1      -3.037   2.014   0.371  0.00  0.00    +0.157 HD
ENDROOT
BRANCH   1  14
ATOM     13  C   UNL     1      -1.291   6.674   1.830  0.00  0.00    +0.010 C 
ATOM     14  C   UNL     1      -1.232   6.571   0.305  0.00  0.00    +0.048 C 
ENDBRANCH   1  14
BRANCH   1  15
ATOM     15  N   UNL     1       1.086   5.992  -0.340  0.00  0.00    -0.348 N 
ATOM     16  H   UNL     1       1.862   5.263  -0.618  0.00  0.00    +0.146 HD
BRANCH  15  17
ATOM     17  C   UNL     1       1.419   7.415  -0.240  0.00  0.00    +0.086 C 
BRANCH  17  18
ATOM     18  C   UNL     1       2.929   7.598  -0.408  0.00  0.00    -0.051 C 
ATOM     19  C   UNL     1       3.315   9.087  -0.224  0.00  0.00    -0.016 C 
ATOM     20  C   UNL     1       4.804   8.973   0.199  0.00  0.00    -0.020 C 
ATOM     21  C   UNL     1       4.827   7.688   1.053  0.00  0.00    -0.078 C 
ATOM     22  N   UNL     1       3.656   6.882   0.661  0.00  0.00    +0.382 N 
ATOM     23  H   UNL     1       2.998   6.740   1.530  0.00  0.00    -0.081 HD
BRANCH  22  24
ATOM     24  C   UNL     1       4.064   5.543   0.214  0.00  0.00    -0.082 C 
ATOM     25  C   UNL     1       4.911   4.879   1.301  0.00  0.00    -0.017 C 
ENDBRANCH  22  24
ENDBRANCH  17  18
ENDBRANCH  15  17
ENDBRANCH   1  15
TORSDOF 5
