REMARK  Name = ZINC12358924
REMARK  12 active torsions:
REMARK  status: ('A' for Active; 'I' for Inactive)
REMARK    1  A    between atoms: C_1  and  C_2
REMARK    2  A    between atoms: C_11  and  O_13
REMARK    3  A    between atoms: O_13  and  C_14
REMARK    4  A    between atoms: C_14  and  C_29
REMARK    5  A    between atoms: C_15  and  C_27
REMARK    6  A    between atoms: C_15  and  O_28
REMARK    7  A    between atoms: C_16  and  C_25
REMARK    8  A    between atoms: C_16  and  O_26
REMARK    9  A    between atoms: C_17  and  C_23
REMARK   10  A    between atoms: C_17  and  O_24
REMARK   11  A    between atoms: C_18  and  C_21
REMARK   12  A    between atoms: C_21  and  O_22
REMARK                            x       y       z     vdW  Elec       q    Type
REMARK                         _______ _______ _______ _____ _____    ______ ____
ROOT
ATOM      1  C   UNL     1       1.368   3.294  -2.146  0.00  0.00    +0.242 C 
ATOM      2  C   UNL     1       0.480   4.391  -1.553  0.00  0.00    +0.159 C 
ATOM      3  C   UNL     1       0.982   4.740  -0.149  0.00  0.00    +0.128 C 
ATOM      4  C   UNL     1       0.988   3.471   0.709  0.00  0.00    +0.123 C 
ATOM      5  C   UNL     1       1.856   2.409   0.030  0.00  0.00    +0.182 C 
ATOM      6  O   UNL     1       1.354   2.154  -1.284  0.00  0.00    -0.329 OA
ATOM      7  C   UNL     1       1.559   3.790   2.092  0.00  0.00    +0.047 C 
ATOM      8  C   UNL     1       0.053   5.780   0.482  0.00  0.00    +0.047 C 
ATOM      9  C   UNL     1      -0.964   3.892  -1.472  0.00  0.00    +0.051 C 
ATOM     10  C   UNL     1       2.801   3.814  -2.280  0.00  0.00    +0.092 C 
ENDROOT
BRANCH   4  11
ATOM     11  O   UNL     1      -0.348   2.981   0.846  0.00  0.00    -0.383 OA
ATOM     12  H   UNL     1      -0.418   2.174   1.374  0.00  0.00    +0.210 HD
ENDBRANCH   4  11
BRANCH   3  13
ATOM     13  O   UNL     1       2.307   5.268  -0.231  0.00  0.00    -0.383 OA
ATOM     14  H   UNL     1       2.690   5.504   0.624  0.00  0.00    +0.210 HD
ENDBRANCH   3  13
BRANCH   2  15
ATOM     15  O   UNL     1       0.538   5.552  -2.384  0.00  0.00    -0.379 OA
ATOM     16  H   UNL     1       0.238   5.402  -3.291  0.00  0.00    +0.211 HD
ENDBRANCH   2  15
BRANCH   1  17
ATOM     17  O   UNL     1       0.873   2.923  -3.434  0.00  0.00    -0.458 OA
BRANCH  17  28
ATOM     18  C   UNL     1       4.629  -2.010  -5.394  0.00  0.00    +0.045 C 
ATOM     19  C   UNL     1       3.518  -1.240  -6.059  0.00  0.00    -0.033 A 
ATOM     20  C   UNL     1       3.123  -1.538  -7.325  0.00  0.00    +0.096 A 
ATOM     21  C   UNL     1       2.081  -0.802  -7.926  0.00  0.00    +0.337 A 
ATOM     22  O   UNL     1       1.738  -1.079  -9.061  0.00  0.00    -0.245 OA
ATOM     23  O   UNL     1       1.458   0.195  -7.279  0.00  0.00    -0.422 OA
ATOM     24  C   UNL     1       1.801   0.541  -6.020  0.00  0.00    +0.143 A 
ATOM     25  C   UNL     1       2.833  -0.151  -5.359  0.00  0.00    +0.021 A 
ATOM     26  C   UNL     1       3.191   0.204  -4.054  0.00  0.00    +0.015 A 
ATOM     27  C   UNL     1       2.536   1.223  -3.424  0.00  0.00    +0.046 A 
ATOM     28  C   UNL     1       1.514   1.912  -4.073  0.00  0.00    +0.128 A 
ATOM     29  C   UNL     1       1.143   1.570  -5.364  0.00  0.00    +0.092 A 
ENDBRANCH  17  28
ENDBRANCH   1  17
BRANCH   5  30
ATOM     30  C   UNL     1       1.819   1.118   0.850  0.00  0.00    +0.190 C 
BRANCH  30  31
ATOM     31  O   UNL     1       2.719   0.166   0.281  0.00  0.00    -0.392 OA
ATOM     32  H   UNL     1       2.748  -0.678   0.751  0.00  0.00    +0.210 HD
ENDBRANCH  30  31
ENDBRANCH   5  30
TORSDOF 7
