REMARK  Name = ZINC20837071
REMARK  10 active torsions:
REMARK  status: ('A' for Active; 'I' for Inactive)
REMARK    1  A    between atoms: C_1  and  C_2
REMARK    2  A    between atoms: C_2  and  C_37
REMARK    3  A    between atoms: C_4  and  N_10
REMARK    4  A    between atoms: C_6  and  C_8
REMARK    5  A    between atoms: C_6  and  C_9
REMARK    6  A    between atoms: C_11  and  C_13
REMARK    7  A    between atoms: C_13  and  S_14
REMARK    8  A    between atoms: S_14  and  C_15
REMARK    9  A    between atoms: N_20  and  N_21
REMARK   10  A    between atoms: C_22  and  C_23
REMARK                            x       y       z     vdW  Elec       q    Type
REMARK                         _______ _______ _______ _____ _____    ______ ____
ROOT
ATOM      1  C   UNL     1      -0.189   9.526  -3.808  0.00  0.00    +0.211 A 
ATOM      2  N   UNL     1      -0.433  10.492  -4.748  0.00  0.00    -0.186 NA
ATOM      3  C   UNL     1      -0.281  11.689  -4.095  0.00  0.00    +0.232 A 
ATOM      4  N   UNL     1       0.033  11.414  -2.853  0.00  0.00    -0.245 N 
ATOM      5  N   UNL     1       0.083  10.141  -2.683  0.00  0.00    -0.144 NA
ATOM      6  N   UNL     1      -0.431  12.952  -4.646  0.00  0.00    -0.205 N 
ATOM      7  H   UNL     1      -0.699  13.061  -5.707  0.00  0.00    +0.177 HD
ATOM      8  H   UNL     1       0.209  12.230  -2.137  0.00  0.00    +0.192 HD
ENDROOT
BRANCH   6   9
ATOM      9  N   UNL     1      -0.242  14.090  -3.851  0.00  0.00    -0.188 NA
ATOM     10  C   UNL     1      -0.383  15.278  -4.369  0.00  0.00    +0.139 C 
BRANCH  10  11
ATOM     11  C   UNL     1      -0.186  16.467  -3.537  0.00  0.00    +0.010 A 
ATOM     12  C   UNL     1      -0.211  17.754  -4.115  0.00  0.00    -0.009 A 
ATOM     13  C   UNL     1      -0.437  17.927  -5.491  0.00  0.00    +0.009 A 
ATOM     14  C   UNL     1      -0.462  19.182  -6.016  0.00  0.00    +0.001 A 
ATOM     15  C   UNL     1      -0.272  20.311  -5.221  0.00  0.00    +0.001 A 
ATOM     16  C   UNL     1      -0.055  20.212  -3.884  0.00  0.00    +0.008 A 
ATOM     17  C   UNL     1      -0.018  18.939  -3.276  0.00  0.00    -0.017 A 
ATOM     18  C   UNL     1       0.203  18.803  -1.905  0.00  0.00    +0.017 A 
ATOM     19  C   UNL     1       0.235  17.534  -1.326  0.00  0.00    -0.017 A 
ATOM     20  C   UNL     1       0.038  16.340  -2.150  0.00  0.00    -0.009 A 
ATOM     21  C   UNL     1       0.076  15.077  -1.535  0.00  0.00    +0.009 A 
ATOM     22  C   UNL     1       0.294  14.988  -0.195  0.00  0.00    +0.001 A 
ATOM     23  C   UNL     1       0.482  16.123   0.592  0.00  0.00    +0.001 A 
ATOM     24  C   UNL     1       0.457  17.372   0.059  0.00  0.00    +0.008 A 
ENDBRANCH  10  11
ENDBRANCH   6   9
BRANCH   1  25
ATOM     25  S   UNL     1      -0.237   7.783  -4.063  0.00  0.00    -0.075 S 
BRANCH  25  26
ATOM     26  C   UNL     1       0.186   7.210  -2.399  0.00  0.00    +0.173 C 
BRANCH  26  28
ATOM     27  N   UNL     1       0.498   5.051  -1.234  0.00  0.00    -0.312 N 
ATOM     28  C   UNL     1       0.205   5.704  -2.376  0.00  0.00    +0.224 C 
ATOM     29  O   UNL     1      -0.043   5.079  -3.385  0.00  0.00    -0.275 OA
ATOM     30  H   UNL     1       0.723   5.618  -0.318  0.00  0.00    +0.149 HD
BRANCH  27  34
ATOM     31  C   UNL     1      -0.816   0.968  -2.289  0.00  0.00    -0.010 C 
ATOM     32  C   UNL     1      -0.903   1.540  -0.869  0.00  0.00    -0.072 C 
ATOM     33  C   UNL     1      -0.895   3.066  -0.933  0.00  0.00    +0.009 C 
ATOM     34  C   UNL     1       0.516   3.583  -1.211  0.00  0.00    +0.070 C 
ATOM     35  C   UNL     1       1.434   3.110  -0.082  0.00  0.00    +0.009 C 
ATOM     36  C   UNL     1       1.468   1.582  -0.045  0.00  0.00    -0.072 C 
ATOM     37  N   UNL     1       0.140   1.000  -0.022  0.00  0.00    +0.386 N 
ATOM     38  C   UNL     1       2.199   1.165   1.250  0.00  0.00    -0.010 C 
ATOM     39  C   UNL     1       2.290   1.054  -1.224  0.00  0.00    -0.010 C 
ATOM     40  C   UNL     1      -2.267   1.108  -0.286  0.00  0.00    -0.010 C 
ATOM     41  H   UNL     1      -0.166   1.079   1.032  0.00  0.00    -0.084 HD
ATOM     42  H   UNL     1       0.309  -0.056  -0.277  0.00  0.00    -0.084 HD
ENDBRANCH  27  34
ENDBRANCH  26  28
ENDBRANCH  25  26
ENDBRANCH   1  25
TORSDOF 6
