REMARK  Name = ZINC63526659
REMARK  9 active torsions:
REMARK  status: ('A' for Active; 'I' for Inactive)
REMARK    1  A    between atoms: C_1  and  O_2
REMARK    2  A    between atoms: O_2  and  C_3
REMARK    3  A    between atoms: C_5  and  C_10
REMARK    4  A    between atoms: C_8  and  O_9
REMARK    5  A    between atoms: C_12  and  C_29
REMARK    6  A    between atoms: N_16  and  C_17
REMARK    7  A    between atoms: C_17  and  C_18
REMARK    8  A    between atoms: C_18  and  C_19
REMARK    9  A    between atoms: C_29  and  C_31
REMARK                            x       y       z     vdW  Elec       q    Type
REMARK                         _______ _______ _______ _____ _____    ______ ____
ROOT
ATOM      1  C   UNL     1       2.634   0.230   4.021  0.00  0.00    +0.145 C 
ATOM      2  C   UNL     1       4.081   0.589   3.776  0.00  0.00    +0.076 C 
ATOM      3  C   UNL     1       4.786   0.108   4.826  0.00  0.00    +0.249 C 
ATOM      4  C   UNL     1       3.861  -0.560   5.766  0.00  0.00    +0.288 C 
ATOM      5  O   UNL     1       4.190  -1.092   6.808  0.00  0.00    -0.266 OA
ATOM      6  N   UNL     1       2.600  -0.490   5.299  0.00  0.00    -0.283 N 
ATOM      7  O   UNL     1       6.124   0.221   4.990  0.00  0.00    -0.282 OA
ENDROOT
BRANCH   1  10
ATOM      8  C   UNL     1       0.703  -0.993   1.013  0.00  0.00    +0.162 A 
ATOM      9  C   UNL     1       1.173  -0.180   2.032  0.00  0.00    +0.055 A 
ATOM     10  C   UNL     1       2.125  -0.656   2.913  0.00  0.00    -0.019 A 
ATOM     11  C   UNL     1       2.612  -1.943   2.781  0.00  0.00    +0.009 A 
ATOM     12  C   UNL     1       2.148  -2.760   1.767  0.00  0.00    +0.049 A 
ATOM     13  C   UNL     1       1.189  -2.291   0.883  0.00  0.00    +0.158 A 
BRANCH   8  15
ATOM     14  C   UNL     1      -0.606   0.848   0.269  0.00  0.00    +0.277 C 
ATOM     15  O   UNL     1      -0.234  -0.527   0.145  0.00  0.00    -0.491 OA
ENDBRANCH   8  15
BRANCH  13  16
ATOM     16  O   UNL     1       0.727  -3.095  -0.112  0.00  0.00    -0.503 OA
ATOM     17  H   UNL     1       1.234  -3.035  -0.933  0.00  0.00    +0.292 HD
ENDBRANCH  13  16
ENDBRANCH   1  10
BRANCH   2  18
ATOM     18  C   UNL     1       4.619   1.317   2.622  0.00  0.00    +0.195 C 
ATOM     19  O   UNL     1       5.450   0.792   1.905  0.00  0.00    -0.287 OA
BRANCH  18  20
ATOM     20  C   UNL     1       4.150   2.687   2.329  0.00  0.00    +0.022 A 
ATOM     21  C   UNL     1       3.290   3.338   3.217  0.00  0.00    +0.014 A 
ATOM     22  C   UNL     1       2.856   4.616   2.940  0.00  0.00    +0.039 A 
ATOM     23  C   UNL     1       3.271   5.256   1.781  0.00  0.00    +0.123 A 
ATOM     24  C   UNL     1       4.124   4.614   0.896  0.00  0.00    +0.039 A 
ATOM     25  C   UNL     1       4.569   3.338   1.167  0.00  0.00    +0.014 A 
ATOM     26  F   UNL     1       2.841   6.508   1.513  0.00  0.00    -0.205 F 
ENDBRANCH  18  20
ENDBRANCH   2  18
BRANCH   6  27
ATOM     27  C   UNL     1       1.407  -1.035   5.950  0.00  0.00    +0.113 C 
BRANCH  27  28
ATOM     28  C   UNL     1       1.180  -2.473   5.479  0.00  0.00    +0.052 C 
BRANCH  28  29
ATOM     29  C   UNL     1      -0.048  -3.034   6.149  0.00  0.00    -0.040 C 
ATOM     30  C   UNL     1      -1.305  -3.061   5.651  0.00  0.00    -0.001 A 
ATOM     31  C   UNL     1      -1.883  -2.594   4.385  0.00  0.00    +0.010 A 
ATOM     32  C   UNL     1      -3.207  -2.763   4.167  0.00  0.00    +0.001 A 
ATOM     33  C   UNL     1      -4.039  -3.372   5.117  0.00  0.00    +0.002 A 
ATOM     34  C   UNL     1      -3.580  -3.827   6.302  0.00  0.00    +0.026 A 
ATOM     35  C   UNL     1      -2.204  -3.701   6.637  0.00  0.00    +0.043 A 
ATOM     36  N   UNL     1      -1.529  -4.056   7.703  0.00  0.00    -0.380 N 
ATOM     37  C   UNL     1      -0.122  -3.686   7.511  0.00  0.00    +0.144 C 
ATOM     38  H   UNL     1      -1.897  -4.494   8.487  0.00  0.00    +0.160 HD
ENDBRANCH  28  29
ENDBRANCH  27  28
ENDBRANCH   6  27
TORSDOF 8
