REMARK  Name = ZINC64002443
REMARK  7 active torsions:
REMARK  status: ('A' for Active; 'I' for Inactive)
REMARK    1  A    between atoms: C_1  and  C_2
REMARK    2  A    between atoms: C_2  and  O_3
REMARK    3  A    between atoms: O_3  and  C_4
REMARK    4  A    between atoms: C_7  and  C_10
REMARK    5  A    between atoms: C_25  and  C_27
REMARK    6  A    between atoms: C_27  and  N_28
REMARK    7  A    between atoms: C_31  and  C_33
REMARK                            x       y       z     vdW  Elec       q    Type
REMARK                         _______ _______ _______ _____ _____    ______ ____
ROOT
ATOM      1  C   UNL     1       1.167  -6.057   1.766  0.00  0.00    +0.133 C 
ATOM      2  C   UNL     1       2.521  -6.546   1.239  0.00  0.00    +0.131 C 
ATOM      3  C   UNL     1       2.667  -7.993   1.692  0.00  0.00    -0.035 C 
ATOM      4  C   UNL     1       2.875  -8.710   0.594  0.00  0.00    -0.001 A 
ATOM      5  C   UNL     1       3.155 -10.142   0.398  0.00  0.00    +0.010 A 
ATOM      6  C   UNL     1       3.307 -10.552  -0.889  0.00  0.00    +0.001 A 
ATOM      7  C   UNL     1       3.211  -9.691  -1.987  0.00  0.00    +0.002 A 
ATOM      8  C   UNL     1       2.961  -8.361  -1.899  0.00  0.00    +0.026 A 
ATOM      9  C   UNL     1       2.787  -7.810  -0.596  0.00  0.00    +0.043 A 
ATOM     10  N   UNL     1       2.562  -6.562  -0.224  0.00  0.00    -0.375 N 
ATOM     11  C   UNL     1       2.503  -8.412   3.133  0.00  0.00    +0.052 C 
ATOM     12  C   UNL     1       1.171  -7.812   3.619  0.00  0.00    +0.113 C 
ATOM     13  N   UNL     1       1.082  -6.412   3.191  0.00  0.00    -0.290 N 
ATOM     14  C   UNL     1       0.921  -5.441   4.112  0.00  0.00    +0.238 C 
ATOM     15  O   UNL     1       0.738  -4.295   3.760  0.00  0.00    -0.274 OA
ATOM     16  H   UNL     1       2.439  -5.794  -0.804  0.00  0.00    +0.160 HD
ENDROOT
BRANCH   1  20
ATOM     17  C   UNL     1       0.884  -1.817   1.313  0.00  0.00    +0.121 A 
ATOM     18  C   UNL     1      -0.246  -2.609   1.165  0.00  0.00    +0.046 A 
ATOM     19  C   UNL     1      -0.152  -3.979   1.312  0.00  0.00    +0.009 A 
ATOM     20  C   UNL     1       1.067  -4.562   1.606  0.00  0.00    -0.025 A 
ATOM     21  C   UNL     1       2.195  -3.775   1.754  0.00  0.00    +0.009 A 
ATOM     22  C   UNL     1       2.107  -2.405   1.602  0.00  0.00    +0.046 A 
BRANCH  17  23
ATOM     23  O   UNL     1       0.793  -0.469   1.168  0.00  0.00    -0.492 OA
BRANCH  23  25
ATOM     24  C   UNL     1      -0.402   1.589   0.746  0.00  0.00    +0.048 C 
ATOM     25  C   UNL     1      -0.497   0.067   0.871  0.00  0.00    +0.225 C 
ENDBRANCH  23  25
ENDBRANCH  17  23
ENDBRANCH   1  20
BRANCH  14  26
ATOM     26  C   UNL     1       0.969  -5.780   5.580  0.00  0.00    +0.239 C 
BRANCH  26  27
ATOM     27  N   UNL     1       0.768  -4.562   6.369  0.00  0.00    -0.262 N 
ATOM     28  C   UNL     1      -0.168  -4.379   7.324  0.00  0.00    +0.109 A 
ATOM     29  C   UNL     1      -0.021  -3.125   7.810  0.00  0.00    +0.044 A 
ATOM     30  C   UNL     1       1.042  -2.521   7.130  0.00  0.00    +0.060 A 
ATOM     31  N   UNL     1       1.519  -3.384   6.270  0.00  0.00    -0.176 NA
ATOM     32  C   UNL     1       1.552  -1.121   7.354  0.00  0.00    +0.067 C 
ENDBRANCH  26  27
ENDBRANCH  14  26
TORSDOF 5
