REMARK  Name = ZINC09126035
REMARK  4 active torsions:
REMARK  status: ('A' for Active; 'I' for Inactive)
REMARK    1  A    between atoms: C_11  and  C_13
REMARK    2  A    between atoms: C_13  and  N_50
REMARK    3  A    between atoms: N_16  and  S_19
REMARK    4  A    between atoms: S_19  and  C_22
REMARK                            x       y       z     vdW  Elec       q    Type
REMARK                         _______ _______ _______ _____ _____    ______ ____
ROOT
ATOM      1  C   UNL     1       4.356   0.735  -3.677  0.00  0.00    -0.061 C 
ATOM      2  C   UNL     1       5.108   0.524  -2.358  0.00  0.00    +0.091 C 
ATOM      3  N   UNL     1       4.475  -0.587  -1.632  0.00  0.00    -0.180 NA
ATOM      4  C   UNL     1       4.263  -1.855  -2.347  0.00  0.00    +0.091 C 
ATOM      5  C   UNL     1       3.539  -1.548  -3.668  0.00  0.00    -0.061 C 
ATOM      6  N   UNL     1       4.327  -0.545  -4.417  0.00  0.00    +0.387 N 
ATOM      7  H   UNL     1       5.288  -0.889  -4.524  0.00  0.00    -0.081 HD
ENDROOT
BRANCH   3   8
ATOM      8  S   UNL     1       4.018  -0.417  -0.050  0.00  0.00    +0.067 S 
ATOM      9  O   UNL     1       4.822   0.620   0.496  0.00  0.00    -0.152 OA
ATOM     10  O   UNL     1       3.983  -1.725   0.505  0.00  0.00    -0.152 OA
BRANCH   8  11
ATOM     11  C   UNL     1       2.359   0.176  -0.046  0.00  0.00    +0.144 A 
ATOM     12  C   UNL     1       1.201  -0.528  -0.041  0.00  0.00    +0.038 A 
ATOM     13  C   UNL     1       0.000   0.157  -0.040  0.00  0.00    +0.030 A 
ATOM     14  C   UNL     1       0.017   1.514  -0.045  0.00  0.00    +0.080 A 
ATOM     15  S   UNL     1       1.768   1.861  -0.051  0.00  0.00    -0.057 S 
ATOM     16 CL   UNL     1      -1.318   2.623  -0.052  0.00  0.00    -0.076 Cl
ENDBRANCH   8  11
ENDBRANCH   3   8
BRANCH   6  17
ATOM     17  C   UNL     1       3.739  -0.340  -5.757  0.00  0.00    +0.019 C 
BRANCH  17  28
ATOM     18  C   UNL     1       3.701  -5.255  -9.936  0.00  0.00    +0.000 A 
ATOM     19  C   UNL     1       4.470  -5.054  -8.804  0.00  0.00    +0.002 A 
ATOM     20  C   UNL     1       4.362  -3.872  -8.100  0.00  0.00    +0.024 A 
ATOM     21  C   UNL     1       3.487  -2.882  -8.531  0.00  0.00    +0.039 A 
ATOM     22  C   UNL     1       2.714  -3.085  -9.665  0.00  0.00    -0.026 A 
ATOM     23  C   UNL     1       2.827  -4.275 -10.365  0.00  0.00    +0.005 A 
ATOM     24  C   UNL     1       1.754  -2.036 -10.161  0.00  0.00    +0.038 C 
ATOM     25  C   UNL     1       1.395  -1.064  -9.037  0.00  0.00    +0.024 C 
ATOM     26  C   UNL     1       2.690  -0.545  -8.399  0.00  0.00    +0.114 C 
ATOM     27  N   UNL     1       3.385  -1.692  -7.798  0.00  0.00    -0.273 N 
ATOM     28  C   UNL     1       3.920  -1.599  -6.564  0.00  0.00    +0.203 C 
ATOM     29  O   UNL     1       4.547  -2.530  -6.104  0.00  0.00    -0.277 OA
ENDBRANCH  17  28
ENDBRANCH   6  17
TORSDOF 4
