REMARK  Name = ZINC44168646
REMARK  11 active torsions:
REMARK  status: ('A' for Active; 'I' for Inactive)
REMARK    1  A    between atoms: C_1  and  C_2
REMARK    2  A    between atoms: C_5  and  C_8
REMARK    3  A    between atoms: C_10  and  C_14
REMARK    4  A    between atoms: C_11  and  C_13
REMARK    5  A    between atoms: C_14  and  N_15
REMARK    6  A    between atoms: C_16  and  C_32
REMARK    7  A    between atoms: C_17  and  C_20
REMARK    8  A    between atoms: N_22  and  C_23
REMARK    9  A    between atoms: C_23  and  C_24
REMARK   10  A    between atoms: C_27  and  S_30
REMARK   11  A    between atoms: S_30  and  C_31
REMARK                            x       y       z     vdW  Elec       q    Type
REMARK                         _______ _______ _______ _____ _____    ______ ____
ROOT
ATOM      1  N   UNL     1      -1.275  -7.925   1.827  0.00  0.00    -0.242 N 
ATOM      2  C   UNL     1      -2.040  -7.502   2.853  0.00  0.00    +0.069 A 
ATOM      3  C   UNL     1      -3.243  -8.138   2.738  0.00  0.00    +0.170 A 
ATOM      4  N   UNL     1      -3.202  -8.934   1.656  0.00  0.00    -0.125 NA
ATOM      5  N   UNL     1      -2.051  -8.829   1.088  0.00  0.00    -0.064 NA
ATOM      6  C   UNL     1      -1.644  -6.516   3.921  0.00  0.00    +0.068 C 
ENDROOT
BRANCH   3   7
ATOM      7  C   UNL     1      -4.393  -7.979   3.648  0.00  0.00    +0.266 C 
ATOM      8  O   UNL     1      -4.315  -7.227   4.601  0.00  0.00    -0.268 OA
ATOM      9  N   UNL     1      -5.530  -8.668   3.425  0.00  0.00    -0.306 N 
ATOM     10  H   UNL     1      -5.592  -9.268   2.665  0.00  0.00    +0.149 HD
BRANCH   9  11
ATOM     11  C   UNL     1      -6.672  -8.510   4.329  0.00  0.00    +0.140 C 
BRANCH  11  12
ATOM     12  C   UNL     1      -7.808  -9.382   3.860  0.00  0.00    -0.030 A 
ATOM     13  C   UNL     1      -8.736  -8.884   2.964  0.00  0.00    +0.006 A 
ATOM     14  C   UNL     1      -9.778  -9.680   2.533  0.00  0.00    +0.015 A 
ATOM     15  C   UNL     1      -9.894 -10.984   2.999  0.00  0.00    +0.008 A 
ATOM     16  C   UNL     1      -8.959 -11.481   3.899  0.00  0.00    +0.015 A 
ATOM     17  C   UNL     1      -7.916 -10.681   4.322  0.00  0.00    +0.006 A 
BRANCH  15  18
ATOM     18  S   UNL     1     -11.223 -12.003   2.452  0.00  0.00    -0.129 S 
ATOM     19  C   UNL     1     -10.954 -13.575   3.316  0.00  0.00    +0.090 C 
ENDBRANCH  15  18
ENDBRANCH  11  12
ENDBRANCH   9  11
ENDBRANCH   3   7
BRANCH   1  20
ATOM     20  C   UNL     1       0.101  -7.514   1.536  0.00  0.00    +0.204 C 
BRANCH  20  23
ATOM     21  C   UNL     1       0.058  -4.251  -0.021  0.00  0.00    +0.228 A 
ATOM     22  N   UNL     1       0.068  -5.023   1.040  0.00  0.00    -0.212 NA
ATOM     23  C   UNL     1       0.085  -6.303   0.639  0.00  0.00    +0.104 A 
ATOM     24  C   UNL     1       0.085  -6.314  -0.707  0.00  0.00    +0.128 A 
ATOM     25  O   UNL     1       0.062  -5.030  -1.117  0.00  0.00    -0.440 OA
ATOM     26  C   UNL     1       0.101  -7.534  -1.591  0.00  0.00    +0.088 C 
BRANCH  21  31
ATOM     27  C   UNL     1      -0.018   1.503   0.010  0.00  0.00    +0.044 C 
ATOM     28  C   UNL     1       0.002  -0.004   0.002  0.00  0.00    -0.050 A 
ATOM     29  C   UNL     1       0.006  -0.686  -1.202  0.00  0.00    +0.004 A 
ATOM     30  C   UNL     1       0.024  -2.066  -1.216  0.00  0.00    +0.013 A 
ATOM     31  C   UNL     1       0.039  -2.773  -0.013  0.00  0.00    +0.037 A 
ATOM     32  C   UNL     1       0.036  -2.079   1.198  0.00  0.00    +0.013 A 
ATOM     33  C   UNL     1       0.023  -0.699   1.198  0.00  0.00    +0.004 A 
ENDBRANCH  21  31
ENDBRANCH  20  23
ENDBRANCH   1  20
TORSDOF 7
