REMARK  Name = ZINC12489861
REMARK  11 active torsions:
REMARK  status: ('A' for Active; 'I' for Inactive)
REMARK    1  A    between atoms: C_1  and  C_2
REMARK    2  A    between atoms: C_2  and  C_3
REMARK    3  A    between atoms: C_6  and  N_9
REMARK    4  A    between atoms: N_9  and  C_10
REMARK    5  A    between atoms: C_10  and  C_12
REMARK    6  A    between atoms: C_10  and  C_18
REMARK    7  A    between atoms: N_20  and  C_21
REMARK    8  A    between atoms: C_21  and  C_22
REMARK    9  A    between atoms: C_28  and  C_30
REMARK   10  A    between atoms: C_30  and  N_31
REMARK   11  A    between atoms: C_32  and  C_34
REMARK                            x       y       z     vdW  Elec       q    Type
REMARK                         _______ _______ _______ _____ _____    ______ ____
ROOT
ATOM      1  N   UNL     1       2.181   3.980   0.950  0.00  0.00    -0.254 N 
ATOM      2  C   UNL     1       1.717   4.436   2.131  0.00  0.00    +0.238 C 
ATOM      3  O   UNL     1       0.555   4.767   2.239  0.00  0.00    -0.274 OA
ENDROOT
BRANCH   1   7
ATOM      4  C   UNL     1       6.234   3.130   0.492  0.00  0.00    -0.048 A 
ATOM      5  C   UNL     1       5.819   4.436   0.677  0.00  0.00    +0.005 A 
ATOM      6  C   UNL     1       4.476   4.722   0.828  0.00  0.00    +0.024 A 
ATOM      7  C   UNL     1       3.542   3.695   0.796  0.00  0.00    +0.037 A 
ATOM      8  C   UNL     1       3.962   2.383   0.616  0.00  0.00    +0.024 A 
ATOM      9  C   UNL     1       5.306   2.105   0.460  0.00  0.00    +0.005 A 
BRANCH   4  11
ATOM     10  C   UNL     1       8.323   2.557   1.699  0.00  0.00    +0.009 C 
ATOM     11  C   UNL     1       7.700   2.822   0.327  0.00  0.00    +0.032 C 
ENDBRANCH   4  11
ENDBRANCH   1   7
BRANCH   1  12
ATOM     12  C   UNL     1       1.260   3.785  -0.173  0.00  0.00    +0.197 C 
BRANCH  12  13
ATOM     13  C   UNL     1       1.989   3.117  -1.310  0.00  0.00    -0.018 A 
ATOM     14  C   UNL     1       1.527   1.917  -1.817  0.00  0.00    +0.006 A 
ATOM     15  C   UNL     1       2.195   1.304  -2.861  0.00  0.00    +0.000 A 
ATOM     16  C   UNL     1       3.326   1.892  -3.397  0.00  0.00    +0.000 A 
ATOM     17  C   UNL     1       3.788   3.092  -2.890  0.00  0.00    +0.000 A 
ATOM     18  C   UNL     1       3.119   3.704  -1.846  0.00  0.00    +0.006 A 
ENDBRANCH  12  13
BRANCH  12  19
ATOM     19  C   UNL     1       0.733   5.121  -0.629  0.00  0.00    +0.239 C 
ATOM     20  O   UNL     1       1.092   6.136  -0.072  0.00  0.00    -0.273 OA
ATOM     21  N   UNL     1      -0.136   5.187  -1.657  0.00  0.00    -0.311 N 
ATOM     22  H   UNL     1      -0.423   4.375  -2.103  0.00  0.00    +0.149 HD
BRANCH  21  23
ATOM     23  C   UNL     1      -0.648   6.486  -2.101  0.00  0.00    +0.135 C 
BRANCH  23  24
ATOM     24  C   UNL     1      -1.610   6.281  -3.273  0.00  0.00    +0.135 C 
ATOM     25  C   UNL     1      -2.096   7.644  -3.814  0.00  0.00    +0.035 C 
ATOM     26  C   UNL     1      -3.574   7.394  -4.189  0.00  0.00    +0.031 C 
ATOM     27  C   UNL     1      -3.805   5.909  -3.831  0.00  0.00    +0.160 C 
ATOM     28  O   UNL     1      -2.808   5.609  -2.829  0.00  0.00    -0.375 OA
ENDBRANCH  23  24
ENDBRANCH  21  23
ENDBRANCH  12  19
ENDBRANCH   1  12
BRANCH   2  29
ATOM     29  C   UNL     1       2.642   4.533   3.316  0.00  0.00    +0.201 C 
BRANCH  29  30
ATOM     30  N   UNL     1       1.876   4.925   4.502  0.00  0.00    -0.302 N 
ATOM     31  C   UNL     1       2.499   5.075   5.688  0.00  0.00    +0.251 C 
ATOM     32  O   UNL     1       3.698   4.885   5.773  0.00  0.00    -0.270 OA
ATOM     33  H   UNL     1       0.920   5.077   4.434  0.00  0.00    +0.150 HD
BRANCH  31  34
ATOM     34  C   UNL     1       1.733   5.468   6.874  0.00  0.00    +0.074 A 
ATOM     35  C   UNL     1       2.176   5.674   8.171  0.00  0.00    +0.021 A 
ATOM     36  C   UNL     1       1.236   6.042   9.101  0.00  0.00    +0.008 A 
ATOM     37  C   UNL     1      -0.059   6.184   8.715  0.00  0.00    +0.046 A 
ATOM     38  S   UNL     1      -0.011   5.813   7.023  0.00  0.00    -0.092 S 
ENDBRANCH  31  34
ENDBRANCH  29  30
ENDBRANCH   2  29
TORSDOF 10
