REMARK  Name = ZINC09224709
REMARK  9 active torsions:
REMARK  status: ('A' for Active; 'I' for Inactive)
REMARK    1  A    between atoms: C_1  and  C_2
REMARK    2  A    between atoms: C_2  and  C_3
REMARK    3  A    between atoms: C_3  and  C_5
REMARK    4  A    between atoms: C_3  and  N_6
REMARK    5  A    between atoms: C_7  and  C_9
REMARK    6  A    between atoms: C_9  and  C_10
REMARK    7  A    between atoms: C_10  and  S_11
REMARK    8  A    between atoms: S_11  and  C_14
REMARK    9  A    between atoms: C_19  and  C_20
REMARK                            x       y       z     vdW  Elec       q    Type
REMARK                         _______ _______ _______ _____ _____    ______ ____
ROOT
ATOM      1  C   UNL     1      -8.132   0.865   3.622  0.00  0.00    +0.093 A 
ATOM      2  C   UNL     1      -8.977  -0.039   4.233  0.00  0.00    +0.055 A 
ATOM      3  C   UNL     1     -10.337  -0.023   3.946  0.00  0.00    +0.068 A 
ATOM      4  C   UNL     1     -10.842   0.909   3.038  0.00  0.00    +0.066 A 
ATOM      5  C   UNL     1      -9.981   1.815   2.428  0.00  0.00    +0.033 A 
ATOM      6  C   UNL     1      -8.634   1.793   2.725  0.00  0.00    -0.024 A 
ATOM      7  C   UNL     1      -7.704   2.780   2.067  0.00  0.00    +0.046 C 
ATOM      8  N   UNL     1     -12.201   0.941   2.737  0.00  0.00    -0.316 N 
ATOM      9  H   UNL     1     -12.542   1.592   2.104  0.00  0.00    +0.169 HD
ATOM     10  C   UNL     1     -13.044   0.066   3.323  0.00  0.00    +0.314 A 
ATOM     11  O   UNL     1     -14.230   0.089   3.063  0.00  0.00    -0.262 OA
ATOM     12  C   UNL     1     -12.504  -0.930   4.293  0.00  0.00    +0.314 A 
ATOM     13  O   UNL     1     -13.247  -1.726   4.832  0.00  0.00    -0.262 OA
ATOM     14  N   UNL     1     -11.184  -0.938   4.566  0.00  0.00    -0.316 N 
ATOM     15  H   UNL     1     -10.823  -1.582   5.195  0.00  0.00    +0.169 HD
ENDROOT
BRANCH   1  16
ATOM     16  S   UNL     1      -6.409   0.842   3.989  0.00  0.00    -0.002 S 
ATOM     17  O   UNL     1      -6.255  -0.200   4.944  0.00  0.00    -0.169 OA
ATOM     18  O   UNL     1      -6.091   2.185   4.324  0.00  0.00    -0.169 OA
BRANCH  16  19
ATOM     19  C   UNL     1      -5.606   0.381   2.428  0.00  0.00    +0.181 C 
BRANCH  19  20
ATOM     20  C   UNL     1      -4.090   0.329   2.630  0.00  0.00    +0.119 C 
BRANCH  20  22
ATOM     21  N   UNL     1      -2.082  -0.162   1.273  0.00  0.00    -0.313 N 
ATOM     22  C   UNL     1      -3.424  -0.053   1.334  0.00  0.00    +0.215 C 
ATOM     23  O   UNL     1      -4.095  -0.264   0.346  0.00  0.00    -0.276 OA
ATOM     24  H   UNL     1      -1.545   0.006   2.063  0.00  0.00    +0.149 HD
BRANCH  21  25
ATOM     25  C   UNL     1      -1.433  -0.534   0.013  0.00  0.00    +0.070 C 
ATOM     26  C   UNL     1      -1.416  -2.058  -0.121  0.00  0.00    +0.028 C 
BRANCH  25  28
ATOM     27  C   UNL     1      -0.019   1.526   0.010  0.00  0.00    +0.005 C 
ATOM     28  C   UNL     1       0.002  -0.004   0.002  0.00  0.00    +0.018 C 
ENDBRANCH  25  28
ENDBRANCH  21  25
ENDBRANCH  20  22
ENDBRANCH  19  20
ENDBRANCH  16  19
ENDBRANCH   1  16
TORSDOF 6
