REMARK  Name = ZINC61683596
REMARK  7 active torsions:
REMARK  status: ('A' for Active; 'I' for Inactive)
REMARK    1  A    between atoms: C_1  and  C_2
REMARK    2  A    between atoms: C_2  and  C_3
REMARK    3  A    between atoms: C_2  and  N_4
REMARK    4  A    between atoms: C_6  and  N_9
REMARK    5  A    between atoms: N_9  and  C_10
REMARK    6  A    between atoms: C_11  and  N_20
REMARK    7  A    between atoms: N_12  and  C_19
REMARK                            x       y       z     vdW  Elec       q    Type
REMARK                         _______ _______ _______ _____ _____    ______ ____
ROOT
ATOM      1  C   UNL     1       3.687  -1.792   4.454  0.00  0.00    +0.135 A 
ATOM      2  C   UNL     1       4.397  -2.921   4.804  0.00  0.00    +0.127 A 
ATOM      3  N   UNL     1       4.496  -3.268   6.132  0.00  0.00    -0.284 N 
ATOM      4  C   UNL     1       3.905  -2.516   7.078  0.00  0.00    +0.331 A 
ATOM      5  O   UNL     1       4.003  -2.839   8.246  0.00  0.00    -0.246 OA
ATOM      6  N   UNL     1       3.208  -1.412   6.755  0.00  0.00    -0.273 N 
ATOM      7  H   UNL     1       2.792  -0.885   7.455  0.00  0.00    +0.173 HD
ATOM      8  C   UNL     1       3.087  -1.026   5.470  0.00  0.00    +0.277 A 
ATOM      9  O   UNL     1       2.456  -0.020   5.188  0.00  0.00    -0.266 OA
ATOM     10  C   UNL     1       5.248  -4.465   6.518  0.00  0.00    +0.155 C 
ENDROOT
BRANCH   2  11
ATOM     11  N   UNL     1       5.001  -3.691   3.837  0.00  0.00    -0.343 N 
ATOM     12  H   UNL     1       4.928  -3.441   2.902  0.00  0.00    +0.144 HD
ATOM     13  H   UNL     1       5.500  -4.484   4.089  0.00  0.00    +0.144 HD
ENDBRANCH   2  11
BRANCH   1  14
ATOM     14  N   UNL     1       3.568  -1.409   3.099  0.00  0.00    -0.305 N 
ATOM     15  H   UNL     1       4.364  -1.233   2.574  0.00  0.00    +0.152 HD
BRANCH  14  18
ATOM     16  N   UNL     1       0.684  -0.853   1.090  0.00  0.00    -0.267 N 
ATOM     17  C   UNL     1       2.031  -0.806   1.270  0.00  0.00    +0.131 A 
ATOM     18  C   UNL     1       2.295  -1.285   2.513  0.00  0.00    +0.069 A 
ATOM     19  C   UNL     1       1.074  -1.632   3.108  0.00  0.00    +0.157 A 
ATOM     20  N   UNL     1       0.113  -1.369   2.260  0.00  0.00    -0.178 NA
BRANCH  16  22
ATOM     21  C   UNL     1      -0.295   1.077  -0.050  0.00  0.00    +0.032 C 
ATOM     22  C   UNL     1      -0.041  -0.431  -0.111  0.00  0.00    +0.101 C 
ATOM     23  C   UNL     1       0.794  -0.758  -1.351  0.00  0.00    +0.032 C 
ENDBRANCH  16  22
ENDBRANCH  14  18
ENDBRANCH   1  14
TORSDOF 4
