REMARK  Name = ZINC00634572
REMARK  8 active torsions:
REMARK  status: ('A' for Active; 'I' for Inactive)
REMARK    1  A    between atoms: C_1  and  C_2
REMARK    2  A    between atoms: C_2  and  C_3
REMARK    3  A    between atoms: C_3  and  C_4
REMARK    4  A    between atoms: C_6  and  C_12
REMARK    5  A    between atoms: C_7  and  O_11
REMARK    6  A    between atoms: C_9  and  O_10
REMARK    7  A    between atoms: C_13  and  C_19
REMARK    8  A    between atoms: C_14  and  C_18
REMARK                            x       y       z     vdW  Elec       q    Type
REMARK                         _______ _______ _______ _____ _____    ______ ____
ROOT
ATOM      1  C   UNL     1      -1.796  -4.880   2.435  0.00  0.00    +0.106 A 
ATOM      2  C   UNL     1      -1.900  -6.334   2.577  0.00  0.00    +0.055 A 
ATOM      3  C   UNL     1      -2.085  -6.585   3.908  0.00  0.00    +0.043 A 
ATOM      4  N   UNL     1      -2.098  -5.407   4.557  0.00  0.00    -0.281 N 
ATOM      5  H   UNL     1      -2.214  -5.296   5.514  0.00  0.00    +0.189 HD
ATOM      6  N   UNL     1      -1.914  -4.367   3.640  0.00  0.00    -0.173 NA
ATOM      7  C   UNL     1      -2.246  -7.944   4.539  0.00  0.00    +0.066 C 
ENDROOT
BRANCH   2   8
ATOM      8  C   UNL     1      -1.820  -7.335   1.494  0.00  0.00    +0.113 A 
ATOM      9  N   UNL     1      -1.549  -7.151   0.219  0.00  0.00    -0.239 NA
ATOM     10  C   UNL     1      -1.509  -8.167  -0.666  0.00  0.00    +0.079 A 
ATOM     11  C   UNL     1      -1.233  -8.108  -2.053  0.00  0.00    +0.029 A 
ATOM     12  C   UNL     1      -1.232  -9.236  -2.812  0.00  0.00    +0.002 A 
ATOM     13  C   UNL     1      -1.501 -10.483  -2.265  0.00  0.00    +0.001 A 
ATOM     14  C   UNL     1      -1.775 -10.585  -0.914  0.00  0.00    +0.017 A 
ATOM     15  C   UNL     1      -1.778  -9.451  -0.138  0.00  0.00    +0.040 A 
ATOM     16  S   UNL     1      -2.059  -9.104   1.581  0.00  0.00    -0.067 S 
ENDBRANCH   2   8
BRANCH   1  19
ATOM     17  C   UNL     1      -2.185  -3.708  -1.114  0.00  0.00    -0.005 A 
ATOM     18  C   UNL     1      -2.378  -4.409   0.059  0.00  0.00    +0.021 A 
ATOM     19  C   UNL     1      -1.590  -4.130   1.174  0.00  0.00    +0.045 A 
ATOM     20  C   UNL     1      -0.605  -3.139   1.099  0.00  0.00    +0.130 A 
ATOM     21  C   UNL     1      -0.418  -2.442  -0.082  0.00  0.00    +0.091 A 
ATOM     22  C   UNL     1      -1.203  -2.729  -1.189  0.00  0.00    +0.124 A 
BRANCH  22  23
ATOM     23  O   UNL     1      -1.014  -2.047  -2.349  0.00  0.00    -0.506 OA
ATOM     24  H   UNL     1      -1.544  -1.242  -2.422  0.00  0.00    +0.292 HD
ENDBRANCH  22  23
BRANCH  20  25
ATOM     25  O   UNL     1       0.166  -2.863   2.183  0.00  0.00    -0.506 OA
ATOM     26  H   UNL     1       1.013  -3.330   2.193  0.00  0.00    +0.292 HD
ENDBRANCH  20  25
BRANCH  17  27
ATOM     27  C   UNL     1      -3.037  -4.011  -2.319  0.00  0.00    +0.038 C 
BRANCH  27  29
ATOM     28  C   UNL     1      -5.011  -3.269  -3.660  0.00  0.00    +0.004 C 
ATOM     29  C   UNL     1      -4.145  -2.962  -2.437  0.00  0.00    +0.001 C 
ENDBRANCH  27  29
ENDBRANCH  17  27
ENDBRANCH   1  19
TORSDOF 6
