REMARK  Name = ZINC06461551
REMARK  7 active torsions:
REMARK  status: ('A' for Active; 'I' for Inactive)
REMARK    1  A    between atoms: C_1  and  C_2
REMARK    2  A    between atoms: C_2  and  C_3
REMARK    3  A    between atoms: C_2  and  C_4
REMARK    4  A    between atoms: C_4  and  C_6
REMARK    5  A    between atoms: C_4  and  O_12
REMARK    6  A    between atoms: O_12  and  C_13
REMARK    7  A    between atoms: C_13  and  C_15
REMARK                            x       y       z     vdW  Elec       q    Type
REMARK                         _______ _______ _______ _____ _____    ______ ____
ROOT
ATOM      1  C   UNL     1      -2.595  -2.583   0.179  0.00  0.00    +0.265 C 
ENDROOT
BRANCH   1   2
ATOM      2  C   UNL     1      -2.425  -3.765  -0.740  0.00  0.00    +0.261 C 
ATOM      3  O   UNL     1      -3.313  -4.583  -0.847  0.00  0.00    -0.271 OA
ATOM      4  N   UNL     1      -1.284  -3.913  -1.444  0.00  0.00    -0.237 N 
ATOM      5  C   UNL     1      -1.171  -4.914  -2.339  0.00  0.00    +0.303 C 
ATOM      6  O   UNL     1      -2.096  -5.683  -2.512  0.00  0.00    -0.253 OA
ATOM      7  N   UNL     1      -0.030  -5.062  -3.043  0.00  0.00    -0.313 N 
ATOM      8  H   UNL     1      -0.546  -3.300  -1.305  0.00  0.00    +0.159 HD
ATOM      9  H   UNL     1       0.708  -4.448  -2.904  0.00  0.00    +0.146 HD
ATOM     10  H   UNL     1       0.052  -5.782  -3.687  0.00  0.00    +0.146 HD
ENDBRANCH   1   2
BRANCH   1  12
ATOM     11  C   UNL     1      -2.703  -1.855   2.567  0.00  0.00    +0.011 C 
ATOM     12  C   UNL     1      -2.547  -3.058   1.633  0.00  0.00    +0.033 C 
ATOM     13  C   UNL     1      -3.686  -4.048   1.884  0.00  0.00    +0.011 C 
ENDBRANCH   1  12
BRANCH   1  14
ATOM     14  O   UNL     1      -1.524  -1.631  -0.054  0.00  0.00    -0.448 OA
BRANCH  14  15
ATOM     15  C   UNL     1      -1.803  -0.331   0.164  0.00  0.00    +0.341 C 
ATOM     16  O   UNL     1      -2.911  -0.003   0.539  0.00  0.00    -0.245 OA
BRANCH  15  17
ATOM     17  C   UNL     1      -0.762   0.694  -0.052  0.00  0.00    +0.072 A 
ATOM     18  C   UNL     1       0.512   0.320  -0.484  0.00  0.00    +0.016 A 
ATOM     19  C   UNL     1       1.479   1.283  -0.684  0.00  0.00    +0.001 A 
ATOM     20  C   UNL     1       1.189   2.618  -0.460  0.00  0.00    +0.001 A 
ATOM     21  C   UNL     1      -0.071   2.996  -0.032  0.00  0.00    +0.015 A 
ATOM     22  C   UNL     1      -1.049   2.043   0.173  0.00  0.00    +0.027 A 
ATOM     23  I   UNL     1      -2.959   2.619   0.812  0.00  0.00    -0.043 I 
ENDBRANCH  15  17
ENDBRANCH  14  15
ENDBRANCH   1  14
TORSDOF 5
