REMARK  Name = ZINC54549832
REMARK  5 active torsions:
REMARK  status: ('A' for Active; 'I' for Inactive)
REMARK    1  A    between atoms: C_6  and  C_7
REMARK    2  A    between atoms: N_9  and  C_16
REMARK    3  A    between atoms: N_12  and  C_13
REMARK    4  A    between atoms: C_16  and  N_17
REMARK    5  A    between atoms: C_21  and  C_23
REMARK                            x       y       z     vdW  Elec       q    Type
REMARK                         _______ _______ _______ _____ _____    ______ ____
ROOT
ATOM      1  C   UNL     1      -1.254  -0.790   0.087  0.00  0.00    +0.163 A 
ATOM      2  N   UNL     1      -2.456  -0.290   0.162  0.00  0.00    -0.152 NA
ATOM      3  N   UNL     1      -3.373  -1.342   0.033  0.00  0.00    -0.257 N 
ATOM      4  C   UNL     1      -2.665  -2.481  -0.120  0.00  0.00    +0.177 A 
ATOM      5  S   UNL     1      -3.312  -4.053  -0.319  0.00  0.00    -0.011 S 
ATOM      6  N   UNL     1      -1.357  -2.155  -0.094  0.00  0.00    -0.300 N 
ENDROOT
BRANCH   1  12
ATOM      7  C   UNL     1       0.009   1.316   0.584  0.00  0.00    +0.031 A 
ATOM      8  C   UNL     1       1.208   1.994   0.653  0.00  0.00    +0.111 A 
ATOM      9  N   UNL     1       2.342   1.397   0.340  0.00  0.00    -0.263 NA
ATOM     10  C   UNL     1       2.386   0.137  -0.049  0.00  0.00    +0.111 A 
ATOM     11  C   UNL     1       1.234  -0.615  -0.146  0.00  0.00    +0.031 A 
ATOM     12  C   UNL     1       0.008  -0.023   0.176  0.00  0.00    +0.022 A 
ENDBRANCH   1  12
BRANCH   6  13
ATOM     13  C   UNL     1      -0.237  -3.090  -0.230  0.00  0.00    +0.091 C 
ATOM     14  C   UNL     1      -0.302  -4.392   0.571  0.00  0.00    +0.027 C 
ATOM     15  C   UNL     1       0.671  -3.286   0.985  0.00  0.00    +0.027 C 
ENDBRANCH   6  13
BRANCH   3  16
ATOM     16  C   UNL     1      -4.833  -1.227   0.060  0.00  0.00    +0.072 C 
BRANCH  16  17
ATOM     17  N   UNL     1      -5.303  -0.663  -1.212  0.00  0.00    +0.395 N 
ATOM     18  C   UNL     1      -4.824   0.729  -1.346  0.00  0.00    -0.076 C 
ATOM     19  C   UNL     1      -5.979   1.479  -2.056  0.00  0.00    -0.020 C 
ATOM     20  C   UNL     1      -7.225   0.809  -1.419  0.00  0.00    -0.017 C 
ATOM     21  C   UNL     1      -6.777  -0.656  -1.237  0.00  0.00    -0.063 C 
ATOM     22  H   UNL     1      -4.953  -1.216  -1.980  0.00  0.00    -0.079 HD
BRANCH  21  23
ATOM     23  C   UNL     1      -7.282  -1.504  -2.407  0.00  0.00    -0.025 C 
ATOM     24  C   UNL     1      -6.752  -0.927  -3.721  0.00  0.00    +0.002 C 
ATOM     25  C   UNL     1      -7.256  -1.774  -4.890  0.00  0.00    +0.000 C 
ATOM     26  C   UNL     1      -8.786  -1.761  -4.907  0.00  0.00    +0.000 C 
ATOM     27  C   UNL     1      -9.316  -2.338  -3.593  0.00  0.00    +0.000 C 
ATOM     28  C   UNL     1      -8.812  -1.491  -2.424  0.00  0.00    +0.002 C 
ENDBRANCH  21  23
ENDBRANCH  16  17
ENDBRANCH   3  16
TORSDOF 5
