REMARK  Name = ZINC33810311
REMARK  8 active torsions:
REMARK  status: ('A' for Active; 'I' for Inactive)
REMARK    1  A    between atoms: C_1  and  C_2
REMARK    2  A    between atoms: C_2  and  C_31
REMARK    3  A    between atoms: C_6  and  C_20
REMARK    4  A    between atoms: C_11  and  S_15
REMARK    5  A    between atoms: S_15  and  C_16
REMARK    6  A    between atoms: C_16  and  C_17
REMARK    7  A    between atoms: C_25  and  O_26
REMARK    8  A    between atoms: O_26  and  C_27
REMARK                            x       y       z     vdW  Elec       q    Type
REMARK                         _______ _______ _______ _____ _____    ______ ____
ROOT
ATOM      1  C   UNL     1       5.887   1.426   3.043  0.00  0.00    +0.011 C 
ATOM      2  C   UNL     1       6.720   1.709   1.791  0.00  0.00    -0.023 C 
ATOM      3  C   UNL     1       5.854   2.417   0.747  0.00  0.00    +0.058 C 
ATOM      4  C   UNL     1       4.702   1.524   0.354  0.00  0.00    +0.017 C 
ATOM      5  C   UNL     1       4.829   0.180   0.364  0.00  0.00    +0.024 C 
ATOM      6  C   UNL     1       3.686  -0.710  -0.052  0.00  0.00    +0.096 C 
ATOM      7  C   UNL     1       2.382   0.031  -0.024  0.00  0.00    +0.069 A 
ATOM      8  C   UNL     1       2.350   1.391  -0.013  0.00  0.00    +0.135 A 
ATOM      9  N   UNL     1       1.141   2.034   0.002  0.00  0.00    -0.208 NA
ATOM     10  C   UNL     1      -0.016   1.313   0.009  0.00  0.00    +0.171 A 
ATOM     11  N   UNL     1       0.002  -0.004   0.002  0.00  0.00    -0.302 N 
ATOM     12  C   UNL     1       1.162  -0.679  -0.013  0.00  0.00    +0.258 A 
ATOM     13  O   UNL     1       1.161  -1.901  -0.017  0.00  0.00    -0.267 OA
ATOM     14  N   UNL     1       3.522   2.110  -0.018  0.00  0.00    -0.302 N 
ATOM     15  C   UNL     1       6.032  -0.430   0.759  0.00  0.00    +0.162 C 
ATOM     16  O   UNL     1       6.117  -1.643   0.749  0.00  0.00    -0.292 OA
ATOM     17  C   UNL     1       7.217   0.388   1.194  0.00  0.00    +0.086 C 
ATOM     18  C   UNL     1       7.916   2.590   2.156  0.00  0.00    +0.011 C 
ATOM     19  H   UNL     1       3.506   3.167  -0.323  0.00  0.00    +0.153 HD
ATOM     20  H   UNL     1      -0.943  -0.567   0.008  0.00  0.00    +0.171 HD
ENDROOT
BRANCH   6  21
ATOM     21  C   UNL     1       3.938  -1.214  -1.450  0.00  0.00    +0.006 A 
ATOM     22  C   UNL     1       4.027  -0.322  -2.501  0.00  0.00    +0.008 A 
ATOM     23  C   UNL     1       4.262  -0.784  -3.783  0.00  0.00    +0.001 A 
ATOM     24  C   UNL     1       4.398  -2.140  -4.018  0.00  0.00    +0.004 A 
ATOM     25  C   UNL     1       4.304  -3.036  -2.971  0.00  0.00    +0.046 A 
ATOM     26  C   UNL     1       4.074  -2.575  -1.683  0.00  0.00    +0.124 A 
BRANCH  26  27
ATOM     27  O   UNL     1       3.982  -3.455  -0.651  0.00  0.00    -0.495 OA
ATOM     28  C   UNL     1       4.132  -4.841  -0.965  0.00  0.00    +0.277 C 
ENDBRANCH  26  27
ENDBRANCH   6  21
BRANCH  10  29
ATOM     29  S   UNL     1      -1.562   2.157   0.021  0.00  0.00    -0.084 S 
BRANCH  29  30
ATOM     30  C   UNL     1      -2.692   0.744   0.019  0.00  0.00    +0.104 C 
BRANCH  30  31
ATOM     31  C   UNL     1      -4.116   1.239   0.028  0.00  0.00    -0.023 C 
ATOM     32  C   UNL     1      -4.897   1.006  -0.998  0.00  0.00    +0.005 C 
ENDBRANCH  30  31
ENDBRANCH  29  30
ENDBRANCH  10  29
TORSDOF 5
