REMARK  Name = ZINC05621231
REMARK  6 active torsions:
REMARK  status: ('A' for Active; 'I' for Inactive)
REMARK    1  A    between atoms: C_1  and  C_2
REMARK    2  A    between atoms: C_2  and  C_13
REMARK    3  A    between atoms: N_3  and  N_4
REMARK    4  A    between atoms: C_5  and  C_7
REMARK    5  A    between atoms: C_19  and  C_36
REMARK    6  A    between atoms: C_30  and  C_35
REMARK                            x       y       z     vdW  Elec       q    Type
REMARK                         _______ _______ _______ _____ _____    ______ ____
ROOT
ATOM      1  C   UNL     1      -2.197   1.231   1.545  0.00  0.00    +0.041 C 
ATOM      2  C   UNL     1      -2.924   2.454   2.139  0.00  0.00    +0.010 C 
ATOM      3  C   UNL     1      -1.856   3.559   2.307  0.00  0.00    +0.005 C 
ATOM      4  C   UNL     1      -0.764   3.182   1.262  0.00  0.00    -0.001 C 
ATOM      5  C   UNL     1      -0.729   1.650   1.389  0.00  0.00    -0.021 C 
ATOM      6  C   UNL     1      -0.052   0.975   0.217  0.00  0.00    +0.008 C 
ATOM      7  C   UNL     1      -0.680   1.414  -1.105  0.00  0.00    +0.005 C 
ATOM      8  C   UNL     1      -0.529   2.935  -1.235  0.00  0.00    -0.001 C 
ATOM      9  C   UNL     1      -1.307   3.606  -0.106  0.00  0.00    -0.004 C 
ATOM     10  C   UNL     1      -1.152   5.137  -0.242  0.00  0.00    +0.004 C 
ATOM     11  C   UNL     1      -1.686   5.587  -1.599  0.00  0.00    +0.005 C 
ATOM     12  C   UNL     1      -2.226   4.385  -2.379  0.00  0.00    -0.001 C 
ATOM     13  C   UNL     1      -1.100   3.366  -2.592  0.00  0.00    -0.022 C 
ATOM     14  C   UNL     1      -1.675   2.123  -3.283  0.00  0.00    +0.034 C 
ATOM     15  C   UNL     1      -2.500   2.516  -4.471  0.00  0.00    -0.030 C 
ATOM     16  C   UNL     1      -2.956   3.710  -4.671  0.00  0.00    -0.031 C 
ATOM     17  C   UNL     1      -2.712   4.867  -3.750  0.00  0.00    +0.031 C 
ATOM     18  C   UNL     1       0.006   3.980  -3.453  0.00  0.00    +0.012 C 
ATOM     19  C   UNL     1       0.012   1.276   2.675  0.00  0.00    +0.012 C 
ENDROOT
BRANCH   1  21
ATOM     20  C   UNL     1      -1.718  -1.276   2.092  0.00  0.00    +0.062 C 
ATOM     21  C   UNL     1      -2.305   0.056   2.482  0.00  0.00    +0.037 C 
ATOM     22  N   UNL     1      -2.897   0.189   3.610  0.00  0.00    -0.189 NA
BRANCH  22  23
ATOM     23  N   UNL     1      -2.997  -0.903   4.481  0.00  0.00    -0.203 N 
ATOM     24  C   UNL     1      -3.620  -0.763   5.668  0.00  0.00    +0.263 C 
ATOM     25  O   UNL     1      -4.093   0.311   5.983  0.00  0.00    -0.268 OA
ATOM     26  H   UNL     1      -2.619  -1.760   4.230  0.00  0.00    +0.178 HD
BRANCH  24  27
ATOM     27  C   UNL     1      -3.727  -1.917   6.590  0.00  0.00    +0.041 A 
ATOM     28  C   UNL     1      -3.194  -3.163   6.245  0.00  0.00    +0.033 A 
ATOM     29  C   UNL     1      -3.312  -4.212   7.136  0.00  0.00    +0.111 A 
ATOM     30  N   UNL     1      -3.925  -4.052   8.292  0.00  0.00    -0.263 NA
ATOM     31  C   UNL     1      -4.445  -2.896   8.654  0.00  0.00    +0.111 A 
ATOM     32  C   UNL     1      -4.368  -1.793   7.826  0.00  0.00    +0.033 A 
ENDBRANCH  24  27
ENDBRANCH  22  23
ENDBRANCH   1  21
TORSDOF 3
