REMARK  Name = ZINC12416583
REMARK  5 active torsions:
REMARK  status: ('A' for Active; 'I' for Inactive)
REMARK    1  A    between atoms: C_1  and  N_2
REMARK    2  A    between atoms: C_7  and  C_32
REMARK    3  A    between atoms: N_21  and  C_24
REMARK    4  A    between atoms: C_24  and  C_25
REMARK    5  A    between atoms: C_32  and  C_33
REMARK                            x       y       z     vdW  Elec       q    Type
REMARK                         _______ _______ _______ _____ _____    ______ ____
ROOT
ATOM      1  C   UNL     1      -0.018   1.461   0.010  0.00  0.00    +0.141 C 
ATOM      2  N   UNL     1       0.002  -0.004   0.002  0.00  0.00    -0.245 N 
ATOM      3  C   UNL     1       0.007  -0.721  -1.127  0.00  0.00    +0.227 C 
ATOM      4  O   UNL     1      -0.003  -0.262  -2.249  0.00  0.00    -0.275 OA
ATOM      5  C   UNL     1       0.027  -2.195  -0.787  0.00  0.00    +0.107 C 
ATOM      6  C   UNL     1      -1.323  -2.825  -1.190  0.00  0.00    +0.072 C 
ATOM      7  N   UNL     1      -1.717  -3.660  -0.024  0.00  0.00    -0.295 NA
ATOM      8  C   UNL     1      -1.310  -2.859   1.147  0.00  0.00    +0.136 C 
ATOM      9  C   UNL     1       0.040  -2.203   0.767  0.00  0.00    +0.122 C 
ATOM     10  C   UNL     1       0.023  -0.734   1.124  0.00  0.00    +0.228 C 
ATOM     11  O   UNL     1       0.025  -0.286   2.250  0.00  0.00    -0.275 OA
ATOM     12  C   UNL     1      -2.351  -1.836   1.503  0.00  0.00    +0.004 A 
ATOM     13  C   UNL     1      -2.920  -0.784   0.820  0.00  0.00    +0.008 A 
ATOM     14  C   UNL     1      -3.882  -0.000   1.432  0.00  0.00    +0.000 A 
ATOM     15  C   UNL     1      -4.271  -0.276   2.730  0.00  0.00    +0.002 A 
ATOM     16  C   UNL     1      -3.704  -1.328   3.418  0.00  0.00    +0.024 A 
ATOM     17  C   UNL     1      -2.735  -2.122   2.810  0.00  0.00    +0.042 A 
ATOM     18  N   UNL     1      -2.026  -3.226   3.290  0.00  0.00    -0.265 N 
ATOM     19  C   UNL     1      -1.169  -3.717   2.375  0.00  0.00    +0.246 C 
ATOM     20  O   UNL     1      -0.428  -4.667   2.513  0.00  0.00    -0.273 OA
ATOM     21  H   UNL     1      -2.712  -3.828  -0.019  0.00  0.00    +0.124 HD
ENDROOT
BRANCH  18  22
ATOM     22  C   UNL     1      -2.194  -3.783   4.635  0.00  0.00    +0.150 C 
BRANCH  22  23
ATOM     23  C   UNL     1      -3.268  -4.839   4.610  0.00  0.00    -0.011 A 
ATOM     24  C   UNL     1      -4.548  -4.534   5.035  0.00  0.00    +0.006 A 
ATOM     25  C   UNL     1      -5.533  -5.503   5.012  0.00  0.00    +0.000 A 
ATOM     26  C   UNL     1      -5.240  -6.778   4.564  0.00  0.00    +0.001 A 
ATOM     27  C   UNL     1      -3.961  -7.084   4.139  0.00  0.00    +0.020 A 
ATOM     28  C   UNL     1      -2.976  -6.113   4.156  0.00  0.00    +0.046 A 
ATOM     29 CL   UNL     1      -1.371  -6.495   3.616  0.00  0.00    -0.083 Cl
ENDBRANCH  22  23
ENDBRANCH  18  22
BRANCH   6  30
ATOM     30  C   UNL     1      -1.153  -3.696  -2.437  0.00  0.00    +0.054 C 
BRANCH  30  31
ATOM     31  C   UNL     1      -2.501  -4.202  -2.884  0.00  0.00    -0.046 A 
ATOM     32  C   UNL     1      -2.988  -5.398  -2.391  0.00  0.00    +0.004 A 
ATOM     33  C   UNL     1      -4.224  -5.862  -2.801  0.00  0.00    +0.000 A 
ATOM     34  C   UNL     1      -4.973  -5.130  -3.703  0.00  0.00    +0.000 A 
ATOM     35  C   UNL     1      -4.486  -3.933  -4.194  0.00  0.00    +0.000 A 
ATOM     36  C   UNL     1      -3.252  -3.467  -3.781  0.00  0.00    +0.004 A 
ENDBRANCH  30  31
ENDBRANCH   6  30
TORSDOF 4
