REMARK  Name = ZINC67418115
REMARK  8 active torsions:
REMARK  status: ('A' for Active; 'I' for Inactive)
REMARK    1  A    between atoms: C_1  and  C_2
REMARK    2  A    between atoms: C_2  and  N_3
REMARK    3  A    between atoms: C_4  and  C_26
REMARK    4  A    between atoms: C_5  and  C_9
REMARK    5  A    between atoms: C_6  and  C_8
REMARK    6  A    between atoms: C_9  and  N_10
REMARK    7  A    between atoms: N_13  and  C_14
REMARK    8  A    between atoms: C_17  and  C_19
REMARK                            x       y       z     vdW  Elec       q    Type
REMARK                         _______ _______ _______ _____ _____    ______ ____
ROOT
ATOM      1  N   UNL     1       1.041  -0.371  -5.540  0.00  0.00    -0.295 N 
ATOM      2  C   UNL     1       0.911  -0.489  -6.877  0.00  0.00    +0.300 C 
ATOM      3  O   UNL     1       0.667  -1.574  -7.370  0.00  0.00    -0.253 OA
ATOM      4  N   UNL     1       1.051   0.594  -7.666  0.00  0.00    -0.296 N 
ATOM      5  H   UNL     1       1.236   0.493  -5.147  0.00  0.00    +0.151 HD
ATOM      6  H   UNL     1       1.245   1.459  -7.272  0.00  0.00    +0.151 HD
ENDROOT
BRANCH   4   7
ATOM      7  C   UNL     1       0.909   0.466  -9.118  0.00  0.00    +0.082 C 
ATOM      8  C   UNL     1       0.094   1.536  -9.846  0.00  0.00    +0.033 C 
ATOM      9  C   UNL     1       1.617   1.504  -9.992  0.00  0.00    +0.041 C 
BRANCH   9  10
ATOM     10  C   UNL     1       2.407   2.580  -9.292  0.00  0.00    -0.042 A 
ATOM     11  C   UNL     1       1.776   3.435  -8.407  0.00  0.00    +0.005 A 
ATOM     12  C   UNL     1       2.500   4.422  -7.765  0.00  0.00    +0.015 A 
ATOM     13  C   UNL     1       3.856   4.553  -8.007  0.00  0.00    +0.018 A 
ATOM     14  C   UNL     1       4.486   3.697  -8.892  0.00  0.00    +0.015 A 
ATOM     15  C   UNL     1       3.763   2.708  -9.530  0.00  0.00    +0.005 A 
ATOM     16 BR   UNL     1       4.847   5.904  -7.129  0.00  0.00    -0.050 Br
ENDBRANCH   9  10
ENDBRANCH   4   7
BRANCH   1  17
ATOM     17  C   UNL     1       0.889  -1.549  -4.683  0.00  0.00    +0.144 C 
BRANCH  17  20
ATOM     18  N   UNL     1       0.688  -0.476  -1.203  0.00  0.00    -0.268 N 
ATOM     19  C   UNL     1       0.110  -0.737  -2.395  0.00  0.00    +0.041 A 
ATOM     20  C   UNL     1       1.081  -1.150  -3.242  0.00  0.00    +0.013 A 
ATOM     21  C   UNL     1       2.293  -1.141  -2.545  0.00  0.00    +0.065 A 
ATOM     22  N   UNL     1       2.060  -0.732  -1.324  0.00  0.00    -0.176 NA
ATOM     23  C   UNL     1       3.638  -1.529  -3.105  0.00  0.00    +0.068 C 
ATOM     24  C   UNL     1      -1.354  -0.595  -2.722  0.00  0.00    +0.065 C 
BRANCH  18  26
ATOM     25  C   UNL     1      -0.019   1.526   0.010  0.00  0.00    +0.029 C 
ATOM     26  C   UNL     1       0.002  -0.004   0.002  0.00  0.00    +0.140 C 
ENDBRANCH  18  26
ENDBRANCH  17  20
ENDBRANCH   1  17
TORSDOF 5
