REMARK  Name = ZINC04301602
REMARK  12 active torsions:
REMARK  status: ('A' for Active; 'I' for Inactive)
REMARK    1  A    between atoms: C_1  and  C_2
REMARK    2  A    between atoms: N_5  and  C_17
REMARK    3  A    between atoms: N_8  and  C_9
REMARK    4  A    between atoms: C_13  and  O_15
REMARK    5  A    between atoms: O_15  and  C_16
REMARK    6  A    between atoms: C_17  and  C_18
REMARK    7  A    between atoms: N_20  and  C_21
REMARK    8  A    between atoms: C_27  and  O_28
REMARK    9  A    between atoms: O_28  and  C_29
REMARK   10  A    between atoms: C_32  and  C_33
REMARK   11  A    between atoms: C_33  and  O_35
REMARK   12  A    between atoms: O_35  and  C_36
REMARK                            x       y       z     vdW  Elec       q    Type
REMARK                         _______ _______ _______ _____ _____    ______ ____
ROOT
ATOM      1  C   UNL     1      -2.945  -4.456   0.284  0.00  0.00    +0.201 C 
ATOM      2  O   UNL     1      -2.227  -4.954  -0.557  0.00  0.00    -0.278 OA
ATOM      3  N   UNL     1      -3.665  -5.244   1.108  0.00  0.00    -0.285 N 
ATOM      4  H   UNL     1      -4.287  -4.847   1.737  0.00  0.00    +0.155 HD
ENDROOT
BRANCH   3   5
ATOM      5  C   UNL     1      -3.516  -6.626   1.055  0.00  0.00    +0.077 A 
ATOM      6  C   UNL     1      -2.256  -7.368   1.012  0.00  0.00    +0.063 A 
ATOM      7  C   UNL     1      -2.593  -8.733   0.966  0.00  0.00    +0.052 A 
ATOM      8  C   UNL     1      -1.579  -9.686   0.918  0.00  0.00    +0.026 A 
ATOM      9  C   UNL     1      -0.259  -9.291   0.918  0.00  0.00    +0.006 A 
ATOM     10  C   UNL     1       0.079  -7.947   0.964  0.00  0.00    +0.046 A 
ATOM     11  C   UNL     1      -0.908  -6.981   1.010  0.00  0.00    +0.131 A 
ATOM     12  N   UNL     1      -3.965  -8.832   0.978  0.00  0.00    -0.347 N 
ATOM     13  H   UNL     1      -4.465  -9.663   0.953  0.00  0.00    +0.166 HD
ATOM     14  C   UNL     1      -4.529  -7.564   1.038  0.00  0.00    +0.147 A 
BRANCH  11  15
ATOM     15  O   UNL     1      -0.575  -5.665   1.055  0.00  0.00    -0.494 OA
ATOM     16  C   UNL     1       0.818  -5.351   1.118  0.00  0.00    +0.277 C 
ENDBRANCH  11  15
BRANCH  14  17
ATOM     17  C   UNL     1      -5.916  -7.280   1.073  0.00  0.00    +0.357 C 
ATOM     18  O   UNL     1      -6.301  -6.126   1.057  0.00  0.00    -0.243 OA
BRANCH  17  19
ATOM     19  O   UNL     1      -6.811  -8.290   1.123  0.00  0.00    -0.463 OA
ATOM     20  C   UNL     1      -8.193  -7.930   1.156  0.00  0.00    +0.280 C 
ENDBRANCH  17  19
ENDBRANCH  14  17
ENDBRANCH   3   5
BRANCH   1  21
ATOM     21  C   UNL     1      -3.033  -2.957   0.408  0.00  0.00    +0.019 C 
BRANCH  21  25
ATOM     22  C   UNL     1      -1.760   1.289  -1.681  0.00  0.00    +0.026 C 
ATOM     23  C   UNL     1      -1.663  -0.235  -1.781  0.00  0.00    +0.054 C 
ATOM     24  C   UNL     1      -2.425  -0.877  -0.617  0.00  0.00    -0.056 C 
ATOM     25  N   UNL     1      -2.215  -2.330  -0.639  0.00  0.00    +0.388 N 
ATOM     26  C   UNL     1      -0.799  -2.635  -0.400  0.00  0.00    -0.059 C 
ATOM     27  C   UNL     1       0.044  -2.080  -1.553  0.00  0.00    +0.087 C 
ATOM     28  N   UNL     1      -0.252  -0.646  -1.704  0.00  0.00    -0.331 N 
ATOM     29  H   UNL     1      -2.489  -2.695  -1.539  0.00  0.00    -0.081 HD
BRANCH  28  30
ATOM     30  C   UNL     1       0.775   0.297  -1.767  0.00  0.00    +0.033 A 
ATOM     31  C   UNL     1       1.565   0.543  -0.650  0.00  0.00    +0.023 A 
ATOM     32  C   UNL     1       2.581   1.476  -0.713  0.00  0.00    +0.005 A 
ATOM     33  C   UNL     1       2.816   2.167  -1.886  0.00  0.00    +0.046 A 
ATOM     34  C   UNL     1       2.032   1.926  -3.005  0.00  0.00    +0.122 A 
ATOM     35  C   UNL     1       1.014   0.987  -2.948  0.00  0.00    +0.068 A 
BRANCH  34  36
ATOM     36  O   UNL     1       2.265   2.607  -4.158  0.00  0.00    -0.495 OA
ATOM     37  C   UNL     1       3.333   3.556  -4.147  0.00  0.00    +0.277 C 
ENDBRANCH  34  36
ENDBRANCH  28  30
ENDBRANCH  21  25
ENDBRANCH   1  21
TORSDOF 8
