REMARK  Name = ZINC40687338
REMARK  3 active torsions:
REMARK  status: ('A' for Active; 'I' for Inactive)
REMARK    1  A    between atoms: C_11  and  N_27
REMARK    2  A    between atoms: C_12  and  N_16
REMARK    3  A    between atoms: N_16  and  C_17
REMARK                            x       y       z     vdW  Elec       q    Type
REMARK                         _______ _______ _______ _____ _____    ______ ____
ROOT
ATOM      1  C   UNL     1       0.894  -1.641  -3.182  0.00  0.00    +0.000 A 
ATOM      2  C   UNL     1       2.190  -1.279  -3.502  0.00  0.00    +0.002 A 
ATOM      3  C   UNL     1       3.098  -0.995  -2.505  0.00  0.00    +0.024 A 
ATOM      4  C   UNL     1       2.716  -1.071  -1.163  0.00  0.00    +0.038 A 
ATOM      5  C   UNL     1       1.415  -1.434  -0.853  0.00  0.00    -0.025 A 
ATOM      6  C   UNL     1       0.509  -1.718  -1.857  0.00  0.00    +0.005 A 
ATOM      7  C   UNL     1       1.263  -1.441   0.651  0.00  0.00    +0.056 C 
ATOM      8  C   UNL     1       2.647  -1.032   1.181  0.00  0.00    +0.117 C 
ATOM      9  N   UNL     1       3.471  -0.827  -0.013  0.00  0.00    -0.283 N 
ATOM     10  C   UNL     1       4.808  -0.445  -0.004  0.00  0.00    +0.151 A 
ATOM     11  C   UNL     1       5.162   0.900  -0.129  0.00  0.00    +0.104 A 
ATOM     12  C   UNL     1       6.519   1.228  -0.112  0.00  0.00    +0.126 A 
ATOM     13  N   UNL     1       7.416   0.254   0.021  0.00  0.00    -0.333 N 
ATOM     14  C   UNL     1       7.039  -1.003   0.136  0.00  0.00    +0.200 A 
ATOM     15  N   UNL     1       5.769  -1.355   0.130  0.00  0.00    -0.220 NA
ATOM     16  H   UNL     1       8.361   0.473   0.033  0.00  0.00    +0.168 HD
ENDROOT
BRANCH  11  17
ATOM     17  N   UNL     1       4.181   1.894  -0.267  0.00  0.00    -0.353 N 
ATOM     18  H   UNL     1       3.241   1.661  -0.203  0.00  0.00    +0.143 HD
ATOM     19  H   UNL     1       4.442   2.814  -0.427  0.00  0.00    +0.143 HD
ENDBRANCH  11  17
BRANCH  12  20
ATOM     20  N   UNL     1       6.926   2.552  -0.234  0.00  0.00    -0.298 N 
ATOM     21  H   UNL     1       6.267   3.263  -0.244  0.00  0.00    +0.154 HD
BRANCH  20  22
ATOM     22  C   UNL     1       8.283   2.857  -0.340  0.00  0.00    +0.059 A 
ATOM     23  C   UNL     1       8.920   3.550   0.667  0.00  0.00    +0.025 A 
ATOM     24  C   UNL     1      10.273   3.861   0.573  0.00  0.00    +0.003 A 
ATOM     25  C   UNL     1      11.004   3.490  -0.515  0.00  0.00    +0.010 A 
ATOM     26  C   UNL     1      10.391   2.782  -1.561  0.00  0.00    +0.002 A 
ATOM     27  C   UNL     1       9.016   2.453  -1.477  0.00  0.00    +0.092 A 
ATOM     28  N   UNL     1       8.432   1.776  -2.469  0.00  0.00    -0.253 NA
ATOM     29  C   UNL     1       9.107   1.398  -3.527  0.00  0.00    +0.111 A 
ATOM     30  C   UNL     1      10.463   1.683  -3.671  0.00  0.00    +0.020 A 
ATOM     31  C   UNL     1      11.119   2.384  -2.699  0.00  0.00    +0.011 A 
ENDBRANCH  20  22
ENDBRANCH  12  20
TORSDOF 3
