REMARK  Name = ZINC39165103
REMARK  5 active torsions:
REMARK  status: ('A' for Active; 'I' for Inactive)
REMARK    1  A    between atoms: C_1  and  C_2
REMARK    2  A    between atoms: C_4  and  C_23
REMARK    3  A    between atoms: C_5  and  S_9
REMARK    4  A    between atoms: C_7  and  C_8
REMARK    5  A    between atoms: S_9  and  N_12
REMARK                            x       y       z     vdW  Elec       q    Type
REMARK                         _______ _______ _______ _____ _____    ______ ____
ROOT
ATOM      1  S   UNL     1       0.063  -4.530  -0.023  0.00  0.00    +0.100 S 
ATOM      2  O   UNL     1       1.088  -4.918  -0.927  0.00  0.00    -0.146 OA
ATOM      3  O   UNL     1       0.049  -4.944   1.337  0.00  0.00    -0.146 OA
ENDROOT
BRANCH   1   4
ATOM      4  N   UNL     1      -1.368  -5.035  -0.686  0.00  0.00    -0.113 NA
ATOM      5  C   UNL     1      -1.612  -6.297  -0.813  0.00  0.00    +0.174 C 
ATOM      6  N   UNL     1      -0.721  -7.293  -0.408  0.00  0.00    -0.184 NA
ATOM      7  C   UNL     1      -1.198  -8.452   0.123  0.00  0.00    +0.211 C 
ATOM      8  N   UNL     1      -2.475  -8.773   0.111  0.00  0.00    -0.221 NA
ATOM      9  C   UNL     1      -3.341  -7.910  -0.417  0.00  0.00    +0.164 C 
ATOM     10  N   UNL     1      -4.608  -7.684  -0.244  0.00  0.00    -0.219 NA
ATOM     11  C   UNL     1      -4.958  -6.479  -0.716  0.00  0.00    +0.218 C 
ATOM     12  N   UNL     1      -4.005  -5.894  -1.384  0.00  0.00    -0.253 NA
ATOM     13  C   UNL     1      -2.895  -6.839  -1.408  0.00  0.00    +0.241 C 
ENDBRANCH   1   4
BRANCH   1  18
ATOM     14  C   UNL     1      -0.018   1.503   0.010  0.00  0.00    +0.044 C 
ATOM     15  C   UNL     1       0.002  -0.004   0.002  0.00  0.00    -0.047 A 
ATOM     16  C   UNL     1       0.006  -0.689  -1.199  0.00  0.00    +0.009 A 
ATOM     17  C   UNL     1       0.025  -2.071  -1.207  0.00  0.00    -0.023 A 
ATOM     18  C   UNL     1       0.040  -2.768  -0.013  0.00  0.00    +0.116 A 
ATOM     19  C   UNL     1       0.037  -2.084   1.188  0.00  0.00    +0.033 A 
ATOM     20  C   UNL     1       0.023  -0.702   1.195  0.00  0.00    -0.046 A 
ATOM     21  C   UNL     1       0.025   0.045   2.504  0.00  0.00    +0.044 C 
ATOM     22  C   UNL     1       0.027  -2.817  -2.516  0.00  0.00    +0.046 C 
ENDBRANCH   1  18
TORSDOF 2
