REMARK  Name = ZINC04848587
REMARK  6 active torsions:
REMARK  status: ('A' for Active; 'I' for Inactive)
REMARK    1  A    between atoms: C_1  and  C_2
REMARK    2  A    between atoms: C_2  and  C_3
REMARK    3  A    between atoms: N_16  and  C_17
REMARK    4  A    between atoms: C_17  and  C_18
REMARK    5  A    between atoms: C_18  and  N_19
REMARK    6  A    between atoms: C_20  and  C_22
REMARK                            x       y       z     vdW  Elec       q    Type
REMARK                         _______ _______ _______ _____ _____    ______ ____
ROOT
ATOM      1  C   UNL     1       2.719   5.866  -0.841  0.00  0.00    +0.132 A 
ATOM      2  N   UNL     1       1.423   5.636  -0.910  0.00  0.00    -0.217 NA
ATOM      3  C   UNL     1       0.876   4.426  -0.807  0.00  0.00    +0.131 A 
ATOM      4  C   UNL     1       1.786   3.348  -0.610  0.00  0.00    +0.051 A 
ATOM      5  C   UNL     1       1.460   1.939  -0.468  0.00  0.00    -0.025 A 
ATOM      6  C   UNL     1       2.498   1.091  -0.288  0.00  0.00    -0.004 A 
ATOM      7  S   UNL     1       3.947   2.116  -0.300  0.00  0.00    -0.073 S 
ATOM      8  C   UNL     1       3.164   3.677  -0.545  0.00  0.00    +0.114 A 
ATOM      9  N   UNL     1       3.620   4.909  -0.658  0.00  0.00    -0.225 NA
ATOM     10  C   UNL     1       2.436  -0.396  -0.117  0.00  0.00    +0.043 C 
ATOM     11  C   UNL     1       0.986  -0.790   0.195  0.00  0.00    +0.005 C 
ATOM     12  C   UNL     1       0.061  -0.088  -0.804  0.00  0.00    +0.005 C 
ATOM     13  C   UNL     1       0.028   1.412  -0.515  0.00  0.00    +0.037 C 
ATOM     14  N   UNL     1      -0.491   4.229  -0.886  0.00  0.00    -0.327 N 
ATOM     15  H   UNL     1      -0.864   3.348  -0.725  0.00  0.00    +0.148 HD
ENDROOT
BRANCH   1  17
ATOM     16  C   UNL     1       3.472   7.598  -2.447  0.00  0.00    +0.012 C 
ATOM     17  C   UNL     1       3.201   7.288  -0.974  0.00  0.00    +0.073 C 
ENDBRANCH   1  17
BRANCH  14  18
ATOM     18  C   UNL     1      -1.375   5.350  -1.214  0.00  0.00    +0.121 C 
BRANCH  18  19
ATOM     19  C   UNL     1      -2.826   4.865  -1.237  0.00  0.00    +0.123 C 
BRANCH  19  20
ATOM     20  N   UNL     1      -3.711   5.986  -1.565  0.00  0.00    -0.310 N 
ATOM     21  C   UNL     1      -5.042   5.793  -1.642  0.00  0.00    +0.244 C 
ATOM     22  O   UNL     1      -5.510   4.689  -1.440  0.00  0.00    -0.270 OA
ATOM     23  H   UNL     1      -3.338   6.867  -1.726  0.00  0.00    +0.149 HD
BRANCH  21  24
ATOM     24  C   UNL     1      -5.935   6.925  -1.973  0.00  0.00    +0.037 A 
ATOM     25  C   UNL     1      -5.402   8.195  -2.200  0.00  0.00    +0.013 A 
ATOM     26  C   UNL     1      -6.240   9.245  -2.513  0.00  0.00    +0.001 A 
ATOM     27  C   UNL     1      -7.606   9.044  -2.591  0.00  0.00    +0.000 A 
ATOM     28  C   UNL     1      -8.142   7.789  -2.362  0.00  0.00    +0.001 A 
ATOM     29  C   UNL     1      -7.314   6.729  -2.053  0.00  0.00    +0.013 A 
ENDBRANCH  21  24
ENDBRANCH  19  20
ENDBRANCH  18  19
ENDBRANCH  14  18
TORSDOF 5
