REMARK  Name = ZINC63078380
REMARK  10 active torsions:
REMARK  status: ('A' for Active; 'I' for Inactive)
REMARK    1  A    between atoms: C_1  and  C_2
REMARK    2  A    between atoms: C_2  and  C_4
REMARK    3  A    between atoms: C_2  and  N_8
REMARK    4  A    between atoms: C_4  and  C_5
REMARK    5  A    between atoms: C_4  and  C_6
REMARK    6  A    between atoms: C_4  and  C_7
REMARK    7  A    between atoms: N_8  and  C_9
REMARK    8  A    between atoms: N_8  and  C_10
REMARK    9  A    between atoms: C_10  and  C_11
REMARK   10  A    between atoms: N_17  and  C_20
REMARK                            x       y       z     vdW  Elec       q    Type
REMARK                         _______ _______ _______ _____ _____    ______ ____
ROOT
ATOM      1  C   UNL     1      -0.114  -0.539   3.569  0.00  0.00    +0.117 A 
ATOM      2  N   UNL     1      -0.434  -1.730   4.042  0.00  0.00    -0.219 NA
ATOM      3  C   UNL     1       0.017  -2.146   5.221  0.00  0.00    +0.130 A 
ATOM      4  C   UNL     1       0.850  -1.284   5.960  0.00  0.00    +0.078 A 
ATOM      5  C   UNL     1       1.504  -1.365   7.209  0.00  0.00    +0.148 A 
ATOM      6  N   UNL     1       2.157  -0.255   7.405  0.00  0.00    -0.177 NA
ATOM      7  N   UNL     1       1.970   0.602   6.314  0.00  0.00    -0.249 N 
ATOM      8  C   UNL     1       1.162  -0.025   5.412  0.00  0.00    +0.163 A 
ATOM      9  N   UNL     1       0.664   0.298   4.219  0.00  0.00    -0.215 NA
ATOM     10  C   UNL     1       2.544   1.942   6.166  0.00  0.00    +0.174 C 
ATOM     11  N   UNL     1      -0.322  -3.392   5.708  0.00  0.00    -0.342 N 
ATOM     12  H   UNL     1      -0.897  -3.976   5.189  0.00  0.00    +0.144 HD
ATOM     13  H   UNL     1       0.014  -3.684   6.570  0.00  0.00    +0.144 HD
ENDROOT
BRANCH   1  14
ATOM     14  C   UNL     1      -0.658  -0.125   2.225  0.00  0.00    -0.001 C 
BRANCH  14  15
ATOM     15  N   UNL     1       0.276  -0.541   1.170  0.00  0.00    +0.385 N 
ATOM     16  C   UNL     1       0.328  -2.007   1.113  0.00  0.00    -0.095 C 
ATOM     17  H   UNL     1       1.196  -0.179   1.373  0.00  0.00    -0.081 HD
BRANCH  15  19
ATOM     18  C   UNL     1      -1.712  -0.012  -0.159  0.00  0.00    -0.013 C 
ATOM     19  C   UNL     1      -0.183  -0.016  -0.123  0.00  0.00    -0.066 C 
BRANCH  19  20
ATOM     20  C   UNL     1       0.336   1.412  -0.307  0.00  0.00    -0.050 C 
ATOM     21  C   UNL     1      -0.197   2.297   0.821  0.00  0.00    +0.009 C 
ATOM     22  C   UNL     1       1.865   1.407  -0.274  0.00  0.00    +0.009 C 
ATOM     23  C   UNL     1      -0.144   1.959  -1.653  0.00  0.00    +0.009 C 
ENDBRANCH  19  20
ENDBRANCH  15  19
ENDBRANCH  14  15
ENDBRANCH   1  14
TORSDOF 4
