REMARK  Name = ZINC59081074
REMARK  4 active torsions:
REMARK  status: ('A' for Active; 'I' for Inactive)
REMARK    1  A    between atoms: C_1  and  C_2
REMARK    2  A    between atoms: C_2  and  C_4
REMARK    3  A    between atoms: C_2  and  N_7
REMARK    4  A    between atoms: N_18  and  C_22
REMARK                            x       y       z     vdW  Elec       q    Type
REMARK                         _______ _______ _______ _____ _____    ______ ____
ROOT
ATOM      1  N   UNL     1       0.688  -0.476  -1.203  0.00  0.00    -0.253 N 
ATOM      2  C   UNL     1       1.831  -1.268  -1.195  0.00  0.00    +0.045 A 
ATOM      3  C   UNL     1       2.584  -1.792  -0.151  0.00  0.00    +0.024 A 
ATOM      4  C   UNL     1       3.699  -2.562  -0.419  0.00  0.00    +0.002 A 
ATOM      5  C   UNL     1       4.080  -2.823  -1.725  0.00  0.00    +0.001 A 
ATOM      6  C   UNL     1       3.345  -2.312  -2.776  0.00  0.00    +0.010 A 
ATOM      7  C   UNL     1       2.219  -1.534  -2.516  0.00  0.00    +0.010 A 
ATOM      8  C   UNL     1       1.238  -0.853  -3.386  0.00  0.00    +0.065 C 
ATOM      9  C   UNL     1       1.210  -0.831  -4.767  0.00  0.00    +0.090 C 
ATOM     10  C   UNL     1       0.253  -0.158  -5.687  0.00  0.00    +0.263 C 
ATOM     11  O   UNL     1      -0.683   0.497  -5.272  0.00  0.00    -0.269 OA
ATOM     12  N   UNL     1       0.477  -0.313  -6.981  0.00  0.00    -0.222 N 
ATOM     13  C   UNL     1       1.516  -1.041  -7.436  0.00  0.00    +0.125 C 
ATOM     14  S   UNL     1       1.964  -1.351  -9.059  0.00  0.00    -0.027 S 
ATOM     15  S   UNL     1       2.319  -1.596  -5.942  0.00  0.00    -0.060 S 
ATOM     16  C   UNL     1       0.289  -0.205  -2.458  0.00  0.00    +0.253 C 
ATOM     17  O   UNL     1      -0.680   0.460  -2.773  0.00  0.00    -0.270 OA
ENDROOT
BRANCH  12  18
ATOM     18  C   UNL     1      -0.388   0.295  -7.902  0.00  0.00    +0.061 A 
ATOM     19  C   UNL     1      -0.124   1.578  -8.361  0.00  0.00    +0.025 A 
ATOM     20  C   UNL     1      -0.978   2.174  -9.269  0.00  0.00    +0.002 A 
ATOM     21  C   UNL     1      -2.094   1.494  -9.720  0.00  0.00    +0.002 A 
ATOM     22  C   UNL     1      -2.360   0.216  -9.265  0.00  0.00    +0.022 A 
ATOM     23  C   UNL     1      -1.507  -0.388  -8.361  0.00  0.00    +0.063 A 
ATOM     24 CL   UNL     1      -1.837  -1.996  -7.795  0.00  0.00    -0.082 Cl
ENDBRANCH  12  18
BRANCH   1  26
ATOM     25  C   UNL     1      -0.019   1.526   0.010  0.00  0.00    +0.040 C 
ATOM     26  C   UNL     1       0.002  -0.004   0.002  0.00  0.00    +0.191 C 
BRANCH  26  27
ATOM     27  C   UNL     1      -1.412  -0.526   0.013  0.00  0.00    +0.376 C 
ATOM     28  O   UNL     1      -1.868  -1.070  -0.978  0.00  0.00    -0.244 OA
ATOM     29  O   UNL     1      -2.099  -0.403   1.012  0.00  0.00    -0.244 OA
ENDBRANCH  26  27
ENDBRANCH   1  26
TORSDOF 3
