REMARK  Name = ZINC39899300
REMARK  14 active torsions:
REMARK  status: ('A' for Active; 'I' for Inactive)
REMARK    1  A    between atoms: C_1  and  C_2
REMARK    2  A    between atoms: C_2  and  O_3
REMARK    3  A    between atoms: O_3  and  C_4
REMARK    4  A    between atoms: C_6  and  C_11
REMARK    5  A    between atoms: C_9  and  O_10
REMARK    6  A    between atoms: C_14  and  C_29
REMARK    7  A    between atoms: N_21  and  C_22
REMARK    8  A    between atoms: C_22  and  C_23
REMARK    9  A    between atoms: C_23  and  C_24
REMARK   10  A    between atoms: C_24  and  O_25
REMARK   11  A    between atoms: O_25  and  C_26
REMARK   12  A    between atoms: C_26  and  C_27
REMARK   13  A    between atoms: C_26  and  C_28
REMARK   14  A    between atoms: C_34  and  O_35
REMARK                            x       y       z     vdW  Elec       q    Type
REMARK                         _______ _______ _______ _____ _____    ______ ____
ROOT
ATOM      1  C   UNL     1      -0.391  -4.899   0.362  0.00  0.00    +0.141 C 
ATOM      2  C   UNL     1      -1.570  -5.660  -0.180  0.00  0.00    +0.035 A 
ATOM      3  C   UNL     1      -2.856  -5.608  -0.728  0.00  0.00    +0.102 A 
ATOM      4  N   UNL     1      -3.239  -6.849  -0.953  0.00  0.00    -0.173 NA
ATOM      5  N   UNL     1      -2.322  -7.679  -0.602  0.00  0.00    -0.272 N 
ATOM      6  H   UNL     1      -2.386  -8.644  -0.677  0.00  0.00    +0.189 HD
ATOM      7  C   UNL     1      -1.245  -7.000  -0.107  0.00  0.00    +0.126 A 
ATOM      8  C   UNL     1       0.101  -7.124   0.463  0.00  0.00    +0.265 C 
ATOM      9  O   UNL     1       0.678  -8.177   0.658  0.00  0.00    -0.268 OA
ATOM     10  N   UNL     1       0.607  -5.907   0.741  0.00  0.00    -0.285 N 
ENDROOT
BRANCH   3  11
ATOM     11  C   UNL     1      -3.645  -4.381  -1.004  0.00  0.00    +0.045 A 
ATOM     12  C   UNL     1      -3.168  -3.138  -0.598  0.00  0.00    +0.033 A 
ATOM     13  C   UNL     1      -3.906  -1.999  -0.857  0.00  0.00    +0.042 A 
ATOM     14  C   UNL     1      -5.119  -2.091  -1.520  0.00  0.00    +0.023 A 
ATOM     15  C   UNL     1      -5.600  -3.321  -1.925  0.00  0.00    +0.047 A 
ATOM     16  C   UNL     1      -4.866  -4.470  -1.677  0.00  0.00    +0.126 A 
ATOM     17 CL   UNL     1      -3.312  -0.449  -0.351  0.00  0.00    -0.084 Cl
BRANCH  16  18
ATOM     18  O   UNL     1      -5.336  -5.679  -2.081  0.00  0.00    -0.506 OA
ATOM     19  H   UNL     1      -5.891  -6.124  -1.426  0.00  0.00    +0.292 HD
ENDBRANCH  16  18
ENDBRANCH   3  11
BRANCH   1  22
ATOM     20  C   UNL     1       1.323  -3.684  -2.778  0.00  0.00    +0.162 A 
ATOM     21  C   UNL     1       0.806  -4.521  -1.802  0.00  0.00    +0.055 A 
ATOM     22  C   UNL     1       0.170  -3.986  -0.698  0.00  0.00    -0.019 A 
ATOM     23  C   UNL     1       0.046  -2.616  -0.564  0.00  0.00    +0.009 A 
ATOM     24  C   UNL     1       0.558  -1.774  -1.534  0.00  0.00    +0.049 A 
ATOM     25  C   UNL     1       1.203  -2.304  -2.640  0.00  0.00    +0.158 A 
BRANCH  25  26
ATOM     26  O   UNL     1       1.713  -1.478  -3.592  0.00  0.00    -0.503 OA
ATOM     27  H   UNL     1       1.091  -1.262  -4.301  0.00  0.00    +0.292 HD
ENDBRANCH  25  26
BRANCH  20  28
ATOM     28  O   UNL     1       1.950  -4.209  -3.864  0.00  0.00    -0.489 OA
BRANCH  28  30
ATOM     29  C   UNL     1       2.652  -6.032  -5.287  0.00  0.00    +0.048 C 
ATOM     30  C   UNL     1       1.965  -5.633  -3.979  0.00  0.00    +0.226 C 
ENDBRANCH  28  30
ENDBRANCH  20  28
ENDBRANCH   1  22
BRANCH  10  31
ATOM     31  C   UNL     1       1.925  -5.636   1.319  0.00  0.00    +0.111 C 
BRANCH  31  32
ATOM     32  C   UNL     1       1.817  -5.606   2.845  0.00  0.00    +0.047 C 
BRANCH  32  33
ATOM     33  C   UNL     1       3.193  -5.323   3.449  0.00  0.00    +0.161 C 
BRANCH  33  34
ATOM     34  O   UNL     1       3.092  -5.295   4.874  0.00  0.00    -0.377 OA
BRANCH  34  35
ATOM     35  C   UNL     1       4.329  -5.036   5.540  0.00  0.00    +0.112 C 
ATOM     36  C   UNL     1       4.056  -4.310   6.859  0.00  0.00    +0.037 C 
ATOM     37  C   UNL     1       5.042  -6.360   5.824  0.00  0.00    +0.037 C 
ENDBRANCH  34  35
ENDBRANCH  33  34
ENDBRANCH  32  33
ENDBRANCH  31  32
ENDBRANCH  10  31
TORSDOF 11
