REMARK  Name = ZINC36540843
REMARK  7 active torsions:
REMARK  status: ('A' for Active; 'I' for Inactive)
REMARK    1  A    between atoms: C_5  and  N_7
REMARK    2  A    between atoms: N_7  and  C_8
REMARK    3  A    between atoms: C_8  and  C_10
REMARK    4  A    between atoms: C_8  and  C_20
REMARK    5  A    between atoms: C_13  and  C_16
REMARK    6  A    between atoms: N_22  and  C_23
REMARK    7  A    between atoms: C_29  and  C_31
REMARK                            x       y       z     vdW  Elec       q    Type
REMARK                         _______ _______ _______ _____ _____    ______ ____
ROOT
ATOM      1  C   UNL     1       0.573  -2.204  -1.289  0.00  0.00    +0.197 C 
ENDROOT
BRANCH   1   2
ATOM      2  C   UNL     1      -0.892  -2.169  -0.938  0.00  0.00    -0.018 A 
ATOM      3  C   UNL     1      -1.328  -1.409   0.132  0.00  0.00    +0.006 A 
ATOM      4  C   UNL     1      -2.672  -1.377   0.454  0.00  0.00    +0.013 A 
ATOM      5  C   UNL     1      -3.580  -2.103  -0.294  0.00  0.00    +0.055 A 
ATOM      6  C   UNL     1      -3.144  -2.861  -1.364  0.00  0.00    +0.013 A 
ATOM      7  C   UNL     1      -1.800  -2.891  -1.689  0.00  0.00    +0.006 A 
BRANCH   5   8
ATOM      8  C   UNL     1      -5.045  -2.068   0.058  0.00  0.00    +0.417 C 
ATOM      9  F   UNL     1      -5.666  -1.023  -0.634  0.00  0.00    -0.166 F 
ATOM     10  F   UNL     1      -5.639  -3.283  -0.300  0.00  0.00    -0.166 F 
ATOM     11  F   UNL     1      -5.189  -1.867   1.435  0.00  0.00    -0.166 F 
ENDBRANCH   5   8
ENDBRANCH   1   2
BRANCH   1  12
ATOM     12  C   UNL     1       0.990  -0.867  -1.844  0.00  0.00    +0.239 C 
ATOM     13  O   UNL     1       1.236   0.052  -1.091  0.00  0.00    -0.273 OA
ATOM     14  N   UNL     1       1.088  -0.691  -3.177  0.00  0.00    -0.311 N 
ATOM     15  H   UNL     1       0.890  -1.426  -3.779  0.00  0.00    +0.149 HD
BRANCH  14  16
ATOM     16  C   UNL     1       1.492   0.610  -3.716  0.00  0.00    +0.073 C 
ATOM     17  C   UNL     1       0.266   1.516  -3.835  0.00  0.00    +0.022 C 
ATOM     18  C   UNL     1       0.688   2.875  -4.399  0.00  0.00    +0.002 C 
ATOM     19  C   UNL     1       1.315   2.681  -5.781  0.00  0.00    +0.000 C 
ATOM     20  C   UNL     1       2.541   1.774  -5.662  0.00  0.00    +0.002 C 
ATOM     21  C   UNL     1       2.119   0.416  -5.099  0.00  0.00    +0.022 C 
ENDBRANCH  14  16
ENDBRANCH   1  12
BRANCH   1  22
ATOM     22  N   UNL     1       1.357  -2.499  -0.087  0.00  0.00    -0.254 N 
ATOM     23  C   UNL     1       1.279  -3.717   0.486  0.00  0.00    +0.224 C 
ATOM     24  O   UNL     1       0.598  -4.583  -0.020  0.00  0.00    -0.275 OA
BRANCH  22  29
ATOM     25  C   UNL     1       2.506   0.325   1.969  0.00  0.00    +0.002 A 
ATOM     26  C   UNL     1       3.823   0.427   1.562  0.00  0.00    +0.002 A 
ATOM     27  C   UNL     1       4.325  -0.439   0.608  0.00  0.00    +0.022 A 
ATOM     28  C   UNL     1       3.509  -1.411   0.059  0.00  0.00    +0.062 A 
ATOM     29  C   UNL     1       2.185  -1.516   0.467  0.00  0.00    +0.056 A 
ATOM     30  C   UNL     1       1.686  -0.644   1.425  0.00  0.00    +0.025 A 
ATOM     31 CL   UNL     1       4.139  -2.498  -1.139  0.00  0.00    -0.082 Cl
ENDBRANCH  22  29
BRANCH  23  32
ATOM     32  C   UNL     1       2.040  -4.002   1.756  0.00  0.00    +0.076 C 
ATOM     33  C   UNL     1       3.331  -4.752   1.419  0.00  0.00    +0.013 C 
ATOM     34  C   UNL     1       4.103  -5.041   2.708  0.00  0.00    +0.001 C 
ATOM     35  C   UNL     1       3.241  -5.899   3.637  0.00  0.00    +0.000 C 
ATOM     36  C   UNL     1       1.951  -5.150   3.973  0.00  0.00    +0.001 C 
ATOM     37  C   UNL     1       1.179  -4.861   2.684  0.00  0.00    +0.013 C 
ENDBRANCH  23  32
ENDBRANCH   1  22
TORSDOF 7
