REMARK  Name = ZINC29192713
REMARK  11 active torsions:
REMARK  status: ('A' for Active; 'I' for Inactive)
REMARK    1  A    between atoms: C_1  and  C_2
REMARK    2  A    between atoms: C_2  and  N_3
REMARK    3  A    between atoms: N_3  and  C_4
REMARK    4  A    between atoms: N_3  and  C_6
REMARK    5  A    between atoms: C_4  and  C_5
REMARK    6  A    between atoms: C_6  and  C_8
REMARK    7  A    between atoms: C_6  and  C_26
REMARK    8  A    between atoms: C_8  and  N_9
REMARK    9  A    between atoms: C_10  and  C_12
REMARK   10  A    between atoms: C_12  and  C_13
REMARK   11  A    between atoms: C_13  and  N_14
REMARK                            x       y       z     vdW  Elec       q    Type
REMARK                         _______ _______ _______ _____ _____    ______ ____
ROOT
ATOM      1  N   UNL     1      -0.534   1.641   3.110  0.00  0.00    -0.316 N 
ATOM      2  C   UNL     1      -0.972   2.518   2.185  0.00  0.00    +0.215 C 
ATOM      3  O   UNL     1      -1.583   3.507   2.529  0.00  0.00    -0.276 OA
ATOM      4  H   UNL     1       0.091   0.788   2.806  0.00  0.00    +0.149 HD
ENDROOT
BRANCH   1   5
ATOM      5  C   UNL     1      -0.889   1.824   4.519  0.00  0.00    +0.093 C 
BRANCH   5   6
ATOM      6  C   UNL     1      -0.169   0.774   5.367  0.00  0.00    -0.020 C 
BRANCH   6   7
ATOM      7  C   UNL     1      -0.401   1.062   6.828  0.00  0.00    -0.059 A 
ATOM      8  C   UNL     1      -0.275   2.353   7.306  0.00  0.00    +0.002 A 
ATOM      9  C   UNL     1      -0.493   2.618   8.645  0.00  0.00    +0.000 A 
ATOM     10  C   UNL     1      -0.828   1.590   9.508  0.00  0.00    +0.000 A 
ATOM     11  C   UNL     1      -0.948   0.299   9.030  0.00  0.00    +0.000 A 
ATOM     12  C   UNL     1      -0.735   0.035   7.690  0.00  0.00    +0.002 A 
ENDBRANCH   6   7
BRANCH   6  13
ATOM     13  N   UNL     1       1.272   0.819   5.082  0.00  0.00    +0.385 N 
ATOM     14  H   UNL     1       1.400   1.131   4.035  0.00  0.00    -0.081 HD
BRANCH  13  16
ATOM     15  C   UNL     1       1.800   3.199   5.312  0.00  0.00    -0.017 C 
ATOM     16  C   UNL     1       1.946   1.809   5.933  0.00  0.00    -0.081 C 
ENDBRANCH  13  16
BRANCH  13  17
ATOM     17  C   UNL     1       1.881  -0.509   5.235  0.00  0.00    -0.081 C 
ATOM     18  C   UNL     1       1.482  -1.393   4.052  0.00  0.00    -0.017 C 
ENDBRANCH  13  17
ENDBRANCH   6  13
ENDBRANCH   5   6
ENDBRANCH   1   5
BRANCH   2  19
ATOM     19  C   UNL     1      -0.702   2.270   0.723  0.00  0.00    +0.117 C 
BRANCH  19  20
ATOM     20  C   UNL     1      -1.410   3.337  -0.115  0.00  0.00    +0.135 C 
BRANCH  20  21
ATOM     21  N   UNL     1      -1.148   3.095  -1.536  0.00  0.00    -0.298 N 
ATOM     22  C   UNL     1      -0.071   3.674  -2.129  0.00  0.00    +0.202 A 
ATOM     23  N   UNL     1       0.231   3.505  -3.380  0.00  0.00    -0.237 NA
ATOM     24  C   UNL     1      -0.529   2.733  -4.197  0.00  0.00    +0.078 A 
ATOM     25  C   UNL     1      -0.207   2.556  -5.545  0.00  0.00    +0.029 A 
ATOM     26  C   UNL     1      -1.007   1.765  -6.338  0.00  0.00    +0.017 A 
ATOM     27  C   UNL     1      -2.131   1.138  -5.815  0.00  0.00    +0.019 A 
ATOM     28  C   UNL     1      -2.469   1.298  -4.488  0.00  0.00    +0.030 A 
ATOM     29  C   UNL     1      -1.673   2.095  -3.669  0.00  0.00    +0.066 A 
ATOM     30  C   UNL     1      -1.983   2.303  -2.247  0.00  0.00    +0.262 A 
ATOM     31  O   UNL     1      -2.954   1.782  -1.729  0.00  0.00    -0.267 OA
ATOM     32 BR   UNL     1      -3.208   0.057  -6.933  0.00  0.00    -0.050 Br
ENDBRANCH  20  21
ENDBRANCH  19  20
ENDBRANCH   2  19
TORSDOF 9
