REMARK  Name = ZINC13123365
REMARK  4 active torsions:
REMARK  status: ('A' for Active; 'I' for Inactive)
REMARK    1  A    between atoms: C_8  and  N_13
REMARK    2  A    between atoms: C_9  and  O_12
REMARK    3  A    between atoms: N_14  and  C_15
REMARK    4  A    between atoms: C_18  and  C_21
REMARK                            x       y       z     vdW  Elec       q    Type
REMARK                         _______ _______ _______ _____ _____    ______ ____
ROOT
ATOM      1  C   UNL     1      -0.017   1.383   0.010  0.00  0.00    +0.017 A 
ATOM      2  C   UNL     1       1.161   2.101   0.002  0.00  0.00    +0.027 A 
ATOM      3  C   UNL     1       2.381   1.436  -0.013  0.00  0.00    +0.051 A 
ATOM      4  C   UNL     1       2.398   0.032  -0.021  0.00  0.00    +0.032 A 
ATOM      5  C   UNL     1       1.203  -0.682  -0.013  0.00  0.00    +0.027 A 
ATOM      6  C   UNL     1       0.002  -0.004   0.002  0.00  0.00    +0.019 A 
ATOM      7 BR   UNL     1      -1.625  -0.969   0.012  0.00  0.00    -0.050 Br
ATOM      8  C   UNL     1       3.821  -0.360  -0.037  0.00  0.00    +0.154 A 
ATOM      9  C   UNL     1       4.549   0.822  -0.038  0.00  0.00    +0.219 A 
ATOM     10  N   UNL     1       3.692   1.877  -0.024  0.00  0.00    -0.324 N 
ATOM     11  H   UNL     1       3.962   2.809  -0.022  0.00  0.00    +0.169 HD
ENDROOT
BRANCH   9  12
ATOM     12  O   UNL     1       5.898   0.910  -0.050  0.00  0.00    -0.492 OA
ATOM     13  H   UNL     1       6.282   0.940  -0.937  0.00  0.00    +0.294 HD
ENDBRANCH   9  12
BRANCH   8  14
ATOM     14  N   UNL     1       4.314  -1.613  -0.048  0.00  0.00    -0.142 NA
ATOM     15  N   UNL     1       5.589  -1.804  -0.062  0.00  0.00    -0.129 NA
BRANCH  15  16
ATOM     16  C   UNL     1       6.089  -3.076  -0.073  0.00  0.00    +0.175 A 
ATOM     17  C   UNL     1       7.472  -3.277  -0.082  0.00  0.00    +0.050 A 
ATOM     18  C   UNL     1       7.962  -4.570  -0.094  0.00  0.00    +0.017 A 
ATOM     19  C   UNL     1       7.056  -5.623  -0.096  0.00  0.00    +0.073 A 
ATOM     20  C   UNL     1       5.700  -5.353  -0.086  0.00  0.00    +0.125 A 
ATOM     21  N   UNL     1       5.257  -4.112  -0.070  0.00  0.00    -0.234 NA
BRANCH  19  22
ATOM     22  C   UNL     1       7.547  -7.048  -0.109  0.00  0.00    +0.419 C 
ATOM     23  F   UNL     1       7.707  -7.498   1.206  0.00  0.00    -0.166 F 
ATOM     24  F   UNL     1       6.615  -7.856  -0.768  0.00  0.00    -0.166 F 
ATOM     25  F   UNL     1       8.775  -7.112  -0.776  0.00  0.00    -0.166 F 
ENDBRANCH  19  22
ENDBRANCH  15  16
ENDBRANCH   8  14
TORSDOF 4
