REMARK  Name = ZINC19500439
REMARK  7 active torsions:
REMARK  status: ('A' for Active; 'I' for Inactive)
REMARK    1  A    between atoms: C_1  and  C_2
REMARK    2  A    between atoms: C_2  and  C_3
REMARK    3  A    between atoms: C_3  and  C_5
REMARK    4  A    between atoms: C_3  and  N_12
REMARK    5  A    between atoms: C_14  and  C_17
REMARK    6  A    between atoms: N_22  and  C_32
REMARK    7  A    between atoms: C_24  and  C_26
REMARK                            x       y       z     vdW  Elec       q    Type
REMARK                         _______ _______ _______ _____ _____    ______ ____
ROOT
ATOM      1  N   UNL     1       5.299   5.019   3.628  0.00  0.00    -0.244 N 
ATOM      2  C   UNL     1       4.175   4.365   3.273  0.00  0.00    +0.144 A 
ATOM      3  C   UNL     1       4.567   3.218   2.642  0.00  0.00    +0.167 A 
ATOM      4  N   UNL     1       5.911   3.182   2.622  0.00  0.00    -0.125 NA
ATOM      5  N   UNL     1       6.378   4.237   3.193  0.00  0.00    -0.064 NA
ENDROOT
BRANCH   3   6
ATOM      6  C   UNL     1       3.668   2.191   2.083  0.00  0.00    +0.269 C 
ATOM      7  O   UNL     1       2.468   2.386   2.050  0.00  0.00    -0.268 OA
ATOM      8  N   UNL     1       4.176   1.037   1.608  0.00  0.00    -0.287 N 
ATOM      9  C   UNL     1       5.605   0.722   1.760  0.00  0.00    +0.124 C 
ATOM     10  C   UNL     1       6.165   0.328   0.389  0.00  0.00    +0.103 C 
ATOM     11  N   UNL     1       5.348  -0.753  -0.177  0.00  0.00    -0.302 NA
ATOM     12  C   UNL     1       3.967  -0.310  -0.413  0.00  0.00    +0.111 C 
ATOM     13  C   UNL     1       3.317   0.058   0.925  0.00  0.00    +0.121 C 
ATOM     14  C   UNL     1       5.950  -1.278  -1.410  0.00  0.00    +0.105 C 
BRANCH  13  15
ATOM     15  C   UNL     1       1.958   0.662   0.678  0.00  0.00    -0.026 A 
ATOM     16  C   UNL     1       0.825   0.037   1.164  0.00  0.00    +0.005 A 
ATOM     17  C   UNL     1      -0.421   0.588   0.933  0.00  0.00    +0.000 A 
ATOM     18  C   UNL     1      -0.534   1.770   0.225  0.00  0.00    +0.000 A 
ATOM     19  C   UNL     1       0.599   2.396  -0.259  0.00  0.00    +0.000 A 
ATOM     20  C   UNL     1       1.845   1.842  -0.033  0.00  0.00    +0.005 A 
ENDBRANCH  13  15
ENDBRANCH   3   6
BRANCH   1  21
ATOM     21  C   UNL     1       5.378   6.302   4.332  0.00  0.00    +0.138 C 
BRANCH  21  22
ATOM     22  C   UNL     1       4.246   6.402   5.321  0.00  0.00    -0.023 A 
ATOM     23  C   UNL     1       2.944   6.522   4.871  0.00  0.00    +0.008 A 
ATOM     24  C   UNL     1       1.905   6.609   5.778  0.00  0.00    +0.038 A 
ATOM     25  C   UNL     1       2.168   6.587   7.137  0.00  0.00    +0.123 A 
ATOM     26  C   UNL     1       3.473   6.473   7.586  0.00  0.00    +0.038 A 
ATOM     27  C   UNL     1       4.511   6.380   6.678  0.00  0.00    +0.008 A 
ATOM     28  F   UNL     1       1.153   6.677   8.024  0.00  0.00    -0.205 F 
ENDBRANCH  21  22
BRANCH  21  30
ATOM     29  C   UNL     1       5.482   8.781   4.038  0.00  0.00    +0.006 C 
ATOM     30  C   UNL     1       5.275   7.445   3.321  0.00  0.00    +0.028 C 
ENDBRANCH  21  30
ENDBRANCH   1  21
TORSDOF 5
