REMARK  Name = ZINC12034978
REMARK  13 active torsions:
REMARK  status: ('A' for Active; 'I' for Inactive)
REMARK    1  A    between atoms: C_1  and  C_2
REMARK    2  A    between atoms: C_2  and  C_3
REMARK    3  A    between atoms: C_3  and  C_18
REMARK    4  A    between atoms: N_6  and  C_10
REMARK    5  A    between atoms: C_10  and  C_11
REMARK    6  A    between atoms: C_11  and  C_12
REMARK    7  A    between atoms: C_13  and  C_17
REMARK    8  A    between atoms: C_23  and  C_24
REMARK    9  A    between atoms: C_23  and  N_68
REMARK   10  A    between atoms: C_28  and  O_30
REMARK   11  A    between atoms: O_30  and  C_31
REMARK   12  A    between atoms: C_31  and  C_32
REMARK   13  A    between atoms: C_32  and  O_33
REMARK                            x       y       z     vdW  Elec       q    Type
REMARK                         _______ _______ _______ _____ _____    ______ ____
ROOT
ATOM      1  C   UNL     1      -1.231   7.056  -3.716  0.00  0.00    +0.018 C 
ATOM      2  C   UNL     1      -0.230   7.799  -2.827  0.00  0.00    -0.013 C 
ATOM      3  C   UNL     1      -0.359   7.291  -1.389  0.00  0.00    -0.078 C 
ATOM      4  C   UNL     1      -1.075   5.109  -2.162  0.00  0.00    -0.078 C 
ATOM      5  C   UNL     1      -0.967   5.551  -3.623  0.00  0.00    -0.013 C 
ATOM      6  N   UNL     1      -0.070   5.842  -1.363  0.00  0.00    +0.382 N 
ATOM      7  H   UNL     1       0.860   5.681  -1.769  0.00  0.00    -0.081 HD
ENDROOT
BRANCH   1   8
ATOM      8  C   UNL     1      -1.065   7.516  -5.167  0.00  0.00    +0.115 C 
ATOM      9  C   UNL     1       0.374   7.355  -5.615  0.00  0.00    +0.247 C 
ATOM     10  O   UNL     1       1.008   6.324  -5.684  0.00  0.00    -0.273 OA
ATOM     11  N   UNL     1       0.801   8.596  -5.921  0.00  0.00    -0.224 N 
ATOM     12  C   UNL     1      -0.158   9.509  -5.729  0.00  0.00    +0.309 C 
ATOM     13  O   UNL     1      -0.010  10.697  -5.936  0.00  0.00    -0.252 OA
ATOM     14  N   UNL     1      -1.304   8.965  -5.282  0.00  0.00    -0.285 N 
ATOM     15  H   UNL     1      -2.127   9.435  -5.076  0.00  0.00    +0.151 HD
BRANCH   8  17
ATOM     16  C   UNL     1      -1.820   7.214  -7.529  0.00  0.00    +0.006 C 
ATOM     17  C   UNL     1      -2.006   6.737  -6.087  0.00  0.00    +0.032 C 
ENDBRANCH   8  17
BRANCH  11  18
ATOM     18  C   UNL     1       2.150   8.907  -6.402  0.00  0.00    +0.123 C 
BRANCH  18  19
ATOM     19  C   UNL     1       2.175   8.833  -7.930  0.00  0.00    +0.064 C 
BRANCH  19  20
ATOM     20  C   UNL     1       3.562   9.153  -8.425  0.00  0.00    +0.014 A 
ATOM     21  C   UNL     1       4.614   8.326  -8.652  0.00  0.00    +0.049 A 
ATOM     22  N   UNL     1       5.738   8.850  -9.094  0.00  0.00    -0.252 NA
ATOM     23  C   UNL     1       5.856  10.140  -9.304  0.00  0.00    +0.156 A 
ATOM     24  S   UNL     1       4.281  10.728  -8.869  0.00  0.00    -0.080 S 
ATOM     25  C   UNL     1       4.497   6.843  -8.407  0.00  0.00    +0.066 C 
ENDBRANCH  19  20
ENDBRANCH  18  19
ENDBRANCH  11  18
ENDBRANCH   1   8
BRANCH   6  26
ATOM     26  C   UNL     1      -0.076   5.351   0.030  0.00  0.00    -0.043 C 
BRANCH  26  27
ATOM     27  C   UNL     1      -0.051   3.844   0.022  0.00  0.00    -0.060 A 
ATOM     28  C   UNL     1      -1.237   3.133   0.029  0.00  0.00    +0.002 A 
ATOM     29  C   UNL     1      -1.218   1.751   0.017  0.00  0.00    +0.004 A 
ATOM     30  C   UNL     1      -0.013   1.076   0.008  0.00  0.00    +0.045 A 
ATOM     31  C   UNL     1       1.179   1.786   0.000  0.00  0.00    +0.121 A 
ATOM     32  C   UNL     1       1.157   3.174   0.008  0.00  0.00    +0.047 A 
BRANCH  31  33
ATOM     33  O   UNL     1       2.366   1.125  -0.014  0.00  0.00    -0.490 OA
BRANCH  33  34
ATOM     34  C   UNL     1       2.312  -0.303  -0.020  0.00  0.00    +0.256 C 
BRANCH  34  35
ATOM     35  C   UNL     1       3.735  -0.867  -0.035  0.00  0.00    +0.196 C 
BRANCH  35  36
ATOM     36  O   UNL     1       4.399  -0.519   1.181  0.00  0.00    -0.392 OA
ATOM     37  H   UNL     1       5.307  -0.844   1.241  0.00  0.00    +0.210 HD
ENDBRANCH  35  36
ENDBRANCH  34  35
ENDBRANCH  33  34
ENDBRANCH  31  33
ENDBRANCH  26  27
ENDBRANCH   6  26
TORSDOF 11
