REMARK  Name = ZINC24228115
REMARK  12 active torsions:
REMARK  status: ('A' for Active; 'I' for Inactive)
REMARK    1  A    between atoms: C_1  and  C_2
REMARK    2  A    between atoms: C_7  and  N_8
REMARK    3  A    between atoms: C_9  and  C_11
REMARK    4  A    between atoms: C_11  and  C_13
REMARK    5  A    between atoms: C_11  and  S_14
REMARK    6  A    between atoms: S_14  and  C_15
REMARK    7  A    between atoms: C_18  and  C_27
REMARK    8  A    between atoms: N_19  and  C_20
REMARK    9  A    between atoms: C_27  and  C_29
REMARK   10  A    between atoms: C_27  and  N_30
REMARK   11  A    between atoms: N_30  and  C_31
REMARK   12  A    between atoms: N_30  and  C_32
REMARK                            x       y       z     vdW  Elec       q    Type
REMARK                         _______ _______ _______ _____ _____    ______ ____
ROOT
ATOM      1  C   UNL     1       0.965   0.200  -7.488  0.00  0.00    +0.197 A 
ATOM      2  N   UNL     1       0.618   1.466  -7.454  0.00  0.00    -0.122 NA
ATOM      3  N   UNL     1       0.847   2.013  -8.594  0.00  0.00    -0.135 NA
ATOM      4  C   UNL     1       1.343   1.136  -9.421  0.00  0.00    +0.125 A 
ATOM      5  N   UNL     1       1.436  -0.052  -8.746  0.00  0.00    -0.275 N 
ENDROOT
BRANCH   5   6
ATOM      6  C   UNL     1       1.915  -1.274  -9.243  0.00  0.00    +0.050 A 
ATOM      7  C   UNL     1       3.245  -1.397  -9.621  0.00  0.00    +0.029 A 
ATOM      8  C   UNL     1       3.717  -2.602 -10.105  0.00  0.00    +0.040 A 
ATOM      9  C   UNL     1       2.861  -3.683 -10.224  0.00  0.00    +0.124 A 
ATOM     10  C   UNL     1       1.532  -3.561  -9.852  0.00  0.00    +0.040 A 
ATOM     11  C   UNL     1       1.059  -2.360  -9.363  0.00  0.00    +0.029 A 
ATOM     12  F   UNL     1       3.322  -4.860 -10.702  0.00  0.00    -0.205 F 
ENDBRANCH   5   6
BRANCH   4  13
ATOM     13  C   UNL     1       1.740   1.384 -10.854  0.00  0.00    -0.003 C 
ATOM     14  C   UNL     1       0.483   1.488 -11.720  0.00  0.00    -0.005 C 
BRANCH  13  15
ATOM     15  N   UNL     1       2.501   2.637 -10.941  0.00  0.00    +0.382 N 
ATOM     16  C   UNL     1       3.007   2.852 -12.303  0.00  0.00    -0.096 C 
ATOM     17  C   UNL     1       1.690   3.778 -10.495  0.00  0.00    -0.096 C 
ATOM     18  H   UNL     1       3.367   2.555 -10.268  0.00  0.00    -0.082 HD
ENDBRANCH  13  15
ENDBRANCH   4  13
BRANCH   1  19
ATOM     19  S   UNL     1       0.839  -0.956  -6.164  0.00  0.00    -0.073 S 
BRANCH  19  20
ATOM     20  C   UNL     1       0.146   0.112  -4.878  0.00  0.00    +0.137 C 
ATOM     21  C   UNL     1      -1.254   0.568  -5.293  0.00  0.00    +0.029 C 
BRANCH  20  23
ATOM     22  N   UNL     1      -0.033   0.012  -2.413  0.00  0.00    -0.284 N 
ATOM     23  C   UNL     1       0.061  -0.652  -3.582  0.00  0.00    +0.230 C 
ATOM     24  O   UNL     1       0.078  -1.865  -3.591  0.00  0.00    -0.274 OA
ATOM     25  H   UNL     1      -0.139   1.107  -2.409  0.00  0.00    +0.155 HD
BRANCH  22  32
ATOM     26  C   UNL     1      -1.253   1.196  -0.132  0.00  0.00    +0.045 C 
ATOM     27  C   UNL     1      -0.578  -0.150  -0.066  0.00  0.00    -0.029 A 
ATOM     28  C   UNL     1      -0.545  -0.849   1.125  0.00  0.00    +0.006 A 
ATOM     29  C   UNL     1       0.074  -2.083   1.187  0.00  0.00    +0.020 A 
ATOM     30  C   UNL     1       0.662  -2.624   0.057  0.00  0.00    +0.043 A 
ATOM     31  C   UNL     1       0.631  -1.929  -1.138  0.00  0.00    +0.043 A 
ATOM     32  C   UNL     1       0.005  -0.691  -1.204  0.00  0.00    +0.038 A 
ATOM     33 CL   UNL     1       1.439  -4.174   0.139  0.00  0.00    -0.083 Cl
ENDBRANCH  22  32
ENDBRANCH  20  23
ENDBRANCH  19  20
ENDBRANCH   1  19
TORSDOF 7
