REMARK  Name = ZINC36574709
REMARK  12 active torsions:
REMARK  status: ('A' for Active; 'I' for Inactive)
REMARK    1  A    between atoms: C_1  and  C_2
REMARK    2  A    between atoms: C_2  and  C_3
REMARK    3  A    between atoms: C_3  and  N_4
REMARK    4  A    between atoms: N_4  and  C_5
REMARK    5  A    between atoms: C_5  and  C_7
REMARK    6  A    between atoms: C_5  and  C_21
REMARK    7  A    between atoms: N_23  and  C_24
REMARK    8  A    between atoms: C_24  and  S_25
REMARK    9  A    between atoms: S_25  and  C_28
REMARK   10  A    between atoms: C_31  and  C_34
REMARK   11  A    between atoms: C_35  and  C_37
REMARK   12  A    between atoms: C_37  and  O_38
REMARK                            x       y       z     vdW  Elec       q    Type
REMARK                         _______ _______ _______ _____ _____    ______ ____
ROOT
ATOM      1  C   UNL     1      -1.556  -2.979   0.687  0.00  0.00    +0.193 C 
ENDROOT
BRANCH   1   2
ATOM      2  C   UNL     1      -3.022  -3.297   0.825  0.00  0.00    -0.010 A 
ATOM      3  C   UNL     1      -3.534  -3.532   2.051  0.00  0.00    +0.015 A 
ATOM      4  C   UNL     1      -4.903  -3.834   2.233  0.00  0.00    -0.017 A 
ATOM      5  C   UNL     1      -5.425  -4.077   3.512  0.00  0.00    +0.008 A 
ATOM      6  C   UNL     1      -6.749  -4.366   3.659  0.00  0.00    +0.001 A 
ATOM      7  C   UNL     1      -7.594  -4.425   2.556  0.00  0.00    +0.001 A 
ATOM      8  C   UNL     1      -7.116  -4.193   1.298  0.00  0.00    +0.009 A 
ATOM      9  C   UNL     1      -5.765  -3.894   1.115  0.00  0.00    -0.010 A 
ATOM     10  C   UNL     1      -5.210  -3.639  -0.217  0.00  0.00    -0.010 A 
ATOM     11  C   UNL     1      -3.834  -3.336  -0.332  0.00  0.00    -0.012 A 
ATOM     12  C   UNL     1      -3.294  -3.085  -1.601  0.00  0.00    +0.009 A 
ATOM     13  C   UNL     1      -4.100  -3.130  -2.701  0.00  0.00    +0.001 A 
ATOM     14  C   UNL     1      -5.454  -3.422  -2.583  0.00  0.00    +0.001 A 
ATOM     15  C   UNL     1      -6.007  -3.684  -1.362  0.00  0.00    +0.009 A 
ENDBRANCH   1   2
BRANCH   1  16
ATOM     16  C   UNL     1      -0.934  -2.869   2.055  0.00  0.00    +0.239 C 
ATOM     17  O   UNL     1      -1.220  -1.938   2.778  0.00  0.00    -0.273 OA
ATOM     18  N   UNL     1      -0.060  -3.805   2.475  0.00  0.00    -0.294 N 
ATOM     19  H   UNL     1       0.223  -4.510   1.872  0.00  0.00    +0.150 HD
BRANCH  18  20
ATOM     20  C   UNL     1       0.461  -3.759   3.843  0.00  0.00    +0.278 C 
BRANCH  20  21
ATOM     21  S   UNL     1      -0.514  -4.864   4.900  0.00  0.00    +0.013 S 
ATOM     22  O   UNL     1       0.002  -4.857   6.224  0.00  0.00    -0.168 OA
ATOM     23  O   UNL     1      -1.902  -4.670   4.663  0.00  0.00    -0.168 OA
BRANCH  21  24
ATOM     24  C   UNL     1      -0.177  -6.484   4.295  0.00  0.00    +0.090 A 
ATOM     25  C   UNL     1      -0.902  -6.989   3.232  0.00  0.00    +0.027 A 
ATOM     26  C   UNL     1      -0.637  -8.260   2.756  0.00  0.00    +0.005 A 
ATOM     27  C   UNL     1       0.352  -9.025   3.344  0.00  0.00    -0.050 A 
ATOM     28  C   UNL     1       1.077  -8.520   4.407  0.00  0.00    +0.005 A 
ATOM     29  C   UNL     1       0.816  -7.247   4.879  0.00  0.00    +0.027 A 
ATOM     30  C   UNL     1       0.640 -10.411   2.827  0.00  0.00    +0.044 C 
ENDBRANCH  21  24
ENDBRANCH  20  21
ENDBRANCH  18  20
ENDBRANCH   1  16
BRANCH   1  31
ATOM     31  N   UNL     1      -1.397  -1.708  -0.025  0.00  0.00    -0.284 N 
ATOM     32  C   UNL     1      -0.638  -1.649  -1.138  0.00  0.00    +0.242 C 
ATOM     33  O   UNL     1      -0.507  -0.597  -1.727  0.00  0.00    -0.273 OA
BRANCH  31  34
ATOM     34  C   UNL     1      -2.062  -0.501   0.472  0.00  0.00    +0.109 C 
BRANCH  34  36
ATOM     35  C   UNL     1      -1.725   1.649   1.698  0.00  0.00    +0.005 C 
ATOM     36  C   UNL     1      -1.070   0.328   1.290  0.00  0.00    +0.016 C 
ENDBRANCH  34  36
ENDBRANCH  31  34
BRANCH  32  37
ATOM     37  C   UNL     1       0.046  -2.890  -1.649  0.00  0.00    +0.251 C 
BRANCH  37  38
ATOM     38  O   UNL     1       0.785  -2.574  -2.831  0.00  0.00    -0.386 OA
ATOM     39  H   UNL     1       1.252  -3.328  -3.216  0.00  0.00    +0.210 HD
ENDBRANCH  37  38
ENDBRANCH  32  37
ENDBRANCH   1  31
TORSDOF 10
