REMARK  Name = ZINC13501121
REMARK  9 active torsions:
REMARK  status: ('A' for Active; 'I' for Inactive)
REMARK    1  A    between atoms: C_1  and  C_2
REMARK    2  A    between atoms: C_2  and  C_3
REMARK    3  A    between atoms: C_3  and  C_5
REMARK    4  A    between atoms: C_3  and  N_69
REMARK    5  A    between atoms: N_9  and  C_10
REMARK    6  A    between atoms: C_15  and  C_16
REMARK    7  A    between atoms: C_15  and  N_69
REMARK    8  A    between atoms: C_22  and  C_28
REMARK    9  A    between atoms: C_29  and  N_69
REMARK                            x       y       z     vdW  Elec       q    Type
REMARK                         _______ _______ _______ _____ _____    ______ ____
ROOT
ATOM      1  N   UNL     1       1.574  -3.190   5.650  0.00  0.00    +0.391 N 
ATOM      2  H   UNL     1       2.068  -3.831   5.017  0.00  0.00    -0.080 HD
ENDROOT
BRANCH   1   3
ATOM      3  C   UNL     1       2.453  -2.040   5.949  0.00  0.00    -0.067 C 
ATOM      4  C   UNL     1       1.880  -1.214   7.102  0.00  0.00    -0.015 C 
ATOM      5  C   UNL     1       2.810  -0.034   7.396  0.00  0.00    -0.002 C 
ATOM      6  C   UNL     1       2.928   0.844   6.149  0.00  0.00    -0.000 C 
ATOM      7  C   UNL     1       3.500   0.018   4.995  0.00  0.00    -0.002 C 
ATOM      8  C   UNL     1       2.571  -1.161   4.702  0.00  0.00    -0.015 C 
ENDBRANCH   1   3
BRANCH   1   9
ATOM      9  C   UNL     1       1.241  -3.909   6.897  0.00  0.00    +0.003 C 
BRANCH   9  10
ATOM     10  C   UNL     1       1.544  -5.372   6.699  0.00  0.00    +0.138 A 
ATOM     11  N   UNL     1       1.227  -6.103   5.658  0.00  0.00    -0.115 NA
ATOM     12  N   UNL     1       1.660  -7.299   5.865  0.00  0.00    -0.023 NA
ATOM     13  N   UNL     1       2.238  -7.352   7.014  0.00  0.00    -0.044 NA
ATOM     14  N   UNL     1       2.187  -6.184   7.560  0.00  0.00    -0.228 N 
BRANCH  14  15
ATOM     15  C   UNL     1       2.727  -5.810   8.869  0.00  0.00    +0.111 C 
ATOM     16  C   UNL     1       4.240  -6.106   8.920  0.00  0.00    +0.027 C 
ATOM     17  C   UNL     1       4.480  -6.605  10.367  0.00  0.00    +0.002 C 
ATOM     18  C   UNL     1       3.213  -7.448  10.654  0.00  0.00    +0.002 C 
ATOM     19  C   UNL     1       2.074  -6.663   9.971  0.00  0.00    +0.027 C 
ENDBRANCH  14  15
ENDBRANCH   9  10
BRANCH   9  21
ATOM     20  C   UNL     1      -0.501  -2.296   7.673  0.00  0.00    +0.002 C 
ATOM     21  C   UNL     1      -0.243  -3.735   7.225  0.00  0.00    -0.011 C 
ENDBRANCH   9  21
ENDBRANCH   1   9
BRANCH   1  22
ATOM     22  C   UNL     1       0.337  -2.723   4.990  0.00  0.00    -0.036 C 
BRANCH  22  23
ATOM     23  C   UNL     1      -0.193  -3.833   4.120  0.00  0.00    +0.001 A 
ATOM     24  C   UNL     1      -1.296  -4.523   4.503  0.00  0.00    +0.017 A 
ATOM     25  C   UNL     1      -1.786  -5.596   3.635  0.00  0.00    -0.001 A 
ATOM     26  C   UNL     1      -2.919  -6.342   3.976  0.00  0.00    +0.010 A 
ATOM     27  C   UNL     1      -3.350  -7.337   3.145  0.00  0.00    +0.001 A 
ATOM     28  C   UNL     1      -2.677  -7.609   1.961  0.00  0.00    +0.005 A 
ATOM     29  C   UNL     1      -1.555  -6.891   1.609  0.00  0.00    -0.026 A 
ATOM     30  C   UNL     1      -1.097  -5.874   2.439  0.00  0.00    +0.052 A 
ATOM     31  N   UNL     1       0.019  -5.136   2.108  0.00  0.00    -0.322 N 
ATOM     32  H   UNL     1       0.492  -5.329   1.284  0.00  0.00    +0.169 HD
ATOM     33  C   UNL     1       0.461  -4.152   2.911  0.00  0.00    +0.251 A 
ATOM     34  O   UNL     1       1.451  -3.520   2.586  0.00  0.00    -0.268 OA
ATOM     35  C   UNL     1      -0.830  -7.204   0.325  0.00  0.00    +0.046 C 
ENDBRANCH  22  23
ENDBRANCH   1  22
TORSDOF 7
