REMARK  Name = ZINC42270642
REMARK  3 active torsions:
REMARK  status: ('A' for Active; 'I' for Inactive)
REMARK    1  A    between atoms: C_6  and  N_7
REMARK    2  A    between atoms: C_9  and  C_11
REMARK    3  A    between atoms: C_18  and  C_20
REMARK                            x       y       z     vdW  Elec       q    Type
REMARK                         _______ _______ _______ _____ _____    ______ ____
ROOT
ATOM      1  C   UNL     1       6.770  -0.188   1.193  0.00  0.00    +0.254 C 
ATOM      2  O   UNL     1       7.195  -1.327   1.161  0.00  0.00    -0.269 OA
ATOM      3  N   UNL     1       7.439   0.800   0.567  0.00  0.00    -0.286 N 
ATOM      4  C   UNL     1       7.035   2.202   0.734  0.00  0.00    +0.109 C 
ATOM      5  C   UNL     1       6.821   2.822  -0.650  0.00  0.00    +0.019 C 
ATOM      6  C   UNL     1       8.085   2.629  -1.492  0.00  0.00    +0.004 C 
ATOM      7  C   UNL     1       8.357   1.134  -1.670  0.00  0.00    +0.032 C 
ATOM      8  C   UNL     1       8.592   0.494  -0.292  0.00  0.00    +0.162 C 
ENDROOT
BRANCH   1  16
ATOM      9  C   UNL     1       1.346   1.049   4.410  0.00  0.00    +0.024 A 
ATOM     10  C   UNL     1       2.001   1.582   3.320  0.00  0.00    +0.017 A 
ATOM     11  C   UNL     1       3.193   1.031   2.901  0.00  0.00    +0.020 A 
ATOM     12  C   UNL     1       3.785  -0.078   3.550  0.00  0.00    -0.008 A 
ATOM     13  C   UNL     1       3.086  -0.603   4.668  0.00  0.00    +0.031 A 
ATOM     14  C   UNL     1       1.899  -0.045   5.076  0.00  0.00    +0.025 A 
ATOM     15  C   UNL     1       5.001  -0.521   2.999  0.00  0.00    +0.029 A 
ATOM     16  C   UNL     1       5.525   0.112   1.916  0.00  0.00    +0.075 A 
ATOM     17  S   UNL     1       4.330   1.395   1.586  0.00  0.00    -0.084 S 
BRANCH  14  18
ATOM     18  N   UNL     1       1.232  -0.585   6.182  0.00  0.00    -0.358 N 
ATOM     19  H   UNL     1       0.393  -0.198   6.478  0.00  0.00    +0.142 HD
ATOM     20  H   UNL     1       1.608  -1.345   6.652  0.00  0.00    +0.142 HD
ENDBRANCH  14  18
ENDBRANCH   1  16
BRANCH   8  21
ATOM     21  C   UNL     1       8.728  -0.999  -0.443  0.00  0.00    +0.231 C 
ATOM     22  O   UNL     1       7.808  -1.650  -0.891  0.00  0.00    -0.274 OA
ATOM     23  N   UNL     1       9.873  -1.611  -0.080  0.00  0.00    -0.328 N 
ATOM     24  H   UNL     1      10.609  -1.090   0.278  0.00  0.00    +0.145 HD
ATOM     25  H   UNL     1       9.961  -2.572  -0.177  0.00  0.00    +0.145 HD
ENDBRANCH   8  21
TORSDOF 3
