REMARK  Name = ZINC39637933
REMARK  8 active torsions:
REMARK  status: ('A' for Active; 'I' for Inactive)
REMARK    1  A    between atoms: C_1  and  C_2
REMARK    2  A    between atoms: C_2  and  C_3
REMARK    3  A    between atoms: C_3  and  C_5
REMARK    4  A    between atoms: C_3  and  N_8
REMARK    5  A    between atoms: C_5  and  O_6
REMARK    6  A    between atoms: O_6  and  C_7
REMARK    7  A    between atoms: C_9  and  C_11
REMARK    8  A    between atoms: C_22  and  C_24
REMARK                            x       y       z     vdW  Elec       q    Type
REMARK                         _______ _______ _______ _____ _____    ______ ____
ROOT
ATOM      1  C   UNL     1      -1.131   1.432  -4.731  0.00  0.00    +0.100 C 
ATOM      2  C   UNL     1      -2.537   1.337  -4.097  0.00  0.00    +0.121 C 
ATOM      3  N   UNL     1      -2.849   2.722  -3.672  0.00  0.00    -0.296 N 
ATOM      4  C   UNL     1      -2.320   3.572  -4.765  0.00  0.00    +0.115 C 
ATOM      5  C   UNL     1      -0.993   2.899  -5.171  0.00  0.00    -0.004 C 
ATOM      6  C   UNL     1      -0.800   2.981  -6.682  0.00  0.00    -0.010 C 
ATOM      7  C   UNL     1      -0.608   4.445  -7.089  0.00  0.00    -0.082 C 
ATOM      8  N   UNL     1       0.562   4.998  -6.395  0.00  0.00    +0.379 N 
ATOM      9  C   UNL     1       0.329   5.000  -4.946  0.00  0.00    -0.082 C 
ATOM     10  C   UNL     1       0.176   3.560  -4.449  0.00  0.00    -0.010 C 
ATOM     11  C   UNL     1      -3.475   3.119  -2.546  0.00  0.00    +0.247 C 
ATOM     12  O   UNL     1      -3.741   2.308  -1.681  0.00  0.00    -0.270 OA
ATOM     13  H   UNL     1       1.372   4.434  -6.603  0.00  0.00    -0.086 HD
ATOM     14  H   UNL     1       0.723   5.943  -6.710  0.00  0.00    -0.086 HD
ENDROOT
BRANCH  11  15
ATOM     15  C   UNL     1      -3.837   4.541  -2.364  0.00  0.00    +0.040 A 
ATOM     16  C   UNL     1      -3.945   5.384  -3.471  0.00  0.00    +0.033 A 
ATOM     17  C   UNL     1      -4.283   6.711  -3.294  0.00  0.00    +0.043 A 
ATOM     18  C   UNL     1      -4.516   7.205  -2.022  0.00  0.00    +0.040 A 
ATOM     19  C   UNL     1      -4.411   6.374  -0.920  0.00  0.00    +0.043 A 
ATOM     20  C   UNL     1      -4.079   5.044  -1.085  0.00  0.00    +0.033 A 
ATOM     21 CL   UNL     1      -4.704   7.003   0.671  0.00  0.00    -0.083 Cl
ATOM     22 CL   UNL     1      -4.417   7.761  -4.670  0.00  0.00    -0.083 Cl
ENDBRANCH  11  15
BRANCH   1  24
ATOM     23  N   UNL     1       1.133   0.644  -4.120  0.00  0.00    -0.310 N 
ATOM     24  C   UNL     1      -0.073   1.088  -3.714  0.00  0.00    +0.218 C 
ATOM     25  O   UNL     1      -0.307   1.211  -2.530  0.00  0.00    -0.275 OA
ATOM     26  H   UNL     1       1.321   0.546  -5.066  0.00  0.00    +0.149 HD
BRANCH  23  27
ATOM     27  C   UNL     1       2.162   0.310  -3.131  0.00  0.00    +0.098 C 
BRANCH  27  29
ATOM     28  C   UNL     1       0.628  -1.231  -1.900  0.00  0.00    +0.006 C 
ATOM     29  C   UNL     1       1.958  -1.128  -2.649  0.00  0.00    +0.021 C 
ENDBRANCH  27  29
BRANCH  27  30
ATOM     30  C   UNL     1       3.546   0.443  -3.770  0.00  0.00    +0.181 C 
BRANCH  30  31
ATOM     31  O   UNL     1       3.687  -0.531  -4.806  0.00  0.00    -0.381 OA
ATOM     32  C   UNL     1       4.951  -0.493  -5.471  0.00  0.00    +0.194 C 
ENDBRANCH  30  31
ENDBRANCH  27  30
ENDBRANCH  23  27
ENDBRANCH   1  24
TORSDOF 6
