REMARK  Name = ZINC15969558
REMARK  6 active torsions:
REMARK  status: ('A' for Active; 'I' for Inactive)
REMARK    1  A    between atoms: C_1  and  C_2
REMARK    2  A    between atoms: C_2  and  C_3
REMARK    3  A    between atoms: C_2  and  C_4
REMARK    4  A    between atoms: N_12  and  C_15
REMARK    5  A    between atoms: C_15  and  C_16
REMARK    6  A    between atoms: C_16  and  C_17
REMARK                            x       y       z     vdW  Elec       q    Type
REMARK                         _______ _______ _______ _____ _____    ______ ____
ROOT
ATOM      1  C   UNL     1       0.742  -0.511   1.242  0.00  0.00    +0.070 C 
ATOM      2  C   UNL     1       0.809  -2.053   1.234  0.00  0.00    +0.107 C 
ATOM      3  C   UNL     1       2.209  -2.393   1.817  0.00  0.00    +0.122 C 
ATOM      4  C   UNL     1       1.885  -3.076   3.127  0.00  0.00    +0.228 C 
ATOM      5  O   UNL     1       2.701  -3.502   3.915  0.00  0.00    -0.275 OA
ATOM      6  N   UNL     1       0.557  -3.137   3.280  0.00  0.00    -0.241 N 
ATOM      7  C   UNL     1      -0.156  -2.596   2.264  0.00  0.00    +0.227 C 
ATOM      8  O   UNL     1      -1.365  -2.547   2.186  0.00  0.00    -0.275 OA
ATOM      9  C   UNL     1       2.864  -1.031   2.073  0.00  0.00    +0.136 C 
ATOM     10  N   UNL     1       2.161  -0.066   1.215  0.00  0.00    -0.295 NA
ATOM     11  C   UNL     1       2.760  -0.628   3.517  0.00  0.00    +0.003 A 
ATOM     12  C   UNL     1       1.700  -0.421   4.370  0.00  0.00    +0.008 A 
ATOM     13  C   UNL     1       1.928  -0.044   5.681  0.00  0.00    +0.000 A 
ATOM     14  C   UNL     1       3.225   0.124   6.133  0.00  0.00    +0.002 A 
ATOM     15  C   UNL     1       4.291  -0.082   5.282  0.00  0.00    +0.023 A 
ATOM     16  C   UNL     1       4.069  -0.462   3.960  0.00  0.00    +0.039 A 
ATOM     17  N   UNL     1       4.967  -0.727   2.924  0.00  0.00    -0.283 N 
ATOM     18  C   UNL     1       4.340  -1.069   1.783  0.00  0.00    +0.243 C 
ATOM     19  O   UNL     1       4.863  -1.353   0.726  0.00  0.00    -0.273 OA
ATOM     20  H   UNL     1       2.531  -0.094   0.277  0.00  0.00    +0.124 HD
ATOM     21  H   UNL     1       5.931  -0.670   3.016  0.00  0.00    +0.155 HD
ENDROOT
BRANCH   1  23
ATOM     22  C   UNL     1      -0.019   1.526   0.010  0.00  0.00    +0.009 C 
ATOM     23  C   UNL     1       0.002  -0.004   0.002  0.00  0.00    +0.001 C 
ATOM     24  C   UNL     1       0.718  -0.497  -1.257  0.00  0.00    +0.009 C 
ENDBRANCH   1  23
BRANCH   6  25
ATOM     25  C   UNL     1      -0.079  -3.747   4.450  0.00  0.00    +0.121 C 
BRANCH  25  26
ATOM     26  C   UNL     1      -0.281  -2.684   5.532  0.00  0.00    +0.054 C 
BRANCH  26  27
ATOM     27  C   UNL     1      -0.934  -3.312   6.737  0.00  0.00    -0.046 A 
ATOM     28  C   UNL     1      -2.313  -3.349   6.834  0.00  0.00    +0.004 A 
ATOM     29  C   UNL     1      -2.912  -3.924   7.939  0.00  0.00    +0.000 A 
ATOM     30  C   UNL     1      -2.133  -4.463   8.946  0.00  0.00    +0.000 A 
ATOM     31  C   UNL     1      -0.755  -4.427   8.848  0.00  0.00    +0.000 A 
ATOM     32  C   UNL     1      -0.155  -3.855   7.741  0.00  0.00    +0.004 A 
ENDBRANCH  26  27
ENDBRANCH  25  26
ENDBRANCH   6  25
TORSDOF 4
