REMARK  Name = ZINC24827862
REMARK  9 active torsions:
REMARK  status: ('A' for Active; 'I' for Inactive)
REMARK    1  A    between atoms: C_1  and  C_2
REMARK    2  A    between atoms: C_2  and  C_3
REMARK    3  A    between atoms: C_9  and  C_13
REMARK    4  A    between atoms: C_13  and  S_14
REMARK    5  A    between atoms: S_14  and  C_15
REMARK    6  A    between atoms: C_18  and  C_20
REMARK    7  A    between atoms: C_20  and  C_22
REMARK    8  A    between atoms: C_20  and  O_23
REMARK    9  A    between atoms: O_23  and  C_24
REMARK                            x       y       z     vdW  Elec       q    Type
REMARK                         _______ _______ _______ _____ _____    ______ ____
ROOT
ATOM      1  C   UNL     1       1.646  -6.376  -1.134  0.00  0.00    +0.278 A 
ATOM      2  N   UNL     1       1.270  -7.113  -0.117  0.00  0.00    -0.101 NA
ATOM      3  N   UNL     1       1.441  -8.355  -0.405  0.00  0.00    -0.108 NA
ATOM      4  C   UNL     1       1.937  -8.460  -1.603  0.00  0.00    +0.258 A 
ATOM      5  O   UNL     1       2.079  -7.213  -2.095  0.00  0.00    -0.412 OA
ENDROOT
BRANCH   4   6
ATOM      6  C   UNL     1       2.288  -9.742  -2.313  0.00  0.00    +0.257 C 
ATOM      7  C   UNL     1       1.005 -10.432  -2.783  0.00  0.00    +0.062 C 
BRANCH   6   8
ATOM      8  O   UNL     1       2.992 -10.605  -1.418  0.00  0.00    -0.480 OA
BRANCH   8   9
ATOM      9  C   UNL     1       3.820 -11.529  -1.974  0.00  0.00    +0.122 A 
ATOM     10  C   UNL     1       4.623 -12.318  -1.165  0.00  0.00    +0.048 A 
ATOM     11  C   UNL     1       5.459 -13.261  -1.731  0.00  0.00    +0.042 A 
ATOM     12  C   UNL     1       5.503 -13.411  -3.107  0.00  0.00    +0.124 A 
ATOM     13  C   UNL     1       4.706 -12.620  -3.916  0.00  0.00    +0.042 A 
ATOM     14  C   UNL     1       3.865 -11.680  -3.352  0.00  0.00    +0.048 A 
ATOM     15  F   UNL     1       6.324 -14.330  -3.659  0.00  0.00    -0.205 F 
ENDBRANCH   8   9
ENDBRANCH   6   8
ENDBRANCH   4   6
BRANCH   1  16
ATOM     16  S   UNL     1       1.599  -4.617  -1.224  0.00  0.00    -0.059 S 
BRANCH  16  17
ATOM     17  C   UNL     1       0.913  -4.237   0.408  0.00  0.00    +0.134 C 
BRANCH  17  24
ATOM     18  C   UNL     1       1.766   1.974   1.218  0.00  0.00    +0.102 A 
ATOM     19  N   UNL     1       0.635   1.372   1.013  0.00  0.00    -0.159 NA
ATOM     20  N   UNL     1       0.561  -0.008   0.847  0.00  0.00    -0.171 N 
ATOM     21  C   UNL     1      -0.560  -0.755   0.627  0.00  0.00    +0.275 A 
ATOM     22  O   UNL     1      -1.653  -0.213   0.558  0.00  0.00    -0.266 OA
ATOM     23  C   UNL     1      -0.457  -2.139   0.482  0.00  0.00    +0.096 A 
ATOM     24  C   UNL     1       0.779  -2.744   0.561  0.00  0.00    +0.060 A 
ATOM     25  N   UNL     1       1.852  -1.987   0.777  0.00  0.00    -0.225 NA
ATOM     26  C   UNL     1       1.746  -0.689   0.912  0.00  0.00    +0.199 A 
ATOM     27  S   UNL     1       2.923   0.613   1.202  0.00  0.00    -0.033 S 
BRANCH  18  29
ATOM     28  C   UNL     1       0.717   4.217   1.347  0.00  0.00    +0.011 C 
ATOM     29  C   UNL     1       2.035   3.443   1.417  0.00  0.00    +0.061 C 
ENDBRANCH  18  29
ENDBRANCH  17  24
ENDBRANCH  16  17
ENDBRANCH   1  16
TORSDOF 7
