REMARK  Name = ZINC59292286
REMARK  8 active torsions:
REMARK  status: ('A' for Active; 'I' for Inactive)
REMARK    1  A    between atoms: C_1  and  C_2
REMARK    2  A    between atoms: C_2  and  N_3
REMARK    3  A    between atoms: N_3  and  C_4
REMARK    4  A    between atoms: C_4  and  C_5
REMARK    5  A    between atoms: N_18  and  C_19
REMARK    6  A    between atoms: N_22  and  C_25
REMARK    7  A    between atoms: C_25  and  C_26
REMARK    8  A    between atoms: N_28  and  C_29
REMARK                            x       y       z     vdW  Elec       q    Type
REMARK                         _______ _______ _______ _____ _____    ______ ____
ROOT
ATOM      1  N   UNL     1       0.693  -0.475  -1.211  0.00  0.00    -0.282 N 
ATOM      2  C   UNL     1      -0.008  -0.700  -2.340  0.00  0.00    +0.303 C 
ATOM      3  O   UNL     1       0.562  -1.084  -3.343  0.00  0.00    -0.253 OA
ATOM      4  N   UNL     1      -1.340  -0.498  -2.357  0.00  0.00    -0.297 N 
ATOM      5  H   UNL     1      -1.795  -0.192  -1.557  0.00  0.00    +0.151 HD
ENDROOT
BRANCH   4   6
ATOM      6  C   UNL     1      -2.102  -0.742  -3.584  0.00  0.00    +0.071 C 
ATOM      7  C   UNL     1      -2.060   0.506  -4.470  0.00  0.00    +0.004 C 
ATOM      8  C   UNL     1      -2.922   0.273  -5.713  0.00  0.00    -0.076 C 
ATOM      9  N   UNL     1      -4.308   0.005  -5.308  0.00  0.00    +0.386 N 
ATOM     10  C   UNL     1      -4.366  -1.230  -4.518  0.00  0.00    -0.076 C 
ATOM     11  C   UNL     1      -3.559  -1.055  -3.229  0.00  0.00    +0.004 C 
ATOM     12  H   UNL     1      -4.649   0.775  -4.752  0.00  0.00    -0.081 HD
BRANCH   9  13
ATOM     13  C   UNL     1      -5.146  -0.141  -6.505  0.00  0.00    +0.019 C 
BRANCH  13  14
ATOM     14  C   UNL     1      -6.588  -0.293  -6.092  0.00  0.00    +0.201 C 
ATOM     15  O   UNL     1      -6.887  -0.281  -4.917  0.00  0.00    -0.278 OA
ATOM     16  N   UNL     1      -7.545  -0.442  -7.030  0.00  0.00    -0.287 N 
ATOM     17  H   UNL     1      -7.315  -0.385  -7.970  0.00  0.00    +0.155 HD
BRANCH  16  18
ATOM     18  C   UNL     1      -8.869  -0.680  -6.646  0.00  0.00    +0.033 A 
ATOM     19  C   UNL     1      -9.379  -0.085  -5.499  0.00  0.00    +0.023 A 
ATOM     20  C   UNL     1     -10.687  -0.323  -5.123  0.00  0.00    +0.002 A 
ATOM     21  C   UNL     1     -11.488  -1.152  -5.886  0.00  0.00    +0.000 A 
ATOM     22  C   UNL     1     -10.983  -1.746  -7.028  0.00  0.00    +0.002 A 
ATOM     23  C   UNL     1      -9.678  -1.508  -7.413  0.00  0.00    +0.023 A 
ENDBRANCH  16  18
ENDBRANCH  13  14
ENDBRANCH   9  13
ENDBRANCH   4   6
BRANCH   1  25
ATOM     24  C   UNL     1      -0.021   1.518   0.015  0.00  0.00    +0.024 C 
ATOM     25  C   UNL     1       0.006  -0.012  -0.002  0.00  0.00    +0.106 C 
ENDBRANCH   1  25
BRANCH   1  26
ATOM     26  C   UNL     1       2.142  -0.694  -1.192  0.00  0.00    +0.157 C 
BRANCH  26  27
ATOM     27  C   UNL     1       2.434  -2.138  -0.782  0.00  0.00    +0.228 C 
ATOM     28  C   UNL     1       3.950  -2.370  -0.746  0.00  0.00    +0.275 C 
ATOM     29  O   UNL     1       4.188  -3.724  -0.346  0.00  0.00    -0.485 OA
ATOM     30  C   UNL     1       3.480  -4.178   0.723  0.00  0.00    +0.162 A 
ATOM     31  C   UNL     1       3.904  -5.322   1.384  0.00  0.00    +0.049 A 
ATOM     32  C   UNL     1       3.193  -5.798   2.470  0.00  0.00    +0.004 A 
ATOM     33  C   UNL     1       2.058  -5.136   2.900  0.00  0.00    +0.004 A 
ATOM     34  C   UNL     1       1.631  -3.996   2.246  0.00  0.00    +0.049 A 
ATOM     35  C   UNL     1       2.340  -3.512   1.157  0.00  0.00    +0.163 A 
ATOM     36  O   UNL     1       1.911  -2.383   0.529  0.00  0.00    -0.480 OA
ENDBRANCH  26  27
ENDBRANCH   1  26
TORSDOF 7
