REMARK  Name = ZINC11338537
REMARK  11 active torsions:
REMARK  status: ('A' for Active; 'I' for Inactive)
REMARK    1  A    between atoms: C_1  and  C_2
REMARK    2  A    between atoms: C_8  and  N_10
REMARK    3  A    between atoms: C_11  and  C_13
REMARK    4  A    between atoms: C_13  and  N_14
REMARK    5  A    between atoms: N_14  and  C_15
REMARK    6  A    between atoms: N_14  and  C_23
REMARK    7  A    between atoms: C_15  and  C_16
REMARK    8  A    between atoms: C_16  and  C_17
REMARK    9  A    between atoms: C_24  and  N_39
REMARK   10  A    between atoms: N_25  and  C_32
REMARK   11  A    between atoms: C_32  and  C_33
REMARK                            x       y       z     vdW  Elec       q    Type
REMARK                         _______ _______ _______ _____ _____    ______ ____
ROOT
ATOM      1  N   UNL     1      -2.510   6.774  -3.953  0.00  0.00    -0.314 N 
ENDROOT
BRANCH   1   2
ATOM      2  C   UNL     1      -1.431   6.349  -3.143  0.00  0.00    +0.134 A 
ATOM      3  C   UNL     1      -1.650   5.929  -1.859  0.00  0.00    +0.127 A 
ATOM      4  N   UNL     1      -0.583   5.519  -1.091  0.00  0.00    -0.276 N 
ATOM      5  C   UNL     1       0.664   5.537  -1.596  0.00  0.00    +0.331 A 
ATOM      6  O   UNL     1       1.596   5.177  -0.901  0.00  0.00    -0.246 OA
ATOM      7  N   UNL     1       0.897   5.942  -2.857  0.00  0.00    -0.273 N 
ATOM      8  H   UNL     1       1.831   5.939  -3.214  0.00  0.00    +0.173 HD
ATOM      9  C   UNL     1      -0.117   6.351  -3.645  0.00  0.00    +0.277 A 
ATOM     10  O   UNL     1       0.103   6.721  -4.786  0.00  0.00    -0.266 OA
BRANCH   3  11
ATOM     11  N   UNL     1      -2.925   5.915  -1.340  0.00  0.00    -0.343 N 
ATOM     12  H   UNL     1      -3.075   5.616  -0.430  0.00  0.00    +0.144 HD
ATOM     13  H   UNL     1      -3.673   6.204  -1.885  0.00  0.00    +0.144 HD
ENDBRANCH   3  11
BRANCH   4  14
ATOM     14  C   UNL     1      -0.806   5.068   0.284  0.00  0.00    +0.163 C 
BRANCH  14  15
ATOM     15  C   UNL     1      -1.058   3.582   0.291  0.00  0.00    -0.028 A 
ATOM     16  C   UNL     1       0.000   2.702   0.419  0.00  0.00    +0.005 A 
ATOM     17  C   UNL     1      -0.231   1.339   0.425  0.00  0.00    +0.000 A 
ATOM     18  C   UNL     1      -1.521   0.856   0.304  0.00  0.00    +0.000 A 
ATOM     19  C   UNL     1      -2.579   1.736   0.170  0.00  0.00    +0.000 A 
ATOM     20  C   UNL     1      -2.348   3.099   0.169  0.00  0.00    +0.005 A 
ENDBRANCH  14  15
ENDBRANCH   4  14
ENDBRANCH   1   2
BRANCH   1  21
ATOM     21  C   UNL     1      -2.681   5.886  -5.110  0.00  0.00    +0.201 C 
BRANCH  21  23
ATOM     22  N   UNL     1      -4.378   5.487  -6.865  0.00  0.00    -0.311 N 
ATOM     23  C   UNL     1      -4.043   6.106  -5.716  0.00  0.00    +0.231 C 
ATOM     24  O   UNL     1      -4.838   6.841  -5.169  0.00  0.00    -0.274 OA
ATOM     25  H   UNL     1      -3.742   4.899  -7.302  0.00  0.00    +0.149 HD
BRANCH  22  32
ATOM     26  C   UNL     1      -4.634   6.404  -9.600  0.00  0.00    +0.009 C 
ATOM     27  C   UNL     1      -5.638   5.443  -8.960  0.00  0.00    +0.006 C 
ATOM     28  C   UNL     1      -7.021   5.668  -9.575  0.00  0.00    +0.005 C 
ATOM     29  C   UNL     1      -8.025   4.707  -8.935  0.00  0.00    +0.000 C 
ATOM     30  C   UNL     1      -8.089   4.964  -7.429  0.00  0.00    +0.002 C 
ATOM     31  C   UNL     1      -6.706   4.740  -6.814  0.00  0.00    +0.022 C 
ATOM     32  C   UNL     1      -5.702   5.701  -7.453  0.00  0.00    +0.076 C 
ENDBRANCH  22  32
ENDBRANCH  21  23
ENDBRANCH   1  21
BRANCH   1  33
ATOM     33  C   UNL     1      -2.329   8.167  -4.380  0.00  0.00    +0.110 C 
BRANCH  33  34
ATOM     34  C   UNL     1      -2.642   9.104  -3.212  0.00  0.00    +0.049 C 
BRANCH  34  35
ATOM     35  C   UNL     1      -2.579  10.534  -3.683  0.00  0.00    -0.072 C 
ATOM     36  C   UNL     1      -3.683  11.103  -4.046  0.00  0.00    -0.028 C 
ATOM     37  C   UNL     1      -3.778  12.514  -4.546  0.00  0.00    +0.027 C 
ATOM     38  C   UNL     1      -2.514  13.292  -4.171  0.00  0.00    +0.004 C 
ATOM     39  C   UNL     1      -1.293  12.461  -4.582  0.00  0.00    +0.005 C 
ATOM     40  C   UNL     1      -1.240  11.212  -3.697  0.00  0.00    +0.030 C 
ENDBRANCH  34  35
ENDBRANCH  33  34
ENDBRANCH   1  33
TORSDOF 10
