REMARK  Name = ZINC29543674
REMARK  9 active torsions:
REMARK  status: ('A' for Active; 'I' for Inactive)
REMARK    1  A    between atoms: C_1  and  C_2
REMARK    2  A    between atoms: C_2  and  C_3
REMARK    3  A    between atoms: C_2  and  C_4
REMARK    4  A    between atoms: C_4  and  N_5
REMARK    5  A    between atoms: C_9  and  C_12
REMARK    6  A    between atoms: C_12  and  N_13
REMARK    7  A    between atoms: C_14  and  C_16
REMARK    8  A    between atoms: C_20  and  S_22
REMARK    9  A    between atoms: S_22  and  C_23
REMARK                            x       y       z     vdW  Elec       q    Type
REMARK                         _______ _______ _______ _____ _____    ______ ____
ROOT
ATOM      1  N   UNL     1      -2.438  -0.444   0.217  0.00  0.00    -0.308 N 
ATOM      2  C   UNL     1      -1.291  -1.151   0.253  0.00  0.00    +0.264 C 
ATOM      3  O   UNL     1      -1.326  -2.365   0.270  0.00  0.00    -0.268 OA
ATOM      4  H   UNL     1      -2.406   0.655   0.203  0.00  0.00    +0.149 HD
ENDROOT
BRANCH   2   5
ATOM      5  C   UNL     1       0.015  -0.446   0.273  0.00  0.00    +0.148 A 
ATOM      6  C   UNL     1       1.210  -1.168   0.310  0.00  0.00    +0.090 A 
ATOM      7  C   UNL     1       2.407  -0.464   0.327  0.00  0.00    +0.136 A 
ATOM      8  N   UNL     1       2.379   0.857   0.307  0.00  0.00    -0.229 NA
ATOM      9  C   UNL     1       1.228   1.515   0.272  0.00  0.00    +0.189 A 
ATOM     10  N   UNL     1       0.065   0.883   0.255  0.00  0.00    -0.216 NA
ATOM     11 CL   UNL     1       1.199  -2.904   0.335  0.00  0.00    -0.080 Cl
BRANCH   9  12
ATOM     12  S   UNL     1       1.247   3.276   0.248  0.00  0.00    -0.089 S 
ATOM     13  C   UNL     1       3.033   3.571   0.283  0.00  0.00    +0.093 C 
ENDBRANCH   9  12
ENDBRANCH   2   5
BRANCH   1  14
ATOM     14  C   UNL     1      -3.727  -1.140   0.198  0.00  0.00    +0.137 C 
BRANCH  14  19
ATOM     15  N   UNL     1      -7.293   0.152   0.177  0.00  0.00    -0.297 NA
ATOM     16  C   UNL     1      -7.190   0.990   1.380  0.00  0.00    +0.112 C 
ATOM     17  C   UNL     1      -5.833   1.698   1.388  0.00  0.00    +0.175 C 
ATOM     18  O   UNL     1      -4.791   0.721   1.318  0.00  0.00    -0.372 OA
ATOM     19  C   UNL     1      -4.860  -0.113   0.158  0.00  0.00    +0.149 C 
ATOM     20  C   UNL     1      -6.208  -0.839   0.138  0.00  0.00    +0.117 C 
BRANCH  15  21
ATOM     21  C   UNL     1      -8.606  -0.502   0.102  0.00  0.00    +0.087 C 
BRANCH  21  23
ATOM     22  C   UNL     1     -10.099  -1.919  -1.315  0.00  0.00    +0.008 C 
ATOM     23  C   UNL     1      -8.766  -1.169  -1.266  0.00  0.00    -0.003 C 
ATOM     24  C   UNL     1      -8.742  -0.101  -2.361  0.00  0.00    +0.008 C 
ENDBRANCH  21  23
ENDBRANCH  15  21
ENDBRANCH  14  19
ENDBRANCH   1  14
TORSDOF 6
