REMARK  Name = ZINC35369249
REMARK  12 active torsions:
REMARK  status: ('A' for Active; 'I' for Inactive)
REMARK    1  A    between atoms: C_1  and  C_2
REMARK    2  A    between atoms: C_2  and  O_3
REMARK    3  A    between atoms: O_3  and  C_4
REMARK    4  A    between atoms: C_4  and  C_6
REMARK    5  A    between atoms: C_7  and  N_17
REMARK    6  A    between atoms: C_18  and  C_20
REMARK    7  A    between atoms: C_20  and  C_22
REMARK    8  A    between atoms: C_20  and  N_23
REMARK    9  A    between atoms: N_26  and  C_31
REMARK   10  A    between atoms: C_27  and  C_30
REMARK   11  A    between atoms: C_35  and  O_37
REMARK   12  A    between atoms: O_37  and  C_38
REMARK                            x       y       z     vdW  Elec       q    Type
REMARK                         _______ _______ _______ _____ _____    ______ ____
ROOT
ATOM      1  N   UNL     1      -1.875  -2.899   0.437  0.00  0.00    -0.284 N 
ATOM      2  C   UNL     1      -0.862  -3.554   1.040  0.00  0.00    +0.203 C 
ATOM      3  O   UNL     1      -0.539  -3.260   2.172  0.00  0.00    -0.277 OA
ATOM      4  H   UNL     1      -2.173  -3.174  -0.444  0.00  0.00    +0.155 HD
ENDROOT
BRANCH   1   6
ATOM      5  C   UNL     1      -3.030  -0.710   0.481  0.00  0.00    +0.147 A 
ATOM      6  C   UNL     1      -2.492  -1.831   1.079  0.00  0.00    +0.073 A 
ATOM      7  C   UNL     1      -2.697  -1.676   2.521  0.00  0.00    +0.024 A 
ATOM      8  C   UNL     1      -2.376  -2.467   3.629  0.00  0.00    +0.050 A 
ATOM      9  C   UNL     1      -2.711  -2.038   4.894  0.00  0.00    +0.124 A 
ATOM     10  C   UNL     1      -3.365  -0.824   5.073  0.00  0.00    +0.040 A 
ATOM     11  C   UNL     1      -3.688  -0.034   3.993  0.00  0.00    +0.029 A 
ATOM     12  C   UNL     1      -3.359  -0.448   2.704  0.00  0.00    +0.049 A 
ATOM     13  N   UNL     1      -3.545   0.122   1.464  0.00  0.00    -0.348 N 
ATOM     14  H   UNL     1      -3.975   0.976   1.303  0.00  0.00    +0.166 HD
ATOM     15  F   UNL     1      -2.403  -2.800   5.966  0.00  0.00    -0.205 F 
BRANCH   5  16
ATOM     16  C   UNL     1      -3.048  -0.448  -0.913  0.00  0.00    +0.358 C 
ATOM     17  O   UNL     1      -2.541  -1.237  -1.687  0.00  0.00    -0.243 OA
BRANCH  16  18
ATOM     18  O   UNL     1      -3.628   0.678  -1.380  0.00  0.00    -0.460 OA
BRANCH  18  20
ATOM     19  C   UNL     1      -4.309   2.196  -3.133  0.00  0.00    +0.048 C 
ATOM     20  C   UNL     1      -3.610   0.878  -2.795  0.00  0.00    +0.229 C 
ENDBRANCH  18  20
ENDBRANCH  16  18
ENDBRANCH   5  16
ENDBRANCH   1   6
BRANCH   2  21
ATOM     21  C   UNL     1      -0.132  -4.650   0.308  0.00  0.00    +0.017 C 
ATOM     22  C   UNL     1      -0.913  -5.959   0.439  0.00  0.00    -0.004 C 
BRANCH  21  23
ATOM     23  N   UNL     1       1.207  -4.818   0.889  0.00  0.00    +0.389 N 
ATOM     24  C   UNL     1       1.972  -3.576   0.721  0.00  0.00    -0.059 C 
ATOM     25  C   UNL     1       3.325  -3.711   1.426  0.00  0.00    +0.087 C 
ATOM     26  N   UNL     1       4.000  -4.913   0.913  0.00  0.00    -0.331 N 
ATOM     27  C   UNL     1       3.246  -6.176   0.892  0.00  0.00    +0.054 C 
ATOM     28  C   UNL     1       1.896  -5.924   0.213  0.00  0.00    -0.055 C 
ATOM     29  C   UNL     1       4.032  -7.231   0.111  0.00  0.00    +0.026 C 
ATOM     30  H   UNL     1       1.122  -5.027   1.872  0.00  0.00    -0.081 HD
BRANCH  26  31
ATOM     31  C   UNL     1       5.320  -4.857   0.458  0.00  0.00    +0.033 A 
ATOM     32  C   UNL     1       5.593  -4.422  -0.833  0.00  0.00    +0.023 A 
ATOM     33  C   UNL     1       6.897  -4.366  -1.283  0.00  0.00    +0.005 A 
ATOM     34  C   UNL     1       7.935  -4.742  -0.450  0.00  0.00    +0.046 A 
ATOM     35  C   UNL     1       7.668  -5.177   0.841  0.00  0.00    +0.122 A 
ATOM     36  C   UNL     1       6.361  -5.229   1.298  0.00  0.00    +0.068 A 
BRANCH  35  37
ATOM     37  O   UNL     1       8.689  -5.546   1.658  0.00  0.00    -0.495 OA
ATOM     38  C   UNL     1      10.012  -5.462   1.123  0.00  0.00    +0.277 C 
ENDBRANCH  35  37
ENDBRANCH  26  31
ENDBRANCH  21  23
ENDBRANCH   2  21
TORSDOF 8
