REMARK  Name = ZINC34426691
REMARK  6 active torsions:
REMARK  status: ('A' for Active; 'I' for Inactive)
REMARK    1  A    between atoms: C_6  and  N_7
REMARK    2  A    between atoms: C_9  and  C_20
REMARK    3  A    between atoms: C_14  and  C_16
REMARK    4  A    between atoms: N_23  and  C_26
REMARK    5  A    between atoms: C_26  and  C_27
REMARK    6  A    between atoms: C_27  and  N_28
REMARK                            x       y       z     vdW  Elec       q    Type
REMARK                         _______ _______ _______ _____ _____    ______ ____
ROOT
ATOM      1  N   UNL     1      -1.201  -0.722   0.010  0.00  0.00    -0.315 N 
ATOM      2  C   UNL     1      -2.235  -0.505   0.876  0.00  0.00    +0.100 A 
ATOM      3  C   UNL     1      -3.245  -1.373   0.610  0.00  0.00    +0.003 A 
ATOM      4  C   UNL     1      -2.801  -2.204  -0.522  0.00  0.00    +0.008 A 
ATOM      5  C   UNL     1      -1.516  -1.747  -0.859  0.00  0.00    +0.054 A 
ATOM      6  C   UNL     1      -0.832  -2.346  -1.912  0.00  0.00    +0.027 A 
ATOM      7  C   UNL     1      -1.418  -3.376  -2.615  0.00  0.00    +0.014 A 
ATOM      8  C   UNL     1      -2.689  -3.824  -2.284  0.00  0.00    +0.056 A 
ATOM      9  C   UNL     1      -3.379  -3.250  -1.239  0.00  0.00    +0.023 A 
ENDROOT
BRANCH   1  15
ATOM     10  C   UNL     1      -0.017   1.384   0.010  0.00  0.00    +0.029 A 
ATOM     11  C   UNL     1       1.170   2.090   0.002  0.00  0.00    +0.040 A 
ATOM     12  C   UNL     1       2.379   1.414  -0.013  0.00  0.00    +0.124 A 
ATOM     13  C   UNL     1       2.400   0.029  -0.022  0.00  0.00    +0.040 A 
ATOM     14  C   UNL     1       1.215  -0.680  -0.014  0.00  0.00    +0.029 A 
ATOM     15  C   UNL     1       0.002  -0.004   0.002  0.00  0.00    +0.047 A 
ATOM     16  F   UNL     1       3.539   2.106  -0.021  0.00  0.00    -0.205 F 
ENDBRANCH   1  15
BRANCH   3  17
ATOM     17  C   UNL     1      -4.537  -1.466   1.317  0.00  0.00    -0.046 C 
ATOM     18  C   UNL     1      -5.619  -1.001   0.728  0.00  0.00    -0.041 C 
ATOM     19  C   UNL     1      -6.978  -1.043   1.365  0.00  0.00    -0.051 C 
ATOM     20  N   UNL     1      -6.998  -2.017   2.463  0.00  0.00    +0.383 N 
ATOM     21  C   UNL     1      -5.886  -1.726   3.381  0.00  0.00    -0.074 C 
ATOM     22  C   UNL     1      -4.572  -2.094   2.684  0.00  0.00    +0.017 C 
ATOM     23  H   UNL     1      -6.894  -2.949   2.090  0.00  0.00    -0.081 HD
BRANCH  20  24
ATOM     24  C   UNL     1      -8.272  -1.915   3.187  0.00  0.00    -0.059 C 
BRANCH  24  25
ATOM     25  C   UNL     1      -9.419  -2.327   2.261  0.00  0.00    +0.091 C 
BRANCH  25  26
ATOM     26  N   UNL     1     -10.690  -2.225   2.983  0.00  0.00    -0.286 N 
ATOM     27  C   UNL     1     -11.311  -3.301   3.771  0.00  0.00    +0.128 C 
ATOM     28  C   UNL     1     -12.610  -2.666   4.303  0.00  0.00    +0.124 C 
ATOM     29  N   UNL     1     -12.583  -1.300   3.760  0.00  0.00    -0.298 N 
ATOM     30  C   UNL     1     -11.468  -1.136   3.036  0.00  0.00    +0.302 C 
ATOM     31  O   UNL     1     -11.189  -0.095   2.475  0.00  0.00    -0.253 OA
ATOM     32  H   UNL     1     -13.262  -0.624   3.906  0.00  0.00    +0.150 HD
ENDBRANCH  25  26
ENDBRANCH  24  25
ENDBRANCH  20  24
ENDBRANCH   3  17
BRANCH   8  33
ATOM     33  C   UNL     1      -3.313  -4.951  -3.066  0.00  0.00    +0.417 C 
ATOM     34  F   UNL     1      -2.428  -5.374  -4.062  0.00  0.00    -0.166 F 
ATOM     35  F   UNL     1      -3.591  -6.018  -2.205  0.00  0.00    -0.166 F 
ATOM     36  F   UNL     1      -4.502  -4.507  -3.656  0.00  0.00    -0.166 F 
ENDBRANCH   8  33
TORSDOF 6
