REMARK  Name = ZINC39916076
REMARK  5 active torsions:
REMARK  status: ('A' for Active; 'I' for Inactive)
REMARK    1  A    between atoms: C_1  and  C_2
REMARK    2  A    between atoms: C_2  and  C_25
REMARK    3  A    between atoms: C_6  and  C_17
REMARK    4  A    between atoms: C_13  and  S_15
REMARK    5  A    between atoms: S_15  and  C_16
REMARK                            x       y       z     vdW  Elec       q    Type
REMARK                         _______ _______ _______ _____ _____    ______ ____
ROOT
ATOM      1  C   UNL     1       0.756   1.451   0.241  0.00  0.00    +0.011 C 
ATOM      2  C   UNL     1       0.561  -0.064   0.166  0.00  0.00    -0.023 C 
ATOM      3  C   UNL     1      -0.931  -0.395   0.254  0.00  0.00    +0.057 C 
ATOM      4  C   UNL     1      -1.121  -1.890   0.246  0.00  0.00    +0.015 C 
ATOM      5  C   UNL     1      -0.176  -2.720   0.744  0.00  0.00    +0.035 C 
ATOM      6  C   UNL     1      -0.356  -4.228   0.720  0.00  0.00    +0.142 C 
ATOM      7  N   UNL     1      -1.368  -4.541  -0.274  0.00  0.00    -0.176 NA
ATOM      8  C   UNL     1      -2.606  -3.771   0.076  0.00  0.00    +0.284 C 
ATOM      9  N   UNL     1      -2.301  -2.386  -0.270  0.00  0.00    -0.312 N 
ATOM     10  N   UNL     1      -3.583  -4.440  -0.784  0.00  0.00    -0.223 NA
ATOM     11  C   UNL     1      -3.104  -5.654  -0.981  0.00  0.00    +0.166 C 
ATOM     12  N   UNL     1      -1.882  -5.801  -0.329  0.00  0.00    -0.253 N 
ATOM     13  C   UNL     1       1.010  -2.215   1.297  0.00  0.00    +0.163 C 
ATOM     14  O   UNL     1       1.835  -2.985   1.747  0.00  0.00    -0.292 OA
ATOM     15  C   UNL     1       1.278  -0.735   1.342  0.00  0.00    +0.086 C 
ATOM     16  C   UNL     1       1.131  -0.591  -1.153  0.00  0.00    +0.011 C 
ATOM     17  H   UNL     1      -2.888  -1.850  -0.826  0.00  0.00    +0.149 HD
ATOM     18  H   UNL     1      -1.486  -6.618   0.011  0.00  0.00    +0.169 HD
ENDROOT
BRANCH   6  19
ATOM     19  C   UNL     1      -0.805  -4.711   2.075  0.00  0.00    -0.026 C 
ATOM     20  C   UNL     1      -1.941  -5.341   2.367  0.00  0.00    +0.020 C 
ATOM     21  C   UNL     1      -1.984  -5.632   3.800  0.00  0.00    +0.078 C 
ATOM     22  N   UNL     1      -0.919  -5.204   4.393  0.00  0.00    -0.386 N 
ATOM     23  C   UNL     1      -0.053  -4.583   3.382  0.00  0.00    +0.145 C 
ATOM     24  H   UNL     1      -0.724  -5.283   5.340  0.00  0.00    +0.159 HD
ENDBRANCH   6  19
BRANCH  11  25
ATOM     25  S   UNL     1      -3.895  -6.908  -1.933  0.00  0.00    -0.093 S 
ATOM     26  C   UNL     1      -5.423  -6.120  -2.513  0.00  0.00    +0.093 C 
ENDBRANCH  11  25
TORSDOF 2
