REMARK  Name = ZINC03282634
REMARK  8 active torsions:
REMARK  status: ('A' for Active; 'I' for Inactive)
REMARK    1  A    between atoms: C_1  and  N_54
REMARK    2  A    between atoms: C_2  and  N_54
REMARK    3  A    between atoms: C_3  and  C_5
REMARK    4  A    between atoms: C_3  and  C_24
REMARK    5  A    between atoms: C_3  and  N_54
REMARK    6  A    between atoms: C_5  and  C_6
REMARK    7  A    between atoms: C_13  and  C_17
REMARK    8  A    between atoms: C_24  and  C_26
REMARK                            x       y       z     vdW  Elec       q    Type
REMARK                         _______ _______ _______ _____ _____    ______ ____
ROOT
ATOM      1  C   UNL     1       2.585   4.668  -0.199  0.00  0.00    -0.004 A 
ATOM      2  C   UNL     1       2.250   5.208  -1.426  0.00  0.00    +0.045 A 
ATOM      3  C   UNL     1       1.207   6.113  -1.523  0.00  0.00    +0.124 A 
ATOM      4  C   UNL     1       0.499   6.479  -0.391  0.00  0.00    +0.047 A 
ATOM      5  C   UNL     1       0.833   5.941   0.839  0.00  0.00    +0.023 A 
ATOM      6  C   UNL     1       1.876   5.033   0.936  0.00  0.00    +0.133 A 
ATOM      7  O   UNL     1       2.211   4.493   2.139  0.00  0.00    -0.459 OA
ATOM      8  C   UNL     1       1.713   5.154   3.306  0.00  0.00    +0.340 C 
ATOM      9  O   UNL     1       0.317   5.420   3.121  0.00  0.00    -0.333 OA
ATOM     10  C   UNL     1       0.060   6.352   2.066  0.00  0.00    +0.203 C 
ATOM     11  F   UNL     1       0.879   6.639  -2.723  0.00  0.00    -0.205 F 
ENDROOT
BRANCH   8  12
ATOM     12  C   UNL     1       1.904   4.268   4.510  0.00  0.00    +0.020 A 
ATOM     13  C   UNL     1       2.362   2.974   4.349  0.00  0.00    +0.010 A 
ATOM     14  C   UNL     1       2.541   2.162   5.454  0.00  0.00    +0.000 A 
ATOM     15  C   UNL     1       2.254   2.642   6.718  0.00  0.00    +0.000 A 
ATOM     16  C   UNL     1       1.790   3.934   6.878  0.00  0.00    +0.000 A 
ATOM     17  C   UNL     1       1.615   4.747   5.774  0.00  0.00    +0.010 A 
ENDBRANCH   8  12
BRANCH   1  18
ATOM     18  C   UNL     1       3.721   3.684  -0.094  0.00  0.00    +0.031 C 
BRANCH  18  19
ATOM     19  C   UNL     1       4.354   3.487  -1.473  0.00  0.00    +0.008 C 
BRANCH  19  22
ATOM     20  C   UNL     1       3.990   2.556  -3.678  0.00  0.00    -0.096 C 
ATOM     21  C   UNL     1       2.866   1.599  -1.760  0.00  0.00    -0.096 C 
ATOM     22  N   UNL     1       3.368   2.848  -2.370  0.00  0.00    +0.383 N 
ATOM     23  H   UNL     1       2.580   3.490  -2.511  0.00  0.00    -0.082 HD
ENDBRANCH  19  22
BRANCH  19  24
ATOM     24  C   UNL     1       5.585   2.627  -1.342  0.00  0.00    +0.150 C 
ATOM     25  O   UNL     1       5.533   1.448  -1.619  0.00  0.00    -0.294 OA
BRANCH  24  26
ATOM     26  C   UNL     1       6.850   3.219  -0.879  0.00  0.00    +0.016 A 
ATOM     27  C   UNL     1       6.916   4.580  -0.564  0.00  0.00    +0.011 A 
ATOM     28  C   UNL     1       8.104   5.126  -0.126  0.00  0.00    +0.001 A 
ATOM     29  C   UNL     1       9.232   4.332  -0.007  0.00  0.00    +0.000 A 
ATOM     30  C   UNL     1       9.176   2.986  -0.321  0.00  0.00    +0.001 A 
ATOM     31  C   UNL     1       7.994   2.424  -0.756  0.00  0.00    +0.011 A 
ENDBRANCH  24  26
ENDBRANCH  19  24
ENDBRANCH  18  19
ENDBRANCH   1  18
TORSDOF 6
