REMARK  Name = ZINC35035901
REMARK  6 active torsions:
REMARK  status: ('A' for Active; 'I' for Inactive)
REMARK    1  A    between atoms: C_1  and  C_2
REMARK    2  A    between atoms: C_2  and  C_4
REMARK    3  A    between atoms: C_2  and  N_17
REMARK    4  A    between atoms: N_14  and  C_15
REMARK    5  A    between atoms: N_17  and  C_18
REMARK    6  A    between atoms: N_21  and  C_22
REMARK                            x       y       z     vdW  Elec       q    Type
REMARK                         _______ _______ _______ _____ _____    ______ ____
ROOT
ATOM      1  C   UNL     1      -0.113   1.788   0.091  0.00  0.00    +0.036 C 
ATOM      2  C   UNL     1       0.106   0.278  -0.022  0.00  0.00    +0.140 C 
ENDROOT
BRANCH   2   3
ATOM      3  C   UNL     1      -1.228  -0.419  -0.095  0.00  0.00    +0.133 A 
ATOM      4  N   UNL     1      -2.071  -0.042  -1.008  0.00  0.00    -0.232 NA
ATOM      5  C   UNL     1      -3.290  -0.624  -1.134  0.00  0.00    +0.078 A 
ATOM      6  C   UNL     1      -4.196  -0.219  -2.116  0.00  0.00    +0.030 A 
ATOM      7  C   UNL     1      -5.423  -0.837  -2.208  0.00  0.00    +0.022 A 
ATOM      8  C   UNL     1      -5.772  -1.860  -1.335  0.00  0.00    +0.042 A 
ATOM      9  C   UNL     1      -4.894  -2.277  -0.357  0.00  0.00    +0.035 A 
ATOM     10  C   UNL     1      -3.647  -1.664  -0.248  0.00  0.00    +0.066 A 
ATOM     11  C   UNL     1      -2.670  -2.067   0.774  0.00  0.00    +0.262 A 
ATOM     12  O   UNL     1      -2.915  -2.956   1.569  0.00  0.00    -0.267 OA
ATOM     13  N   UNL     1      -1.485  -1.413   0.795  0.00  0.00    -0.298 N 
ATOM     14  C   UNL     1      -0.472  -1.778   1.789  0.00  0.00    +0.154 C 
ATOM     15 CL   UNL     1      -7.327  -2.620  -1.476  0.00  0.00    -0.084 Cl
ENDBRANCH   2   3
BRANCH   2  16
ATOM     16  N   UNL     1       0.877  -0.014  -1.233  0.00  0.00    -0.279 N 
ATOM     17  C   UNL     1       0.350   0.367  -2.546  0.00  0.00    +0.134 C 
ATOM     18  C   UNL     1       2.070  -0.632  -1.139  0.00  0.00    +0.307 C 
ATOM     19  O   UNL     1       2.508  -0.948  -0.050  0.00  0.00    -0.252 OA
ATOM     20  N   UNL     1       2.779  -0.901  -2.254  0.00  0.00    -0.268 N 
ATOM     21  H   UNL     1       2.397  -0.722  -3.127  0.00  0.00    +0.156 HD
BRANCH  20  22
ATOM     22  C   UNL     1       4.068  -1.438  -2.151  0.00  0.00    +0.049 A 
ATOM     23  C   UNL     1       4.385  -2.289  -1.100  0.00  0.00    +0.024 A 
ATOM     24  C   UNL     1       5.657  -2.818  -1.002  0.00  0.00    +0.002 A 
ATOM     25  C   UNL     1       6.615  -2.502  -1.948  0.00  0.00    +0.001 A 
ATOM     26  C   UNL     1       6.303  -1.655  -2.995  0.00  0.00    +0.017 A 
ATOM     27  C   UNL     1       5.030  -1.126  -3.103  0.00  0.00    +0.039 A 
ATOM     28 BR   UNL     1       4.602   0.026  -4.540  0.00  0.00    -0.048 Br
ENDBRANCH  20  22
ENDBRANCH   2  16
TORSDOF 3
