REMARK  Name = ZINC14234192
REMARK  8 active torsions:
REMARK  status: ('A' for Active; 'I' for Inactive)
REMARK    1  A    between atoms: C_1  and  C_2
REMARK    2  A    between atoms: C_5  and  C_8
REMARK    3  A    between atoms: C_8  and  C_9
REMARK    4  A    between atoms: C_9  and  C_10
REMARK    5  A    between atoms: C_15  and  N_16
REMARK    6  A    between atoms: C_15  and  N_62
REMARK    7  A    between atoms: N_19  and  C_30
REMARK    8  A    between atoms: C_20  and  C_22
REMARK                            x       y       z     vdW  Elec       q    Type
REMARK                         _______ _______ _______ _____ _____    ______ ____
ROOT
ATOM      1  C   UNL     1       3.942   6.165  -3.809  0.00  0.00    -0.014 C 
ATOM      2  C   UNL     1       5.187   6.229  -2.921  0.00  0.00    -0.015 C 
ATOM      3  C   UNL     1       4.796   5.905  -1.478  0.00  0.00    -0.076 C 
ATOM      4  C   UNL     1       2.976   4.492  -2.228  0.00  0.00    -0.076 C 
ATOM      5  C   UNL     1       3.313   4.774  -3.694  0.00  0.00    -0.015 C 
ATOM      6  N   UNL     1       4.220   4.544  -1.431  0.00  0.00    +0.393 N 
ATOM      7  H   UNL     1       4.898   3.882  -1.827  0.00  0.00    -0.079 HD
ENDROOT
BRANCH   1   8
ATOM      8  C   UNL     1       4.337   6.429  -5.264  0.00  0.00    +0.008 C 
BRANCH   8   9
ATOM      9  C   UNL     1       3.078   6.488  -6.132  0.00  0.00    +0.035 C 
BRANCH   9  14
ATOM     10  C   UNL     1       4.571   7.484 -11.625  0.00  0.00    +0.044 C 
ATOM     11  C   UNL     1       4.181   7.224 -10.192  0.00  0.00    -0.050 A 
ATOM     12  C   UNL     1       4.080   5.926  -9.728  0.00  0.00    +0.003 A 
ATOM     13  C   UNL     1       3.723   5.688  -8.414  0.00  0.00    +0.004 A 
ATOM     14  C   UNL     1       3.467   6.748  -7.564  0.00  0.00    -0.047 A 
ATOM     15  C   UNL     1       3.563   8.046  -8.030  0.00  0.00    +0.004 A 
ATOM     16  C   UNL     1       3.924   8.284  -9.343  0.00  0.00    +0.003 A 
ENDBRANCH   9  14
ENDBRANCH   8   9
ENDBRANCH   1   8
BRANCH   6  17
ATOM     17  C   UNL     1       3.939   4.163  -0.032  0.00  0.00    +0.072 C 
BRANCH  17  18
ATOM     18  N   UNL     1       3.135   2.938  -0.020  0.00  0.00    -0.258 N 
ATOM     19  C   UNL     1       3.604   1.673  -0.015  0.00  0.00    +0.176 A 
ATOM     20  S   UNL     1       5.250   1.203  -0.020  0.00  0.00    -0.011 S 
ATOM     21  N   UNL     1       2.538   0.848  -0.004  0.00  0.00    -0.310 N 
ATOM     22  C   UNL     1       1.399   1.614  -0.003  0.00  0.00    +0.136 A 
ATOM     23  N   UNL     1       1.735   2.864  -0.018  0.00  0.00    -0.157 NA
ATOM     24  C   UNL     1       2.588  -0.616   0.005  0.00  0.00    +0.152 C 
BRANCH  22  25
ATOM     25  C   UNL     1      -0.013   1.086   0.008  0.00  0.00    +0.079 C 
ATOM     26  C   UNL     1      -0.746   1.588   1.263  0.00  0.00    +0.035 C 
ATOM     27  C   UNL     1      -2.265   1.326   1.127  0.00  0.00    +0.166 C 
ATOM     28  S   UNL     1      -2.521   1.368  -0.694  0.00  0.00    -0.030 S 
ATOM     29  O   UNL     1      -2.970   0.091  -1.127  0.00  0.00    -0.174 OA
ATOM     30  O   UNL     1      -3.274   2.526  -1.029  0.00  0.00    -0.174 OA
ATOM     31  C   UNL     1      -0.778   1.608  -1.241  0.00  0.00    +0.177 C 
ENDBRANCH  22  25
ENDBRANCH  17  18
ENDBRANCH   6  17
TORSDOF 6
