REMARK  Name = ZINC20942758
REMARK  4 active torsions:
REMARK  status: ('A' for Active; 'I' for Inactive)
REMARK    1  A    between atoms: C_4  and  N_7
REMARK    2  A    between atoms: C_22  and  C_23
REMARK    3  A    between atoms: C_23  and  N_24
REMARK    4  A    between atoms: N_24  and  C_25
REMARK                            x       y       z     vdW  Elec       q    Type
REMARK                         _______ _______ _______ _____ _____    ______ ____
ROOT
ATOM      1  N   UNL     1       2.138   1.472   1.171  0.00  0.00    -0.327 N 
ATOM      2  C   UNL     1       1.419   1.992  -0.001  0.00  0.00    +0.124 C 
ATOM      3  C   UNL     1      -0.018   1.465   0.010  0.00  0.00    +0.126 C 
ATOM      4  N   UNL     1       0.002  -0.004   0.002  0.00  0.00    -0.305 N 
ATOM      5  C   UNL     1       0.721  -0.525   1.173  0.00  0.00    +0.126 C 
ATOM      6  C   UNL     1       2.158   0.003   1.162  0.00  0.00    +0.124 C 
ATOM      7  C   UNL     1      -1.286  -0.519  -0.060  0.00  0.00    +0.186 A 
ATOM      8  N   UNL     1      -2.452   0.108  -0.105  0.00  0.00    -0.124 NA
ATOM      9  N   UNL     1      -3.545  -0.520  -0.163  0.00  0.00    -0.121 NA
ATOM     10  C   UNL     1      -3.594  -1.842  -0.174  0.00  0.00    +0.202 A 
ATOM     11  S   UNL     1      -1.846  -2.219  -0.097  0.00  0.00    -0.013 S 
ATOM     12  N   UNL     1      -4.695  -2.698  -0.229  0.00  0.00    -0.300 N 
ATOM     13  C   UNL     1      -4.643  -4.063  -0.241  0.00  0.00    +0.093 A 
ATOM     14  C   UNL     1      -5.907  -4.532  -0.295  0.00  0.00    +0.020 A 
ATOM     15  C   UNL     1      -6.770  -3.419  -0.328  0.00  0.00    +0.021 A 
ATOM     16  C   UNL     1      -6.004  -2.310  -0.286  0.00  0.00    +0.009 A 
ENDROOT
BRANCH   1  20
ATOM     17  C   UNL     1       6.000   3.016   1.359  0.00  0.00    +0.000 A 
ATOM     18  C   UNL     1       4.916   3.873   1.314  0.00  0.00    +0.002 A 
ATOM     19  C   UNL     1       3.634   3.364   1.251  0.00  0.00    +0.023 A 
ATOM     20  C   UNL     1       3.433   1.990   1.233  0.00  0.00    +0.030 A 
ATOM     21  C   UNL     1       4.524   1.131   1.284  0.00  0.00    +0.023 A 
ATOM     22  C   UNL     1       5.804   1.647   1.342  0.00  0.00    +0.002 A 
ENDBRANCH   1  20
BRANCH  16  23
ATOM     23  C   UNL     1      -6.505  -0.889  -0.301  0.00  0.00    -0.027 C 
BRANCH  23  24
ATOM     24  N   UNL     1      -6.616  -0.395   1.078  0.00  0.00    +0.385 N 
ATOM     25  H   UNL     1      -7.322  -1.027   1.638  0.00  0.00    -0.085 HD
ATOM     26  H   UNL     1      -5.629  -0.431   1.562  0.00  0.00    -0.085 HD
BRANCH  24  27
ATOM     27  C   UNL     1      -7.103   0.991   1.104  0.00  0.00    -0.071 C 
ATOM     28  C   UNL     1      -5.915   1.970   0.997  0.00  0.00    -0.016 C 
ATOM     29  C   UNL     1      -6.307   3.146   1.925  0.00  0.00    -0.002 C 
ATOM     30  C   UNL     1      -7.001   2.429   3.110  0.00  0.00    -0.002 C 
ATOM     31  C   UNL     1      -7.793   1.283   2.447  0.00  0.00    -0.016 C 
ENDBRANCH  24  27
ENDBRANCH  23  24
ENDBRANCH  16  23
TORSDOF 4
