REMARK  Name = ZINC19660799
REMARK  6 active torsions:
REMARK  status: ('A' for Active; 'I' for Inactive)
REMARK    1  A    between atoms: C_1  and  C_2
REMARK    2  A    between atoms: C_5  and  C_30
REMARK    3  A    between atoms: C_8  and  C_13
REMARK    4  A    between atoms: C_9  and  C_12
REMARK    5  A    between atoms: C_13  and  C_14
REMARK    6  A    between atoms: C_25  and  C_27
REMARK                            x       y       z     vdW  Elec       q    Type
REMARK                         _______ _______ _______ _____ _____    ______ ____
ROOT
ATOM      1  C   UNL     1      -1.300   6.844   1.257  0.00  0.00    +0.221 C 
ATOM      2  O   UNL     1      -2.362   7.393   1.465  0.00  0.00    -0.275 OA
ATOM      3  N   UNL     1      -1.221   5.852   0.349  0.00  0.00    -0.285 N 
ATOM      4  C   UNL     1       0.068   5.258  -0.022  0.00  0.00    +0.144 C 
ATOM      5  C   UNL     1      -0.061   3.756  -0.070  0.00  0.00    -0.027 A 
ATOM      6  C   UNL     1       1.105   3.009  -0.176  0.00  0.00    +0.005 A 
ATOM      7  C   UNL     1       1.051   1.632  -0.236  0.00  0.00    +0.000 A 
ATOM      8  C   UNL     1      -0.173   0.991  -0.195  0.00  0.00    +0.000 A 
ATOM      9  C   UNL     1      -1.332   1.732  -0.096  0.00  0.00    +0.004 A 
ATOM     10  C   UNL     1      -1.281   3.119  -0.023  0.00  0.00    -0.040 A 
ATOM     11  C   UNL     1      -2.585   3.860   0.108  0.00  0.00    +0.067 C 
ATOM     12  C   UNL     1      -2.425   5.321  -0.312  0.00  0.00    +0.166 C 
ENDROOT
BRANCH  12  13
ATOM     13  C   UNL     1      -3.634   6.111   0.119  0.00  0.00    +0.231 C 
ATOM     14  O   UNL     1      -4.195   5.843   1.160  0.00  0.00    -0.274 OA
ATOM     15  N   UNL     1      -4.091   7.117  -0.653  0.00  0.00    -0.328 N 
ATOM     16  H   UNL     1      -4.973   7.694  -0.339  0.00  0.00    +0.145 HD
ATOM     17  H   UNL     1      -3.583   7.360  -1.598  0.00  0.00    +0.145 HD
ENDBRANCH  12  13
BRANCH   1  18
ATOM     18  C   UNL     1      -0.070   7.272   2.015  0.00  0.00    +0.133 C 
BRANCH  18  26
ATOM     19  C   UNL     1       0.394   9.887   0.277  0.00  0.00    +0.044 C 
ATOM     20  C   UNL     1      -0.049  10.576   1.542  0.00  0.00    -0.041 A 
ATOM     21  C   UNL     1      -0.120  11.940   1.590  0.00  0.00    +0.004 A 
ATOM     22  C   UNL     1      -0.526  12.585   2.750  0.00  0.00    +0.005 A 
ATOM     23  C   UNL     1      -0.865  11.862   3.873  0.00  0.00    -0.027 A 
ATOM     24  C   UNL     1      -0.801  10.473   3.847  0.00  0.00    +0.050 A 
ATOM     25  C   UNL     1      -0.383   9.825   2.670  0.00  0.00    +0.007 A 
ATOM     26  C   UNL     1      -0.426   8.390   2.961  0.00  0.00    -0.010 A 
ATOM     27  C   UNL     1      -0.837   8.259   4.232  0.00  0.00    +0.018 A 
ATOM     28  N   UNL     1      -1.065   9.493   4.777  0.00  0.00    -0.358 N 
ATOM     29  H   UNL     1      -1.407   9.771   5.786  0.00  0.00    +0.166 HD
ATOM     30  C   UNL     1      -1.018   6.948   4.952  0.00  0.00    +0.063 C 
ATOM     31  C   UNL     1      -1.305  12.574   5.126  0.00  0.00    +0.046 C 
ENDBRANCH  18  26
ENDBRANCH   1  18
TORSDOF 3
