REMARK  Name = ZINC15230956
REMARK  7 active torsions:
REMARK  status: ('A' for Active; 'I' for Inactive)
REMARK    1  A    between atoms: C_1  and  C_2
REMARK    2  A    between atoms: C_6  and  C_38
REMARK    3  A    between atoms: C_7  and  N_8
REMARK    4  A    between atoms: N_8  and  S_9
REMARK    5  A    between atoms: S_9  and  C_12
REMARK    6  A    between atoms: C_25  and  C_28
REMARK    7  A    between atoms: C_33  and  C_34
REMARK                            x       y       z     vdW  Elec       q    Type
REMARK                         _______ _______ _______ _____ _____    ______ ____
ROOT
ATOM      1  C   UNL     1       0.667   1.668   1.278  0.00  0.00    +0.109 A 
ATOM      2  C   UNL     1       1.184   1.101   2.429  0.00  0.00    +0.030 A 
ATOM      3  C   UNL     1       1.132   1.800   3.619  0.00  0.00    +0.025 A 
ATOM      4  C   UNL     1       0.563   3.066   3.657  0.00  0.00    +0.031 A 
ATOM      5  C   UNL     1       0.045   3.639   2.505  0.00  0.00    -0.018 A 
ATOM      6  C   UNL     1       0.107   2.928   1.315  0.00  0.00    +0.034 A 
ATOM      7  C   UNL     1      -0.572   5.002   2.497  0.00  0.00    +0.049 C 
ATOM      8  C   UNL     1      -2.077   4.926   2.408  0.00  0.00    -0.023 C 
ATOM      9  C   UNL     1      -2.623   5.878   3.124  0.00  0.00    -0.030 C 
ATOM     10  C   UNL     1      -1.552   6.725   3.784  0.00  0.00    +0.033 C 
ATOM     11  C   UNL     1      -0.308   5.790   3.795  0.00  0.00    +0.029 C 
ATOM     12  C   UNL     1      -0.446   4.862   5.005  0.00  0.00    +0.105 C 
ATOM     13  N   UNL     1       0.513   3.760   4.870  0.00  0.00    -0.336 N 
ATOM     14  H   UNL     1       1.099   3.518   5.605  0.00  0.00    +0.147 HD
ENDROOT
BRANCH  12  15
ATOM     15  C   UNL     1      -0.155   5.632   6.267  0.00  0.00    -0.015 A 
ATOM     16  C   UNL     1       0.511   6.842   6.201  0.00  0.00    +0.006 A 
ATOM     17  C   UNL     1       0.772   7.551   7.358  0.00  0.00    +0.000 A 
ATOM     18  C   UNL     1       0.378   7.045   8.583  0.00  0.00    +0.001 A 
ATOM     19  C   UNL     1      -0.283   5.833   8.650  0.00  0.00    +0.013 A 
ATOM     20  C   UNL     1      -0.550   5.126   7.492  0.00  0.00    +0.060 A 
BRANCH  20  21
ATOM     21  C   UNL     1      -1.270   3.805   7.564  0.00  0.00    +0.418 C 
ATOM     22  F   UNL     1      -1.634   3.545   8.890  0.00  0.00    -0.166 F 
ATOM     23  F   UNL     1      -2.418   3.855   6.767  0.00  0.00    -0.166 F 
ATOM     24  F   UNL     1      -0.427   2.788   7.104  0.00  0.00    -0.166 F 
ENDBRANCH  20  21
ENDBRANCH  12  15
BRANCH   1  25
ATOM     25  S   UNL     1       0.730   0.779  -0.242  0.00  0.00    +0.072 S 
ATOM     26  O   UNL     1       1.724  -0.225  -0.085  0.00  0.00    -0.150 OA
ATOM     27  O   UNL     1       0.786   1.750  -1.278  0.00  0.00    -0.150 OA
BRANCH  25  28
ATOM     28  N   UNL     1      -0.716  -0.009  -0.409  0.00  0.00    -0.216 N 
ATOM     29  H   UNL     1      -0.750  -0.977  -0.355  0.00  0.00    +0.174 HD
BRANCH  28  36
ATOM     30  C   UNL     1      -2.546   0.286   1.750  0.00  0.00    +0.046 C 
ATOM     31  C   UNL     1      -2.808   0.888   0.394  0.00  0.00    -0.028 A 
ATOM     32  C   UNL     1      -3.962   1.613   0.171  0.00  0.00    +0.005 A 
ATOM     33  C   UNL     1      -4.206   2.162  -1.075  0.00  0.00    +0.001 A 
ATOM     34  C   UNL     1      -3.294   1.991  -2.100  0.00  0.00    +0.005 A 
ATOM     35  C   UNL     1      -2.135   1.272  -1.882  0.00  0.00    -0.028 A 
ATOM     36  C   UNL     1      -1.887   0.719  -0.632  0.00  0.00    +0.054 A 
ATOM     37  C   UNL     1      -1.141   1.086  -3.000  0.00  0.00    +0.046 C 
ENDBRANCH  28  36
ENDBRANCH  25  28
ENDBRANCH   1  25
TORSDOF 5
