REMARK  Name = ZINC19897484
REMARK  6 active torsions:
REMARK  status: ('A' for Active; 'I' for Inactive)
REMARK    1  A    between atoms: C_1  and  C_2
REMARK    2  A    between atoms: C_7  and  N_8
REMARK    3  A    between atoms: C_13  and  S_17
REMARK    4  A    between atoms: S_17  and  C_18
REMARK    5  A    between atoms: C_18  and  C_19
REMARK    6  A    between atoms: C_19  and  C_21
REMARK                            x       y       z     vdW  Elec       q    Type
REMARK                         _______ _______ _______ _____ _____    ______ ____
ROOT
ATOM      1  N   UNL     1       5.362  10.362  -0.541  0.00  0.00    -0.284 N 
ATOM      2  C   UNL     1       6.280   9.338  -0.008  0.00  0.00    +0.189 C 
ATOM      3  C   UNL     1       5.516   8.036  -0.008  0.00  0.00    +0.171 A 
ATOM      4  N   UNL     1       5.911   6.811  -0.019  0.00  0.00    -0.130 NA
ATOM      5  N   UNL     1       4.889   6.022  -0.013  0.00  0.00    -0.121 NA
ATOM      6  C   UNL     1       3.775   6.729   0.001  0.00  0.00    +0.211 A 
ATOM      7  N   UNL     1       4.138   8.029  -0.001  0.00  0.00    -0.212 N 
ATOM      8  N   UNL     1       3.396   9.213   0.019  0.00  0.00    -0.283 N 
ATOM      9  C   UNL     1       4.018  10.328  -0.237  0.00  0.00    +0.180 C 
ATOM     10  H   UNL     1       2.319   9.223   0.242  0.00  0.00    +0.188 HD
ENDROOT
BRANCH   1  17
ATOM     11  C   UNL     1       6.260  12.765   0.689  0.00  0.00    +0.045 C 
ATOM     12  C   UNL     1       6.309  12.567  -0.804  0.00  0.00    -0.029 A 
ATOM     13  C   UNL     1       6.800  13.568  -1.619  0.00  0.00    +0.005 A 
ATOM     14  C   UNL     1       6.845  13.387  -2.989  0.00  0.00    +0.000 A 
ATOM     15  C   UNL     1       6.399  12.203  -3.548  0.00  0.00    +0.002 A 
ATOM     16  C   UNL     1       5.912  11.196  -2.739  0.00  0.00    +0.024 A 
ATOM     17  C   UNL     1       5.860  11.377  -1.363  0.00  0.00    +0.038 A 
ENDBRANCH   1  17
BRANCH   6  18
ATOM     18  S   UNL     1       2.130   6.098   0.013  0.00  0.00    -0.076 S 
BRANCH  18  19
ATOM     19  C   UNL     1       2.474   4.321   0.001  0.00  0.00    +0.157 C 
BRANCH  19  20
ATOM     20  C   UNL     1       1.176   3.557   0.009  0.00  0.00    +0.173 C 
ATOM     21  O   UNL     1       0.121   4.155   0.022  0.00  0.00    -0.291 OA
BRANCH  20  22
ATOM     22  C   UNL     1       1.187   2.086   0.002  0.00  0.00    +0.018 A 
ATOM     23  C   UNL     1      -0.017   1.374   0.010  0.00  0.00    +0.013 A 
ATOM     24  C   UNL     1       0.002  -0.004   0.002  0.00  0.00    +0.020 A 
ATOM     25  C   UNL     1       1.209  -0.684  -0.013  0.00  0.00    +0.041 A 
ATOM     26  C   UNL     1       2.406   0.015  -0.021  0.00  0.00    +0.020 A 
ATOM     27  C   UNL     1       2.402   1.393  -0.013  0.00  0.00    +0.013 A 
ATOM     28 CL   UNL     1       1.223  -2.420  -0.022  0.00  0.00    -0.084 Cl
ENDBRANCH  20  22
ENDBRANCH  19  20
ENDBRANCH  18  19
ENDBRANCH   6  18
TORSDOF 5
