REMARK  Name = ZINC05416555
REMARK  5 active torsions:
REMARK  status: ('A' for Active; 'I' for Inactive)
REMARK    1  A    between atoms: C_1  and  C_2
REMARK    2  A    between atoms: N_4  and  C_26
REMARK    3  A    between atoms: C_9  and  C_17
REMARK    4  A    between atoms: C_11  and  C_15
REMARK    5  A    between atoms: C_12  and  N_14
REMARK                            x       y       z     vdW  Elec       q    Type
REMARK                         _______ _______ _______ _____ _____    ______ ____
ROOT
ATOM      1  C   UNL     1       7.237   2.138  -0.590  0.00  0.00    +0.063 C 
ATOM      2  C   UNL     1       5.765   2.425  -0.442  0.00  0.00    +0.043 C 
ATOM      3  N   UNL     1       4.886   1.594  -0.030  0.00  0.00    -0.185 NA
ATOM      4  N   UNL     1       3.582   2.121  -0.021  0.00  0.00    -0.185 N 
ATOM      5  C   UNL     1       3.749   3.575  -0.016  0.00  0.00    +0.294 C 
ATOM      6  C   UNL     1       5.084   3.759  -0.755  0.00  0.00    +0.109 C 
ATOM      7  C   UNL     1       4.863   3.763  -2.271  0.00  0.00    +0.078 C 
ATOM      8  C   UNL     1       3.607   4.475  -2.659  0.00  0.00    +0.094 C 
ATOM      9  C   UNL     1       2.595   4.687  -1.790  0.00  0.00    +0.194 C 
ATOM     10  O   UNL     1       2.687   4.333  -0.499  0.00  0.00    -0.455 OA
ENDROOT
BRANCH   7  11
ATOM     11  C   UNL     1       6.034   4.442  -2.934  0.00  0.00    -0.035 A 
ATOM     12  C   UNL     1       6.299   5.773  -2.671  0.00  0.00    +0.008 A 
ATOM     13  C   UNL     1       7.372   6.400  -3.276  0.00  0.00    +0.050 A 
ATOM     14  C   UNL     1       8.185   5.695  -4.149  0.00  0.00    +0.166 A 
ATOM     15  C   UNL     1       7.918   4.354  -4.413  0.00  0.00    +0.167 A 
ATOM     16  C   UNL     1       6.844   3.731  -3.799  0.00  0.00    +0.053 A 
ATOM     17  O   UNL     1       8.852   3.889  -5.294  0.00  0.00    -0.453 OA
ATOM     18  C   UNL     1       9.931   4.842  -5.249  0.00  0.00    +0.466 C 
ATOM     19  O   UNL     1       9.286   6.070  -4.863  0.00  0.00    -0.453 OA
ENDBRANCH   7  11
BRANCH   4  20
ATOM     20  C   UNL     1       2.381   1.409  -0.014  0.00  0.00    +0.055 A 
ATOM     21  C   UNL     1       1.169   2.087   0.002  0.00  0.00    +0.025 A 
ATOM     22  C   UNL     1      -0.017   1.379   0.010  0.00  0.00    +0.002 A 
ATOM     23  C   UNL     1       0.002  -0.004   0.002  0.00  0.00    +0.000 A 
ATOM     24  C   UNL     1       1.207  -0.683  -0.013  0.00  0.00    +0.002 A 
ATOM     25  C   UNL     1       2.396   0.019  -0.021  0.00  0.00    +0.025 A 
ENDBRANCH   4  20
BRANCH   9  26
ATOM     26  N   UNL     1       1.443   5.281  -2.239  0.00  0.00    -0.329 N 
ATOM     27  H   UNL     1       0.708   5.439  -1.625  0.00  0.00    +0.145 HD
ATOM     28  H   UNL     1       1.362   5.542  -3.169  0.00  0.00    +0.145 HD
ENDBRANCH   9  26
BRANCH   8  29
ATOM     29  C   UNL     1       3.471   4.951  -4.003  0.00  0.00    +0.100 C 
ATOM     30  N   UNL     1       3.363   5.328  -5.069  0.00  0.00    -0.191 NA
ENDBRANCH   8  29
TORSDOF 4
