REMARK  Name = ZINC18805608
REMARK  7 active torsions:
REMARK  status: ('A' for Active; 'I' for Inactive)
REMARK    1  A    between atoms: C_1  and  C_2
REMARK    2  A    between atoms: C_6  and  C_13
REMARK    3  A    between atoms: C_13  and  S_14
REMARK    4  A    between atoms: S_14  and  C_15
REMARK    5  A    between atoms: N_19  and  N_20
REMARK    6  A    between atoms: C_22  and  C_27
REMARK    7  A    between atoms: C_24  and  C_26
REMARK                            x       y       z     vdW  Elec       q    Type
REMARK                         _______ _______ _______ _____ _____    ______ ____
ROOT
ATOM      1  C   UNL     1      -1.423  -5.910  -3.538  0.00  0.00    +0.210 A 
ATOM      2  N   UNL     1      -0.332  -6.497  -3.969  0.00  0.00    -0.119 NA
ATOM      3  N   UNL     1      -0.566  -7.097  -5.081  0.00  0.00    -0.106 NA
ATOM      4  C   UNL     1      -1.816  -6.930  -5.427  0.00  0.00    +0.270 A 
ATOM      5  N   UNL     1      -2.408  -6.170  -4.451  0.00  0.00    -0.208 N 
ATOM      6  N   UNL     1      -2.433  -7.434  -6.572  0.00  0.00    -0.201 N 
ATOM      7  C   UNL     1      -1.843  -8.195  -7.530  0.00  0.00    +0.045 A 
ATOM      8  C   UNL     1      -2.780  -8.475  -8.466  0.00  0.00    +0.048 A 
ATOM      9  C   UNL     1      -3.978  -7.869  -8.072  0.00  0.00    +0.061 A 
ATOM     10  N   UNL     1      -3.773  -7.251  -6.936  0.00  0.00    -0.169 NA
ATOM     11  C   UNL     1      -5.282  -7.923  -8.824  0.00  0.00    +0.067 C 
ATOM     12  C   UNL     1      -0.405  -8.647  -7.547  0.00  0.00    +0.066 C 
ENDROOT
BRANCH   5  13
ATOM     13  N   UNL     1      -3.709  -5.758  -4.402  0.00  0.00    -0.293 N 
ATOM     14  H   UNL     1      -3.824  -4.867  -4.861  0.00  0.00    +0.163 HD
ATOM     15  H   UNL     1      -4.324  -6.452  -4.801  0.00  0.00    +0.163 HD
ENDBRANCH   5  13
BRANCH   1  16
ATOM     16  S   UNL     1      -1.591  -4.969  -2.058  0.00  0.00    -0.080 S 
BRANCH  16  17
ATOM     17  C   UNL     1       0.066  -5.012  -1.320  0.00  0.00    +0.113 C 
BRANCH  17  23
ATOM     18  C   UNL     1      -0.018   1.503   0.010  0.00  0.00    +0.044 C 
ATOM     19  C   UNL     1       0.002  -0.004   0.002  0.00  0.00    -0.047 A 
ATOM     20  C   UNL     1       0.006  -0.684  -1.207  0.00  0.00    +0.004 A 
ATOM     21  C   UNL     1       0.025  -2.050  -1.235  0.00  0.00    +0.012 A 
ATOM     22  C   UNL     1       0.040  -2.768  -0.035  0.00  0.00    +0.022 A 
ATOM     23  C   UNL     1       0.061  -4.234  -0.030  0.00  0.00    -0.020 A 
ATOM     24  C   UNL     1       0.077  -4.870   1.169  0.00  0.00    +0.097 A 
ATOM     25  C   UNL     1       0.072  -4.118   2.363  0.00  0.00    +0.338 A 
ATOM     26  O   UNL     1       0.086  -4.701   3.432  0.00  0.00    -0.245 OA
ATOM     27  O   UNL     1       0.053  -2.776   2.350  0.00  0.00    -0.422 OA
ATOM     28  C   UNL     1       0.037  -2.082   1.193  0.00  0.00    +0.140 A 
ATOM     29  C   UNL     1       0.023  -0.693   1.196  0.00  0.00    +0.050 A 
ENDBRANCH  17  23
ENDBRANCH  16  17
ENDBRANCH   1  16
TORSDOF 4
