REMARK  Name = ZINC39526650
REMARK  8 active torsions:
REMARK  status: ('A' for Active; 'I' for Inactive)
REMARK    1  A    between atoms: C_1  and  C_2
REMARK    2  A    between atoms: C_2  and  O_3
REMARK    3  A    between atoms: O_3  and  N_4
REMARK    4  A    between atoms: C_5  and  S_19
REMARK    5  A    between atoms: C_14  and  O_17
REMARK    6  A    between atoms: O_17  and  C_18
REMARK    7  A    between atoms: S_19  and  O_22
REMARK    8  A    between atoms: O_22  and  C_23
REMARK                            x       y       z     vdW  Elec       q    Type
REMARK                         _______ _______ _______ _____ _____    ______ ____
ROOT
ATOM      1  N   UNL     1      -1.434  -1.958   0.005  0.00  0.00    -0.154 NA
ATOM      2  C   UNL     1      -2.179  -2.432  -1.168  0.00  0.00    +0.266 C 
ATOM      3  C   UNL     1      -2.135  -3.960  -1.221  0.00  0.00    +0.048 C 
ATOM      4  C   UNL     1      -2.751  -4.528   0.061  0.00  0.00    +0.005 C 
ATOM      5  C   UNL     1      -1.987  -3.982   1.270  0.00  0.00    +0.025 C 
ATOM      6  C   UNL     1      -2.035  -2.452   1.251  0.00  0.00    +0.052 C 
ATOM      7  C   UNL     1      -1.254  -1.904   2.447  0.00  0.00    +0.025 C 
ATOM      8  C   UNL     1      -1.303  -0.375   2.432  0.00  0.00    +0.004 C 
ATOM      9  C   UNL     1      -2.759   0.089   2.518  0.00  0.00    +0.032 C 
ATOM     10  C   UNL     1      -3.539  -0.459   1.321  0.00  0.00    +0.120 C 
ATOM     11  C   UNL     1      -3.490  -1.988   1.336  0.00  0.00    +0.056 C 
ENDROOT
BRANCH   2  12
ATOM     12  S   UNL     1      -1.429  -1.753  -2.674  0.00  0.00    +0.139 S 
ATOM     13  O   UNL     1      -1.622  -0.346  -2.727  0.00  0.00    -0.135 OA
ATOM     14  O   UNL     1      -0.139  -2.316  -2.874  0.00  0.00    -0.135 OA
BRANCH  12  15
ATOM     15  O   UNL     1      -2.274  -2.304  -3.814  0.00  0.00    -0.345 OA
BRANCH  15  16
ATOM     16  C   UNL     1      -3.486  -1.703  -3.945  0.00  0.00    +0.156 A 
ATOM     17  C   UNL     1      -4.585  -2.200  -3.260  0.00  0.00    +0.048 A 
ATOM     18  C   UNL     1      -5.816  -1.587  -3.394  0.00  0.00    +0.004 A 
ATOM     19  C   UNL     1      -5.952  -0.479  -4.209  0.00  0.00    +0.000 A 
ATOM     20  C   UNL     1      -4.858   0.018  -4.893  0.00  0.00    +0.004 A 
ATOM     21  C   UNL     1      -3.624  -0.587  -4.758  0.00  0.00    +0.048 A 
ENDBRANCH  15  16
ENDBRANCH  12  15
ENDBRANCH   2  12
BRANCH  10  22
ATOM     22  O   UNL     1      -4.899  -0.025   1.401  0.00  0.00    -0.380 OA
ATOM     23  C   UNL     1      -5.151   1.221   0.748  0.00  0.00    +0.194 C 
ENDBRANCH  10  22
BRANCH   1  24
ATOM     24  O   UNL     1      -1.339  -0.499   0.012  0.00  0.00    -0.295 OA
BRANCH  24  26
ATOM     25  C   UNL     1      -0.065   1.530  -0.308  0.00  0.00    +0.036 C 
ATOM     26  C   UNL     1      -0.049   0.001  -0.349  0.00  0.00    +0.182 C 
ENDBRANCH  24  26
ENDBRANCH   1  24
TORSDOF 6
