REMARK  Name = ZINC02436961
REMARK  8 active torsions:
REMARK  status: ('A' for Active; 'I' for Inactive)
REMARK    1  A    between atoms: C_1  and  C_2
REMARK    2  A    between atoms: N_8  and  C_9
REMARK    3  A    between atoms: C_9  and  C_10
REMARK    4  A    between atoms: C_10  and  C_11
REMARK    5  A    between atoms: C_17  and  C_25
REMARK    6  A    between atoms: C_19  and  C_23
REMARK    7  A    between atoms: C_20  and  N_22
REMARK    8  A    between atoms: C_28  and  N_30
REMARK                            x       y       z     vdW  Elec       q    Type
REMARK                         _______ _______ _______ _____ _____    ______ ____
ROOT
ATOM      1  C   UNL     1      -1.853   7.775  -4.745  0.00  0.00    +0.064 C 
ATOM      2  C   UNL     1      -2.188   7.041  -3.473  0.00  0.00    +0.022 A 
ATOM      3  C   UNL     1      -1.452   7.263  -2.362  0.00  0.00    +0.068 A 
ATOM      4  C   UNL     1      -1.762   6.579  -1.169  0.00  0.00    +0.141 A 
ATOM      5  C   UNL     1      -2.818   5.692  -1.162  0.00  0.00    +0.075 A 
ATOM      6  C   UNL     1      -3.554   5.495  -2.337  0.00  0.00    +0.259 A 
ATOM      7  O   UNL     1      -4.491   4.712  -2.346  0.00  0.00    -0.267 OA
ATOM      8  N   UNL     1      -3.228   6.166  -3.458  0.00  0.00    -0.312 N 
ATOM      9  C   UNL     1      -3.183   4.941   0.089  0.00  0.00    +0.139 C 
ATOM     10  C   UNL     1      -2.545   5.589   1.286  0.00  0.00    +0.101 C 
ATOM     11  C   UNL     1      -1.522   6.466   1.149  0.00  0.00    +0.199 C 
ATOM     12  O   UNL     1      -1.029   6.799  -0.057  0.00  0.00    -0.441 OA
ENDROOT
BRANCH   9  13
ATOM     13  C   UNL     1      -2.702   3.518  -0.024  0.00  0.00    +0.121 A 
ATOM     14  C   UNL     1      -3.477   2.420   0.023  0.00  0.00    +0.048 A 
ATOM     15  C   UNL     1      -2.619   1.306  -0.127  0.00  0.00    +0.076 A 
ATOM     16  C   UNL     1      -1.370   1.790  -0.249  0.00  0.00    +0.280 A 
ATOM     17  O   UNL     1      -1.427   3.130  -0.189  0.00  0.00    -0.438 OA
BRANCH  16  18
ATOM     18  N   UNL     1      -0.142   0.982  -0.426  0.00  0.00    +0.093 N 
ATOM     19  O   UNL     1      -0.213  -0.233  -0.466  0.00  0.00    -0.123 OA
ATOM     20  O   UNL     1       0.938   1.533  -0.536  0.00  0.00    -0.123 OA
ENDBRANCH  16  18
ENDBRANCH   9  13
BRANCH  11  21
ATOM     21  N   UNL     1      -0.973   7.030   2.272  0.00  0.00    -0.328 N 
ATOM     22  H   UNL     1      -0.141   7.745   2.179  0.00  0.00    +0.145 HD
ATOM     23  H   UNL     1      -1.364   6.769   3.267  0.00  0.00    +0.145 HD
ENDBRANCH  11  21
BRANCH  10  24
ATOM     24  C   UNL     1      -3.028   5.274   2.597  0.00  0.00    +0.101 C 
ATOM     25  N   UNL     1      -3.411   5.024   3.637  0.00  0.00    -0.191 NA
ENDBRANCH  10  24
BRANCH   8  26
ATOM     26  C   UNL     1      -4.005   5.949  -4.680  0.00  0.00    +0.130 C 
BRANCH  26  27
ATOM     27  C   UNL     1      -5.200   6.904  -4.701  0.00  0.00    +0.057 C 
BRANCH  27  28
ATOM     28  C   UNL     1      -6.000   6.681  -5.958  0.00  0.00    -0.046 A 
ATOM     29  C   UNL     1      -5.707   7.401  -7.101  0.00  0.00    +0.004 A 
ATOM     30  C   UNL     1      -6.438   7.194  -8.256  0.00  0.00    +0.000 A 
ATOM     31  C   UNL     1      -7.468   6.272  -8.265  0.00  0.00    +0.000 A 
ATOM     32  C   UNL     1      -7.765   5.555  -7.121  0.00  0.00    +0.000 A 
ATOM     33  C   UNL     1      -7.031   5.760  -5.968  0.00  0.00    +0.004 A 
ENDBRANCH  27  28
ENDBRANCH  26  27
ENDBRANCH   8  26
TORSDOF 7
