REMARK  Name = ZINC13101615
REMARK  5 active torsions:
REMARK  status: ('A' for Active; 'I' for Inactive)
REMARK    1  A    between atoms: C_2  and  C_28
REMARK    2  A    between atoms: C_10  and  S_11
REMARK    3  A    between atoms: S_11  and  C_12
REMARK    4  A    between atoms: C_12  and  C_13
REMARK    5  A    between atoms: N_15  and  N_16
REMARK                            x       y       z     vdW  Elec       q    Type
REMARK                         _______ _______ _______ _____ _____    ______ ____
ROOT
ATOM      1  C   UNL     1      -5.638   6.978   0.096  0.00  0.00    +0.240 C 
ATOM      2  O   UNL     1      -4.960   7.983   0.096  0.00  0.00    -0.273 OA
ATOM      3  N   UNL     1      -6.983   7.072   0.109  0.00  0.00    -0.223 N 
ATOM      4  H   UNL     1      -7.526   6.268   0.109  0.00  0.00    +0.174 HD
ENDROOT
BRANCH   3   5
ATOM      5  N   UNL     1      -7.597   8.332   0.122  0.00  0.00    -0.137 N 
ATOM      6  C   UNL     1      -8.198   8.894  -0.946  0.00  0.00    +0.263 C 
ATOM      7  O   UNL     1      -8.307   8.424  -2.059  0.00  0.00    -0.271 OA
ATOM      8  C   UNL     1      -8.709  10.233  -0.465  0.00  0.00    +0.114 C 
ATOM      9  C   UNL     1     -10.227  10.298  -0.587  0.00  0.00    +0.035 C 
ATOM     10  C   UNL     1     -10.726  11.649  -0.069  0.00  0.00    +0.003 C 
ATOM     11  C   UNL     1     -10.083  12.775  -0.882  0.00  0.00    +0.000 C 
ATOM     12  C   UNL     1      -8.562  12.711  -0.729  0.00  0.00    +0.003 C 
ATOM     13  C   UNL     1      -8.054  11.364  -1.250  0.00  0.00    +0.035 C 
ATOM     14  N   UNL     1      -8.303  10.283   0.945  0.00  0.00    -0.284 N 
ATOM     15  C   UNL     1      -7.664   9.124   1.199  0.00  0.00    +0.326 C 
ATOM     16  O   UNL     1      -7.198   8.833   2.283  0.00  0.00    -0.251 OA
ATOM     17  H   UNL     1      -8.466  11.005   1.572  0.00  0.00    +0.151 HD
ENDBRANCH   3   5
BRANCH   1  18
ATOM     18  C   UNL     1      -4.978   5.623   0.081  0.00  0.00    +0.174 C 
BRANCH  18  19
ATOM     19  S   UNL     1      -3.176   5.829   0.066  0.00  0.00    -0.076 S 
BRANCH  19  29
ATOM     20  C   UNL     1       1.142   2.436   0.004  0.00  0.00    +0.037 A 
ATOM     21  C   UNL     1       1.110   3.843   0.012  0.00  0.00    +0.073 A 
ATOM     22  C   UNL     1      -0.067   4.499   0.027  0.00  0.00    +0.107 A 
ATOM     23  N   UNL     1      -1.247   3.807   0.035  0.00  0.00    -0.276 N 
ATOM     24  C   UNL     1      -1.248   2.429   0.021  0.00  0.00    +0.180 A 
ATOM     25  C   UNL     1      -0.021   1.732   0.012  0.00  0.00    +0.086 A 
ATOM     26 CL   UNL     1       0.002  -0.004   0.002  0.00  0.00    -0.080 Cl
ATOM     27  N   UNL     1      -2.511   2.045   0.025  0.00  0.00    -0.127 NA
ATOM     28  N   UNL     1      -3.277   3.079   0.034  0.00  0.00    -0.122 NA
ATOM     29  C   UNL     1      -2.559   4.179   0.049  0.00  0.00    +0.196 A 
BRANCH  21  30
ATOM     30  C   UNL     1       2.401   4.621   0.004  0.00  0.00    +0.419 C 
ATOM     31  F   UNL     1       3.481   3.732  -0.011  0.00  0.00    -0.166 F 
ATOM     32  F   UNL     1       2.449   5.433  -1.134  0.00  0.00    -0.166 F 
ATOM     33  F   UNL     1       2.470   5.420   1.150  0.00  0.00    -0.166 F 
ENDBRANCH  21  30
ENDBRANCH  19  29
ENDBRANCH  18  19
ENDBRANCH   1  18
TORSDOF 5
