REMARK  Name = ZINC12073661
REMARK  8 active torsions:
REMARK  status: ('A' for Active; 'I' for Inactive)
REMARK    1  A    between atoms: C_1  and  N_59
REMARK    2  A    between atoms: C_6  and  C_8
REMARK    3  A    between atoms: C_8  and  N_9
REMARK    4  A    between atoms: N_9  and  C_10
REMARK    5  A    between atoms: C_11  and  C_13
REMARK    6  A    between atoms: N_15  and  C_18
REMARK    7  A    between atoms: C_18  and  C_19
REMARK    8  A    between atoms: C_18  and  C_25
REMARK                            x       y       z     vdW  Elec       q    Type
REMARK                         _______ _______ _______ _____ _____    ______ ____
ROOT
ATOM      1  C   UNL     1      -1.365  -0.460  -0.053  0.00  0.00    +0.167 A 
ATOM      2  C   UNL     1      -0.005  -0.345  -0.014  0.00  0.00    +0.144 A 
ATOM      3  N   UNL     1       0.270   0.940   0.286  0.00  0.00    -0.239 N 
ATOM      4  N   UNL     1      -0.961   1.596   0.427  0.00  0.00    -0.064 NA
ATOM      5  N   UNL     1      -1.902   0.741   0.220  0.00  0.00    -0.125 NA
ENDROOT
BRANCH   1   8
ATOM      6  N   UNL     1      -3.462  -1.703  -0.249  0.00  0.00    -0.301 N 
ATOM      7  C   UNL     1      -4.184  -0.461   0.040  0.00  0.00    +0.132 C 
ATOM      8  C   UNL     1      -2.118  -1.695  -0.346  0.00  0.00    +0.268 C 
ATOM      9  O   UNL     1      -1.526  -2.705  -0.674  0.00  0.00    -0.268 OA
BRANCH   6  10
ATOM     10  C   UNL     1      -4.202  -2.954  -0.433  0.00  0.00    +0.092 C 
BRANCH  10  16
ATOM     11  C   UNL     1      -6.567  -4.407   0.033  0.00  0.00    -0.096 C 
ATOM     12  C   UNL     1      -5.658  -5.383   2.053  0.00  0.00    -0.079 C 
ATOM     13  C   UNL     1      -4.368  -5.873   2.715  0.00  0.00    -0.019 C 
ATOM     14  C   UNL     1      -3.421  -4.686   2.915  0.00  0.00    -0.003 C 
ATOM     15  C   UNL     1      -3.146  -4.029   1.559  0.00  0.00    -0.014 C 
ATOM     16  C   UNL     1      -4.471  -3.593   0.930  0.00  0.00    -0.051 C 
ATOM     17  N   UNL     1      -5.327  -4.784   0.742  0.00  0.00    +0.381 N 
ATOM     18  H   UNL     1      -4.817  -5.475   0.179  0.00  0.00    -0.082 HD
ENDBRANCH  10  16
ENDBRANCH   6  10
ENDBRANCH   1   8
BRANCH   3  19
ATOM     19  C   UNL     1       1.599   1.537   0.437  0.00  0.00    +0.169 C 
BRANCH  19  20
ATOM     20  C   UNL     1       2.112   1.276   1.829  0.00  0.00    -0.019 A 
ATOM     21  C   UNL     1       2.337  -0.021   2.251  0.00  0.00    +0.006 A 
ATOM     22  C   UNL     1       2.812  -0.261   3.527  0.00  0.00    +0.000 A 
ATOM     23  C   UNL     1       3.053   0.797   4.385  0.00  0.00    +0.000 A 
ATOM     24  C   UNL     1       2.823   2.093   3.965  0.00  0.00    +0.000 A 
ATOM     25  C   UNL     1       2.352   2.333   2.687  0.00  0.00    +0.006 A 
ENDBRANCH  19  20
BRANCH  19  26
ATOM     26  C   UNL     1       2.541   0.925  -0.568  0.00  0.00    -0.019 A 
ATOM     27  C   UNL     1       3.880   0.772  -0.257  0.00  0.00    +0.006 A 
ATOM     28  C   UNL     1       4.743   0.207  -1.177  0.00  0.00    +0.000 A 
ATOM     29  C   UNL     1       4.269  -0.196  -2.412  0.00  0.00    +0.000 A 
ATOM     30  C   UNL     1       2.932  -0.038  -2.725  0.00  0.00    +0.000 A 
ATOM     31  C   UNL     1       2.068   0.523  -1.803  0.00  0.00    +0.006 A 
ENDBRANCH  19  26
ENDBRANCH   3  19
TORSDOF 6
