REMARK  Name = ZINC39353256
REMARK  10 active torsions:
REMARK  status: ('A' for Active; 'I' for Inactive)
REMARK    1  A    between atoms: C_1  and  C_2
REMARK    2  A    between atoms: C_2  and  O_3
REMARK    3  A    between atoms: O_3  and  C_4
REMARK    4  A    between atoms: C_6  and  C_14
REMARK    5  A    between atoms: C_8  and  C_11
REMARK    6  A    between atoms: C_9  and  O_10
REMARK    7  A    between atoms: C_11  and  C_12
REMARK    8  A    between atoms: C_15  and  C_16
REMARK    9  A    between atoms: C_15  and  C_18
REMARK   10  A    between atoms: C_24  and  C_28
REMARK                            x       y       z     vdW  Elec       q    Type
REMARK                         _______ _______ _______ _____ _____    ______ ____
ROOT
ATOM      1  C   UNL     1      -0.149  -4.975  -0.509  0.00  0.00    +0.026 C 
ATOM      2  C   UNL     1      -0.548  -6.216  -0.159  0.00  0.00    +0.072 C 
ENDROOT
BRANCH   2   3
ATOM      3  C   UNL     1      -0.457  -6.659   1.279  0.00  0.00    +0.216 C 
ATOM      4  N   UNL     1       0.517  -7.751   1.409  0.00  0.00    -0.359 N 
ATOM      5  C   UNL     1      -0.120  -8.790   1.866  0.00  0.00    +0.060 A 
ATOM      6  C   UNL     1       0.305 -10.156   2.198  0.00  0.00    +0.027 A 
ATOM      7  C   UNL     1      -0.600 -11.040   2.664  0.00  0.00    +0.005 A 
ATOM      8  C   UNL     1      -1.954 -10.711   2.851  0.00  0.00    -0.048 A 
ATOM      9  C   UNL     1      -2.449  -9.487   2.578  0.00  0.00    +0.030 A 
ATOM     10  C   UNL     1      -1.554  -8.441   2.064  0.00  0.00    +0.061 A 
ATOM     11  N   UNL     1      -1.748  -7.199   1.722  0.00  0.00    -0.359 N 
ATOM     12  C   UNL     1      -2.890 -11.769   3.377  0.00  0.00    +0.044 C 
ATOM     13  H   UNL     1       1.461  -7.706   1.193  0.00  0.00    +0.162 HD
ATOM     14  H   UNL     1      -2.590  -6.719   1.755  0.00  0.00    +0.162 HD
ENDBRANCH   2   3
BRANCH   1  17
ATOM     15  C   UNL     1       0.956  -1.938   1.398  0.00  0.00    +0.162 A 
ATOM     16  C   UNL     1       0.311  -2.737   0.474  0.00  0.00    +0.057 A 
ATOM     17  C   UNL     1       0.535  -4.119   0.472  0.00  0.00    -0.020 A 
ATOM     18  C   UNL     1       1.412  -4.683   1.405  0.00  0.00    +0.015 A 
ATOM     19  C   UNL     1       2.051  -3.878   2.323  0.00  0.00    +0.002 A 
ATOM     20  C   UNL     1       1.832  -2.507   2.321  0.00  0.00    +0.162 A 
BRANCH  20  21
ATOM     21  O   UNL     1       2.469  -1.718   3.225  0.00  0.00    -0.503 OA
ATOM     22  H   UNL     1       1.985  -1.599   4.054  0.00  0.00    +0.292 HD
ENDBRANCH  20  21
BRANCH  15  23
ATOM     23  O   UNL     1       0.741  -0.595   1.403  0.00  0.00    -0.489 OA
BRANCH  23  25
ATOM     24  C   UNL     1      -0.282   1.437   0.588  0.00  0.00    +0.048 C 
ATOM     25  C   UNL     1      -0.169  -0.081   0.428  0.00  0.00    +0.226 C 
ENDBRANCH  23  25
ENDBRANCH  15  23
BRANCH  19  26
ATOM     26  C   UNL     1       2.994  -4.487   3.328  0.00  0.00    +0.065 C 
BRANCH  26  27
ATOM     27  C   UNL     1       2.255  -4.754   4.614  0.00  0.00    -0.030 C 
ATOM     28  C   UNL     1       2.256  -5.957   5.132  0.00  0.00    +0.004 C 
ENDBRANCH  26  27
ENDBRANCH  19  26
ENDBRANCH   1  17
BRANCH   2  29
ATOM     29  C   UNL     1      -1.057  -7.111  -1.153  0.00  0.00    +0.099 C 
ATOM     30  N   UNL     1      -1.462  -7.822  -1.942  0.00  0.00    -0.191 NA
ENDBRANCH   2  29
TORSDOF 8
