REMARK  Name = ZINC59304819
REMARK  8 active torsions:
REMARK  status: ('A' for Active; 'I' for Inactive)
REMARK    1  A    between atoms: C_1  and  C_2
REMARK    2  A    between atoms: C_2  and  O_3
REMARK    3  A    between atoms: O_3  and  C_4
REMARK    4  A    between atoms: C_7  and  C_12
REMARK    5  A    between atoms: C_9  and  O_10
REMARK    6  A    between atoms: O_10  and  C_11
REMARK    7  A    between atoms: N_13  and  N_14
REMARK    8  A    between atoms: C_15  and  C_17
REMARK                            x       y       z     vdW  Elec       q    Type
REMARK                         _______ _______ _______ _____ _____    ______ ____
ROOT
ATOM      1  C   UNL     1       1.141  -6.035   1.759  0.00  0.00    +0.139 C 
ATOM      2  N   UNL     1       0.631  -6.826   0.865  0.00  0.00    -0.187 NA
ENDROOT
BRANCH   1   6
ATOM      3  C   UNL     1       0.802  -1.825   1.306  0.00  0.00    +0.163 A 
ATOM      4  C   UNL     1       0.259  -2.670   0.349  0.00  0.00    +0.065 A 
ATOM      5  C   UNL     1       0.366  -4.038   0.493  0.00  0.00    +0.030 A 
ATOM      6  C   UNL     1       1.024  -4.574   1.603  0.00  0.00    +0.012 A 
ATOM      7  C   UNL     1       1.572  -3.722   2.566  0.00  0.00    +0.060 A 
ATOM      8  C   UNL     1       1.464  -2.352   2.412  0.00  0.00    +0.162 A 
ATOM      9 BR   UNL     1      -0.377  -5.187  -0.812  0.00  0.00    -0.050 Br
BRANCH   8  10
ATOM     10  O   UNL     1       2.000  -1.520   3.345  0.00  0.00    -0.491 OA
ATOM     11  C   UNL     1       2.664  -2.129   4.453  0.00  0.00    +0.277 C 
ENDBRANCH   8  10
BRANCH   3  12
ATOM     12  O   UNL     1       0.693  -0.477   1.160  0.00  0.00    -0.489 OA
BRANCH  12  14
ATOM     13  C   UNL     1      -0.019   1.526   0.010  0.00  0.00    +0.048 C 
ATOM     14  C   UNL     1       0.002  -0.004   0.002  0.00  0.00    +0.226 C 
ENDBRANCH  12  14
ENDBRANCH   3  12
ENDBRANCH   1   6
BRANCH   2  15
ATOM     15  N   UNL     1       0.741  -8.215   1.013  0.00  0.00    -0.200 N 
ATOM     16  C   UNL     1       0.212  -9.036   0.084  0.00  0.00    +0.299 C 
ATOM     17  O   UNL     1      -0.361  -8.571  -0.884  0.00  0.00    -0.265 OA
ATOM     18  H   UNL     1       1.198  -8.586   1.784  0.00  0.00    +0.178 HD
BRANCH  16  19
ATOM     19  C   UNL     1       0.328 -10.492   0.239  0.00  0.00    +0.192 A 
ATOM     20  C   UNL     1      -0.160 -11.413  -0.633  0.00  0.00    +0.063 A 
ATOM     21  C   UNL     1       0.185 -12.720  -0.076  0.00  0.00    +0.022 A 
ATOM     22  C   UNL     1      -0.028 -14.039  -0.485  0.00  0.00    +0.027 A 
ATOM     23  C   UNL     1       0.435 -15.070   0.285  0.00  0.00    +0.019 A 
ATOM     24  C   UNL     1       1.114 -14.814   1.469  0.00  0.00    +0.019 A 
ATOM     25  C   UNL     1       1.334 -13.520   1.889  0.00  0.00    +0.048 A 
ATOM     26  C   UNL     1       0.873 -12.456   1.123  0.00  0.00    +0.136 A 
ATOM     27  O   UNL     1       0.940 -11.117   1.267  0.00  0.00    -0.450 OA
ATOM     28 BR   UNL     1       0.147 -16.856  -0.266  0.00  0.00    -0.050 Br
ENDBRANCH  16  19
ENDBRANCH   2  15
TORSDOF 6
