REMARK  Name = ZINC40911920
REMARK  6 active torsions:
REMARK  status: ('A' for Active; 'I' for Inactive)
REMARK    1  A    between atoms: C_1  and  C_2
REMARK    2  A    between atoms: C_5  and  N_8
REMARK    3  A    between atoms: N_11  and  C_12
REMARK    4  A    between atoms: C_12  and  C_13
REMARK    5  A    between atoms: C_12  and  C_14
REMARK    6  A    between atoms: C_12  and  C_15
REMARK                            x       y       z     vdW  Elec       q    Type
REMARK                         _______ _______ _______ _____ _____    ______ ____
ROOT
ATOM      1  N   UNL     1      -0.653  -4.035   1.236  0.00  0.00    -0.297 N 
ATOM      2  C   UNL     1      -0.531  -4.714   2.394  0.00  0.00    +0.301 C 
ATOM      3  O   UNL     1      -0.437  -4.110   3.445  0.00  0.00    -0.253 OA
ATOM      4  N   UNL     1      -0.512  -6.061   2.386  0.00  0.00    -0.284 N 
ATOM      5  H   UNL     1      -0.727  -4.517   0.397  0.00  0.00    +0.151 HD
ATOM      6  H   UNL     1      -0.587  -6.543   1.548  0.00  0.00    +0.151 HD
ENDROOT
BRANCH   1  11
ATOM      7  C   UNL     1      -0.019   1.526   0.010  0.00  0.00    +0.007 C 
ATOM      8  C   UNL     1       0.002  -0.004   0.002  0.00  0.00    -0.014 C 
ATOM      9  C   UNL     1      -1.433  -0.534   0.013  0.00  0.00    +0.005 C 
ATOM     10  C   UNL     1      -1.413  -2.063   0.004  0.00  0.00    +0.022 C 
ATOM     11  C   UNL     1      -0.673  -2.570   1.244  0.00  0.00    +0.074 C 
ATOM     12  C   UNL     1       0.763  -2.041   1.233  0.00  0.00    +0.022 C 
ATOM     13  C   UNL     1       0.742  -0.511   1.242  0.00  0.00    +0.005 C 
ENDBRANCH   1  11
BRANCH   4  14
ATOM     14  C   UNL     1      -0.380  -6.799   3.645  0.00  0.00    +0.131 C 
ATOM     15  C   UNL     1       0.936  -6.415   4.325  0.00  0.00    +0.043 C 
ATOM     16  C   UNL     1      -1.551  -6.450   4.566  0.00  0.00    +0.043 C 
BRANCH  14  17
ATOM     17  C   UNL     1      -0.386  -8.280   3.363  0.00  0.00    +0.378 C 
ATOM     18  O   UNL     1      -0.492  -8.681   2.217  0.00  0.00    -0.244 OA
ATOM     19  O   UNL     1      -0.286  -9.075   4.281  0.00  0.00    -0.244 OA
ENDBRANCH  14  17
ENDBRANCH   4  14
TORSDOF 3
