REMARK  Name = ZINC01500590
REMARK  7 active torsions:
REMARK  status: ('A' for Active; 'I' for Inactive)
REMARK    1  A    between atoms: C_1  and  C_2
REMARK    2  A    between atoms: C_2  and  O_3
REMARK    3  A    between atoms: O_3  and  C_4
REMARK    4  A    between atoms: C_4  and  C_6
REMARK    5  A    between atoms: C_16  and  C_18
REMARK    6  A    between atoms: N_21  and  S_23
REMARK    7  A    between atoms: S_23  and  C_26
REMARK                            x       y       z     vdW  Elec       q    Type
REMARK                         _______ _______ _______ _____ _____    ______ ____
ROOT
ATOM      1  C   UNL     1       6.175   0.870   4.728  0.00  0.00    +0.101 C 
ATOM      2  C   UNL     1       4.804   1.492   5.004  0.00  0.00    +0.033 C 
ATOM      3  C   UNL     1       3.711   0.566   4.465  0.00  0.00    +0.107 C 
ATOM      4  N   UNL     1       3.900   0.371   3.022  0.00  0.00    -0.315 N 
ATOM      5  C   UNL     1       5.190  -0.269   2.737  0.00  0.00    +0.107 C 
ATOM      6  C   UNL     1       6.327   0.633   3.223  0.00  0.00    +0.033 C 
ATOM      7  C   UNL     1       2.854  -0.357   2.478  0.00  0.00    +0.130 A 
ATOM      8  C   UNL     1       2.027   0.210   1.501  0.00  0.00    +0.030 A 
ATOM      9  C   UNL     1       1.008  -0.548   0.982  0.00  0.00    +0.052 A 
ATOM     10  N   UNL     1       0.837  -1.789   1.437  0.00  0.00    -0.237 NA
ATOM     11  C   UNL     1       1.626  -2.294   2.360  0.00  0.00    +0.128 A 
ATOM     12  N   UNL     1       2.621  -1.602   2.877  0.00  0.00    -0.217 NA
ATOM     13  C   UNL     1       1.386  -3.703   2.838  0.00  0.00    +0.088 C 
ATOM     14  C   UNL     1       0.073  -0.043  -0.082  0.00  0.00    +0.073 C 
ATOM     15  C   UNL     1       0.082   1.485  -0.130  0.00  0.00    +0.116 C 
ATOM     16  N   UNL     1       1.484   1.933  -0.122  0.00  0.00    -0.171 NA
ATOM     17  C   UNL     1       2.282   1.631   1.073  0.00  0.00    +0.149 C 
ENDROOT
BRANCH  16  18
ATOM     18  S   UNL     1       2.135   2.746  -1.409  0.00  0.00    +0.067 S 
ATOM     19  O   UNL     1       3.540   2.538  -1.352  0.00  0.00    -0.152 OA
ATOM     20  O   UNL     1       1.359   2.395  -2.546  0.00  0.00    -0.152 OA
BRANCH  18  21
ATOM     21  C   UNL     1       1.869   4.465  -1.129  0.00  0.00    +0.143 A 
ATOM     22  C   UNL     1       2.662   5.358  -0.488  0.00  0.00    +0.036 A 
ATOM     23  C   UNL     1       2.246   6.673  -0.387  0.00  0.00    +0.010 A 
ATOM     24  C   UNL     1       1.057   7.029  -0.932  0.00  0.00    +0.047 A 
ATOM     25  S   UNL     1       0.488   5.484  -1.621  0.00  0.00    -0.077 S 
ENDBRANCH  18  21
ENDBRANCH  16  18
BRANCH   1  26
ATOM     26  C   UNL     1       7.257   1.805   5.204  0.00  0.00    +0.310 C 
ATOM     27  O   UNL     1       6.963   2.861   5.711  0.00  0.00    -0.251 OA
BRANCH  26  28
ATOM     28  O   UNL     1       8.548   1.465   5.064  0.00  0.00    -0.465 OA
BRANCH  28  30
ATOM     29  C   UNL     1      10.940   1.856   5.301  0.00  0.00    +0.048 C 
ATOM     30  C   UNL     1       9.536   2.414   5.545  0.00  0.00    +0.229 C 
ENDBRANCH  28  30
ENDBRANCH  26  28
ENDBRANCH   1  26
TORSDOF 5
