REMARK  Name = ZINC03343886
REMARK  15 active torsions:
REMARK  status: ('A' for Active; 'I' for Inactive)
REMARK    1  A    between atoms: C_1  and  C_2
REMARK    2  A    between atoms: C_2  and  O_3
REMARK    3  A    between atoms: O_3  and  C_4
REMARK    4  A    between atoms: C_4  and  C_6
REMARK    5  A    between atoms: C_10  and  N_11
REMARK    6  A    between atoms: C_12  and  C_14
REMARK    7  A    between atoms: C_14  and  C_16
REMARK    8  A    between atoms: C_14  and  O_17
REMARK    9  A    between atoms: O_17  and  C_18
REMARK   10  A    between atoms: C_18  and  C_20
REMARK   11  A    between atoms: C_20  and  N_21
REMARK   12  A    between atoms: C_22  and  C_24
REMARK   13  A    between atoms: C_26  and  C_31
REMARK   14  A    between atoms: C_28  and  C_30
REMARK   15  A    between atoms: C_33  and  C_37
REMARK                            x       y       z     vdW  Elec       q    Type
REMARK                         _______ _______ _______ _____ _____    ______ ____
ROOT
ATOM      1  N   UNL     1      -2.307  -5.916   0.763  0.00  0.00    -0.276 N 
ATOM      2  C   UNL     1      -3.571  -6.204   0.395  0.00  0.00    +0.258 C 
ATOM      3  O   UNL     1      -4.298  -5.324  -0.014  0.00  0.00    -0.271 OA
ATOM      4  H   UNL     1      -1.725  -6.620   1.090  0.00  0.00    +0.155 HD
ENDROOT
BRANCH   1   9
ATOM      5  C   UNL     1      -0.579  -4.127   0.999  0.00  0.00    +0.091 A 
ATOM      6  C   UNL     1      -0.341  -2.706   0.809  0.00  0.00    -0.021 A 
ATOM      7  C   UNL     1      -1.390  -2.006   0.327  0.00  0.00    -0.004 A 
ATOM      8  S   UNL     1      -2.678  -3.203   0.124  0.00  0.00    -0.077 S 
ATOM      9  C   UNL     1      -1.837  -4.615   0.672  0.00  0.00    +0.086 A 
ATOM     10  C   UNL     1      -1.437  -0.538   0.031  0.00  0.00    +0.046 C 
ATOM     11  C   UNL     1       0.002  -0.004   0.002  0.00  0.00    -0.009 C 
ATOM     12  C   UNL     1       0.742  -0.514   1.242  0.00  0.00    +0.008 C 
ATOM     13  C   UNL     1       0.984  -2.020   1.121  0.00  0.00    +0.037 C 
ATOM     14  C   UNL     1      -0.019   1.526   0.010  0.00  0.00    +0.008 C 
BRANCH   5  15
ATOM     15  C   UNL     1       0.468  -5.011   1.516  0.00  0.00    +0.342 C 
ATOM     16  O   UNL     1       0.575  -5.191   2.714  0.00  0.00    -0.245 OA
BRANCH  15  17
ATOM     17  O   UNL     1       1.314  -5.624   0.663  0.00  0.00    -0.461 OA
BRANCH  17  19
ATOM     18  C   UNL     1       3.186  -7.089   0.133  0.00  0.00    +0.048 C 
ATOM     19  C   UNL     1       2.327  -6.486   1.246  0.00  0.00    +0.229 C 
ENDBRANCH  17  19
ENDBRANCH  15  17
ENDBRANCH   5  15
ENDBRANCH   1   9
BRANCH   2  20
ATOM     20  C   UNL     1      -4.081  -7.618   0.494  0.00  0.00    +0.259 C 
ATOM     21  C   UNL     1      -3.224  -8.532  -0.385  0.00  0.00    +0.062 C 
BRANCH  20  22
ATOM     22  O   UNL     1      -5.460  -7.668   0.043  0.00  0.00    -0.451 OA
BRANCH  22  23
ATOM     23  C   UNL     1      -6.250  -8.601   0.597  0.00  0.00    +0.325 C 
ATOM     24  O   UNL     1      -5.803  -9.352   1.431  0.00  0.00    -0.249 OA
BRANCH  23  25
ATOM     25  C   UNL     1      -7.693  -8.713   0.179  0.00  0.00    +0.225 C 
BRANCH  25  26
ATOM     26  N   UNL     1      -8.335  -9.799   0.923  0.00  0.00    -0.301 N 
ATOM     27  C   UNL     1      -9.635 -10.085   0.713  0.00  0.00    +0.245 C 
ATOM     28  O   UNL     1     -10.275  -9.441  -0.095  0.00  0.00    -0.270 OA
ATOM     29  H   UNL     1      -7.824 -10.313   1.568  0.00  0.00    +0.150 HD
BRANCH  27  30
ATOM     30  C   UNL     1     -10.282 -11.181   1.464  0.00  0.00    +0.037 A 
ATOM     31  C   UNL     1      -9.549 -11.926   2.388  0.00  0.00    +0.016 A 
ATOM     32  C   UNL     1     -10.160 -12.945   3.090  0.00  0.00    -0.049 A 
ATOM     33  C   UNL     1     -11.495 -13.235   2.871  0.00  0.00    +0.006 A 
ATOM     34  C   UNL     1     -12.227 -12.504   1.952  0.00  0.00    -0.049 A 
ATOM     35  C   UNL     1     -11.629 -11.479   1.248  0.00  0.00    +0.016 A 
ATOM     36  C   UNL     1     -13.680 -12.827   1.720  0.00  0.00    +0.044 C 
ATOM     37  C   UNL     1      -9.371 -13.746   4.092  0.00  0.00    +0.044 C 
ENDBRANCH  27  30
ENDBRANCH  25  26
ENDBRANCH  23  25
ENDBRANCH  22  23
ENDBRANCH  20  22
ENDBRANCH   2  20
TORSDOF 10
