REMARK  Name = ZINC44878466
REMARK  9 active torsions:
REMARK  status: ('A' for Active; 'I' for Inactive)
REMARK    1  A    between atoms: C_1  and  C_2
REMARK    2  A    between atoms: N_7  and  C_9
REMARK    3  A    between atoms: C_9  and  C_10
REMARK    4  A    between atoms: C_13  and  C_16
REMARK    5  A    between atoms: C_16  and  N_17
REMARK    6  A    between atoms: N_17  and  S_18
REMARK    7  A    between atoms: S_18  and  C_21
REMARK    8  A    between atoms: C_24  and  O_28
REMARK    9  A    between atoms: O_28  and  C_29
REMARK                            x       y       z     vdW  Elec       q    Type
REMARK                         _______ _______ _______ _____ _____    ______ ____
ROOT
ATOM      1  C   UNL     1       1.666  -3.960   2.315  0.00  0.00    -0.064 A 
ATOM      2  C   UNL     1       0.713  -4.769   2.905  0.00  0.00    +0.002 A 
ATOM      3  C   UNL     1       0.834  -6.144   2.837  0.00  0.00    +0.005 A 
ATOM      4  C   UNL     1       1.909  -6.711   2.177  0.00  0.00    -0.032 A 
ATOM      5  C   UNL     1       2.861  -5.902   1.585  0.00  0.00    +0.005 A 
ATOM      6  C   UNL     1       2.737  -4.527   1.651  0.00  0.00    +0.002 A 
ENDROOT
BRANCH   1   7
ATOM      7  C   UNL     1       1.534  -2.461   2.390  0.00  0.00    -0.043 C 
BRANCH   7  13
ATOM      8  C   UNL     1      -0.019   1.526   0.010  0.00  0.00    +0.005 C 
ATOM      9  C   UNL     1       0.002  -0.004   0.002  0.00  0.00    -0.031 C 
ATOM     10  C   UNL     1      -1.434  -0.535   0.015  0.00  0.00    -0.001 C 
ATOM     11  C   UNL     1      -1.402  -2.064   0.086  0.00  0.00    -0.018 C 
ATOM     12  C   UNL     1      -0.613  -2.496   1.324  0.00  0.00    -0.078 C 
ATOM     13  N   UNL     1       0.758  -1.980   1.239  0.00  0.00    +0.383 N 
ATOM     14  C   UNL     1       0.740  -0.512   1.242  0.00  0.00    -0.075 C 
ATOM     15  H   UNL     1       1.188  -2.307   0.386  0.00  0.00    -0.081 HD
ENDBRANCH   7  13
ENDBRANCH   1   7
BRANCH   4  16
ATOM     16  C   UNL     1       2.042  -8.210   2.102  0.00  0.00    +0.141 C 
BRANCH  16  17
ATOM     17  N   UNL     1       1.359  -8.702   0.903  0.00  0.00    -0.186 NA
ATOM     18  H   UNL     1       0.740  -8.127   0.427  0.00  0.00    +0.148 HD
BRANCH  17  19
ATOM     19  S   UNL     1       1.646 -10.240   0.359  0.00  0.00    +0.059 S 
ATOM     20  O   UNL     1       0.828 -10.424  -0.788  0.00  0.00    -0.153 OA
ATOM     21  O   UNL     1       3.057 -10.402   0.323  0.00  0.00    -0.153 OA
BRANCH  19  22
ATOM     22  C   UNL     1       1.044 -11.348   1.590  0.00  0.00    +0.106 A 
ATOM     23  C   UNL     1       1.879 -11.767   2.610  0.00  0.00    +0.032 A 
ATOM     24  C   UNL     1       1.410 -12.635   3.576  0.00  0.00    +0.048 A 
ATOM     25  C   UNL     1       0.099 -13.087   3.524  0.00  0.00    +0.133 A 
ATOM     26  C   UNL     1      -0.737 -12.666   2.500  0.00  0.00    +0.057 A 
ATOM     27  C   UNL     1      -0.264 -11.793   1.538  0.00  0.00    +0.046 A 
ATOM     28  I   UNL     1      -2.717 -13.346   2.416  0.00  0.00    -0.040 I 
BRANCH  25  29
ATOM     29  O   UNL     1      -0.364 -13.942   4.473  0.00  0.00    -0.494 OA
ATOM     30  C   UNL     1       0.552 -14.333   5.497  0.00  0.00    +0.277 C 
ENDBRANCH  25  29
ENDBRANCH  19  22
ENDBRANCH  17  19
ENDBRANCH  16  17
ENDBRANCH   4  16
TORSDOF 7
