REMARK  Name = ZINC44973565
REMARK  10 active torsions:
REMARK  status: ('A' for Active; 'I' for Inactive)
REMARK    1  A    between atoms: C_1  and  C_2
REMARK    2  A    between atoms: C_5  and  C_8
REMARK    3  A    between atoms: C_13  and  S_26
REMARK    4  A    between atoms: C_22  and  C_24
REMARK    5  A    between atoms: C_22  and  C_25
REMARK    6  A    between atoms: S_26  and  C_27
REMARK    7  A    between atoms: C_27  and  C_28
REMARK    8  A    between atoms: C_28  and  C_29
REMARK    9  A    between atoms: C_29  and  C_30
REMARK   10  A    between atoms: C_29  and  C_31
REMARK                            x       y       z     vdW  Elec       q    Type
REMARK                         _______ _______ _______ _____ _____    ______ ____
ROOT
ATOM      1  C   UNL     1       0.059  -4.275  -0.021  0.00  0.00    +0.090 C 
ATOM      2  C   UNL     1      -1.168  -4.785   0.670  0.00  0.00    +0.044 A 
ATOM      3  C   UNL     1      -2.405  -4.766   0.030  0.00  0.00    +0.126 A 
ATOM      4  N   UNL     1      -3.473  -5.224   0.679  0.00  0.00    -0.207 NA
ATOM      5  C   UNL     1      -3.369  -5.692   1.914  0.00  0.00    +0.192 A 
ATOM      6  N   UNL     1      -2.207  -5.726   2.552  0.00  0.00    -0.206 NA
ATOM      7  C   UNL     1      -1.099  -5.285   1.963  0.00  0.00    +0.133 A 
ATOM      8  N   UNL     1       0.119  -5.323   2.620  0.00  0.00    -0.302 N 
ATOM      9  C   UNL     1       1.290  -5.245   1.917  0.00  0.00    +0.017 C 
ATOM     10  C   UNL     1       1.315  -4.756   0.661  0.00  0.00    +0.024 C 
ATOM     11  C   UNL     1       2.521  -4.675  -0.058  0.00  0.00    +0.162 C 
ATOM     12  O   UNL     1       2.509  -4.248  -1.195  0.00  0.00    -0.292 OA
ATOM     13  C   UNL     1       3.826  -5.106   0.553  0.00  0.00    +0.086 C 
ATOM     14  C   UNL     1       3.747  -4.927   2.073  0.00  0.00    -0.023 C 
ATOM     15  C   UNL     1       2.553  -5.727   2.589  0.00  0.00    +0.058 C 
ATOM     16  C   UNL     1       5.033  -5.446   2.720  0.00  0.00    +0.011 C 
ATOM     17  C   UNL     1       3.561  -3.446   2.409  0.00  0.00    +0.011 C 
ATOM     18  N   UNL     1      -2.521  -4.277  -1.262  0.00  0.00    -0.343 N 
ATOM     19  H   UNL     1       0.142  -5.405   3.587  0.00  0.00    +0.153 HD
ATOM     20  H   UNL     1      -1.738  -3.945  -1.727  0.00  0.00    +0.144 HD
ATOM     21  H   UNL     1      -3.386  -4.268  -1.701  0.00  0.00    +0.144 HD
ENDROOT
BRANCH   1  26
ATOM     22  C   UNL     1      -0.018   1.503   0.010  0.00  0.00    +0.044 C 
ATOM     23  C   UNL     1       0.002  -0.004   0.002  0.00  0.00    -0.050 A 
ATOM     24  C   UNL     1       0.006  -0.689  -1.199  0.00  0.00    +0.003 A 
ATOM     25  C   UNL     1       0.025  -2.071  -1.206  0.00  0.00    +0.005 A 
ATOM     26  C   UNL     1       0.040  -2.768  -0.013  0.00  0.00    -0.035 A 
ATOM     27  C   UNL     1       0.037  -2.084   1.188  0.00  0.00    +0.005 A 
ATOM     28  C   UNL     1       0.023  -0.702   1.195  0.00  0.00    +0.003 A 
ENDBRANCH   1  26
BRANCH   5  29
ATOM     29  S   UNL     1      -4.813  -6.284   2.732  0.00  0.00    -0.086 S 
BRANCH  29  30
ATOM     30  C   UNL     1      -6.135  -6.050   1.512  0.00  0.00    +0.078 C 
BRANCH  30  31
ATOM     31  C   UNL     1      -7.463  -6.531   2.100  0.00  0.00    +0.014 C 
BRANCH  31  32
ATOM     32  C   UNL     1      -8.578  -6.333   1.071  0.00  0.00    -0.016 C 
ATOM     33  C   UNL     1      -8.321  -7.235  -0.138  0.00  0.00    +0.007 C 
ATOM     34  C   UNL     1      -9.924  -6.696   1.701  0.00  0.00    +0.007 C 
ENDBRANCH  31  32
ENDBRANCH  30  31
ENDBRANCH  29  30
ENDBRANCH   5  29
TORSDOF 5
