REMARK  Name = ZINC65963975
REMARK  11 active torsions:
REMARK  status: ('A' for Active; 'I' for Inactive)
REMARK    1  A    between atoms: C_1  and  C_2
REMARK    2  A    between atoms: C_2  and  C_3
REMARK    3  A    between atoms: C_2  and  C_4
REMARK    4  A    between atoms: C_4  and  C_5
REMARK    5  A    between atoms: C_4  and  N_12
REMARK    6  A    between atoms: N_7  and  C_8
REMARK    7  A    between atoms: C_8  and  C_9
REMARK    8  A    between atoms: C_8  and  C_10
REMARK    9  A    between atoms: C_8  and  C_11
REMARK   10  A    between atoms: C_15  and  N_18
REMARK   11  A    between atoms: C_19  and  C_21
REMARK                            x       y       z     vdW  Elec       q    Type
REMARK                         _______ _______ _______ _____ _____    ______ ____
ROOT
ATOM      1  N   UNL     1       0.863  -1.980   1.274  0.00  0.00    +0.388 N 
ATOM      2  C   UNL     1       1.744  -2.343   2.391  0.00  0.00    -0.076 C 
ATOM      3  C   UNL     1       1.938  -3.860   2.421  0.00  0.00    +0.004 C 
ATOM      4  C   UNL     1       0.577  -4.540   2.601  0.00  0.00    +0.069 C 
ATOM      5  C   UNL     1      -0.357  -4.096   1.472  0.00  0.00    +0.004 C 
ATOM      6  C   UNL     1      -0.466  -2.570   1.477  0.00  0.00    -0.076 C 
ATOM      7  H   UNL     1       1.256  -2.327   0.412  0.00  0.00    -0.081 HD
ENDROOT
BRANCH   4   8
ATOM      8  N   UNL     1       0.746  -5.994   2.555  0.00  0.00    -0.312 N 
ATOM      9  C   UNL     1      -0.148  -6.796   3.166  0.00  0.00    +0.216 C 
ATOM     10  O   UNL     1      -1.093  -6.314   3.754  0.00  0.00    -0.276 OA
ATOM     11  H   UNL     1       1.502  -6.380   2.084  0.00  0.00    +0.149 HD
BRANCH   9  12
ATOM     12  C   UNL     1       0.026  -8.293   3.118  0.00  0.00    +0.075 C 
ATOM     13  C   UNL     1       1.362  -8.672   3.760  0.00  0.00    +0.013 C 
ATOM     14  C   UNL     1       1.538 -10.191   3.712  0.00  0.00    +0.001 C 
ATOM     15  C   UNL     1       0.396 -10.861   4.477  0.00  0.00    +0.000 C 
ATOM     16  C   UNL     1      -0.940 -10.482   3.834  0.00  0.00    +0.001 C 
ATOM     17  C   UNL     1      -1.117  -8.963   3.883  0.00  0.00    +0.013 C 
ENDBRANCH   9  12
ENDBRANCH   4   8
BRANCH   1  18
ATOM     18  C   UNL     1       0.742  -0.518   1.202  0.00  0.00    +0.022 C 
BRANCH  18  19
ATOM     19  C   UNL     1       2.107   0.089   1.000  0.00  0.00    +0.200 C 
ATOM     20  O   UNL     1       2.970  -0.538   0.425  0.00  0.00    -0.278 OA
ATOM     21  N   UNL     1       2.367   1.330   1.458  0.00  0.00    -0.312 N 
ATOM     22  H   UNL     1       1.701   1.803   1.981  0.00  0.00    +0.149 HD
BRANCH  21  23
ATOM     23  C   UNL     1       3.655   1.963   1.166  0.00  0.00    +0.026 C 
ATOM     24  C   UNL     1       3.832   2.084  -0.349  0.00  0.00    +0.031 C 
ATOM     25  C   UNL     1       3.692   3.357   1.796  0.00  0.00    +0.031 C 
ATOM     26  C   UNL     1       4.785   1.111   1.745  0.00  0.00    +0.031 C 
ENDBRANCH  21  23
ENDBRANCH  18  19
BRANCH  18  28
ATOM     27  C   UNL     1      -0.341   1.381  -0.007  0.00  0.00    +0.006 C 
ATOM     28  C   UNL     1      -0.164  -0.138   0.029  0.00  0.00    -0.022 C 
ATOM     29  C   UNL     1       0.472  -0.610  -1.280  0.00  0.00    +0.006 C 
ENDBRANCH  18  28
ENDBRANCH   1  18
TORSDOF 6
