REMARK  Name = ZINC02095017
REMARK  10 active torsions:
REMARK  status: ('A' for Active; 'I' for Inactive)
REMARK    1  A    between atoms: C_1  and  C_2
REMARK    2  A    between atoms: C_2  and  O_3
REMARK    3  A    between atoms: O_3  and  C_4
REMARK    4  A    between atoms: C_8  and  C_10
REMARK    5  A    between atoms: C_10  and  C_12
REMARK    6  A    between atoms: C_10  and  N_24
REMARK    7  A    between atoms: C_18  and  C_23
REMARK    8  A    between atoms: C_21  and  O_22
REMARK    9  A    between atoms: N_24  and  C_25
REMARK   10  A    between atoms: C_29  and  C_30
REMARK                            x       y       z     vdW  Elec       q    Type
REMARK                         _______ _______ _______ _____ _____    ______ ____
ROOT
ATOM      1  C   UNL     1      -0.065   5.346   0.009  0.00  0.00    +0.136 C 
ENDROOT
BRANCH   1   2
ATOM      2  C   UNL     1      -0.387   5.928   1.361  0.00  0.00    +0.021 A 
ATOM      3  C   UNL     1      -1.711   6.206   1.690  0.00  0.00    +0.010 A 
ATOM      4  C   UNL     1      -2.035   6.733   2.903  0.00  0.00    +0.010 A 
ATOM      5  C   UNL     1      -1.022   7.000   3.839  0.00  0.00    +0.004 A 
ATOM      6  C   UNL     1      -1.319   7.544   5.104  0.00  0.00    +0.012 A 
ATOM      7  C   UNL     1      -0.283   7.777   5.963  0.00  0.00    +0.023 A 
ATOM      8  C   UNL     1       1.022   7.478   5.577  0.00  0.00    +0.039 A 
ATOM      9  N   UNL     1       1.293   6.972   4.399  0.00  0.00    -0.248 NA
ATOM     10  C   UNL     1       0.327   6.720   3.511  0.00  0.00    +0.113 A 
ATOM     11  C   UNL     1       0.624   6.170   2.247  0.00  0.00    +0.148 A 
ATOM     12  C   UNL     1       2.150   7.743   6.540  0.00  0.00    +0.065 C 
BRANCH  11  13
ATOM     13  O   UNL     1       1.909   5.886   1.911  0.00  0.00    -0.504 OA
ATOM     14  H   UNL     1       2.375   6.619   1.484  0.00  0.00    +0.292 HD
ENDBRANCH  11  13
ENDBRANCH   1   2
BRANCH   1  19
ATOM     15  C   UNL     1       1.278   1.817   0.161  0.00  0.00    +0.121 A 
ATOM     16  C   UNL     1       0.108   1.084   0.298  0.00  0.00    +0.045 A 
ATOM     17  C   UNL     1      -1.111   1.732   0.336  0.00  0.00    +0.004 A 
ATOM     18  C   UNL     1      -1.165   3.111   0.248  0.00  0.00    +0.006 A 
ATOM     19  C   UNL     1      -0.001   3.844   0.111  0.00  0.00    -0.019 A 
ATOM     20  C   UNL     1       1.221   3.200   0.067  0.00  0.00    +0.051 A 
BRANCH  15  21
ATOM     21  O   UNL     1       2.479   1.181   0.117  0.00  0.00    -0.492 OA
BRANCH  21  23
ATOM     22  C   UNL     1       3.895  -0.776   0.151  0.00  0.00    +0.048 C 
ATOM     23  C   UNL     1       2.462  -0.244   0.219  0.00  0.00    +0.225 C 
ENDBRANCH  21  23
ENDBRANCH  15  21
ENDBRANCH   1  19
BRANCH   1  24
ATOM     24  N   UNL     1      -1.107   5.726  -0.948  0.00  0.00    -0.320 N 
ATOM     25  H   UNL     1      -1.860   5.136  -1.105  0.00  0.00    +0.148 HD
BRANCH  24  26
ATOM     26  C   UNL     1      -1.017   6.934  -1.630  0.00  0.00    +0.097 A 
ATOM     27  C   UNL     1      -0.004   7.833  -1.310  0.00  0.00    +0.041 A 
ATOM     28  C   UNL     1       0.074   9.031  -1.996  0.00  0.00    +0.005 A 
ATOM     29  C   UNL     1      -0.867   9.291  -2.985  0.00  0.00    +0.021 A 
ATOM     30  C   UNL     1      -1.845   8.354  -3.251  0.00  0.00    +0.014 A 
ATOM     31  C   UNL     1      -2.868   8.630  -4.322  0.00  0.00    +0.063 C 
ATOM     32  N   UNL     1      -1.948   7.164  -2.600  0.00  0.00    -0.347 N 
ATOM     33  H   UNL     1      -2.681   6.481  -2.825  0.00  0.00    +0.167 HD
ENDBRANCH  24  26
ENDBRANCH   1  24
TORSDOF 7
