REMARK  Name = ZINC20005029
REMARK  5 active torsions:
REMARK  status: ('A' for Active; 'I' for Inactive)
REMARK    1  A    between atoms: C_3  and  C_12
REMARK    2  A    between atoms: C_6  and  C_7
REMARK    3  A    between atoms: N_8  and  O_9
REMARK    4  A    between atoms: C_12  and  S_13
REMARK    5  A    between atoms: S_13  and  C_14
REMARK                            x       y       z     vdW  Elec       q    Type
REMARK                         _______ _______ _______ _____ _____    ______ ____
ROOT
ATOM      1  C   UNL     1       5.009   7.940  -1.208  0.00  0.00    +0.012 A 
ATOM      2  C   UNL     1       3.898   7.121  -1.195  0.00  0.00    +0.008 A 
ATOM      3  C   UNL     1       3.354   6.706   0.007  0.00  0.00    -0.002 A 
ATOM      4  C   UNL     1       3.918   7.114   1.206  0.00  0.00    +0.128 A 
ATOM      5  C   UNL     1       5.033   7.929   1.205  0.00  0.00    +0.050 A 
ATOM      6  C   UNL     1       5.585   8.350  -0.005  0.00  0.00    +0.020 A 
ATOM      7  F   UNL     1       3.378   6.710   2.377  0.00  0.00    -0.205 F 
ENDROOT
BRANCH   6   8
ATOM      8  C   UNL     1       6.776   9.228  -0.014  0.00  0.00    +0.162 C 
ATOM      9  N   UNL     1       7.288   9.619  -1.143  0.00  0.00    -0.072 NA
ATOM     10  N   UNL     1       7.346   9.633   1.182  0.00  0.00    -0.340 N 
ATOM     11  H   UNL     1       8.231  10.286   1.175  0.00  0.00    +0.144 HD
ATOM     12  H   UNL     1       6.913   9.303   2.137  0.00  0.00    +0.144 HD
BRANCH   9  13
ATOM     13  O   UNL     1       8.428  10.460  -1.151  0.00  0.00    -0.408 OA
ATOM     14  H   UNL     1       8.861  10.790  -2.107  0.00  0.00    +0.328 HD
ENDBRANCH   9  13
ENDBRANCH   6   8
BRANCH   3  15
ATOM     15  C   UNL     1       2.141   5.813   0.013  0.00  0.00    +0.112 C 
BRANCH  15  16
ATOM     16  S   UNL     1       2.667   4.077  -0.001  0.00  0.00    -0.119 S 
BRANCH  16  17
ATOM     17  C   UNL     1       1.155   3.172   0.008  0.00  0.00    +0.028 A 
ATOM     18  C   UNL     1      -0.059   3.847   0.023  0.00  0.00    +0.036 A 
ATOM     19  C   UNL     1      -1.243   3.134   0.031  0.00  0.00    +0.042 A 
ATOM     20  C   UNL     1      -1.220   1.750   0.017  0.00  0.00    +0.021 A 
ATOM     21  C   UNL     1      -0.013   1.076   0.008  0.00  0.00    +0.022 A 
ATOM     22  C   UNL     1       1.175   1.782   0.000  0.00  0.00    +0.054 A 
ATOM     23 CL   UNL     1       2.690   0.935  -0.018  0.00  0.00    -0.082 Cl
ATOM     24 CL   UNL     1      -2.762   3.975   0.050  0.00  0.00    -0.084 Cl
ENDBRANCH  16  17
ENDBRANCH  15  16
ENDBRANCH   3  15
TORSDOF 5
