REMARK  Name = ZINC29648684
REMARK  6 active torsions:
REMARK  status: ('A' for Active; 'I' for Inactive)
REMARK    1  A    between atoms: C_1  and  C_2
REMARK    2  A    between atoms: C_4  and  C_16
REMARK    3  A    between atoms: C_21  and  C_24
REMARK    4  A    between atoms: C_26  and  C_30
REMARK    5  A    between atoms: C_30  and  O_32
REMARK    6  A    between atoms: O_32  and  C_33
REMARK                            x       y       z     vdW  Elec       q    Type
REMARK                         _______ _______ _______ _____ _____    ______ ____
ROOT
ATOM      1  C   UNL     1       0.285   3.442   5.078  0.00  0.00    +0.252 C 
ATOM      2  O   UNL     1       1.316   3.292   4.450  0.00  0.00    -0.270 OA
ATOM      3  N   UNL     1       0.318   4.003   6.303  0.00  0.00    -0.261 N 
ATOM      4  C   UNL     1       1.529   4.408   6.849  0.00  0.00    +0.165 A 
ATOM      5  N   UNL     1       1.760   4.969   8.018  0.00  0.00    -0.225 NA
ATOM      6  C   UNL     1       2.989   5.298   8.391  0.00  0.00    +0.082 A 
ATOM      7  C   UNL     1       4.013   5.038   7.526  0.00  0.00    +0.077 A 
ATOM      8  S   UNL     1       3.121   4.297   6.166  0.00  0.00    -0.060 S 
ATOM      9  H   UNL     1      -0.614   4.139   6.870  0.00  0.00    +0.157 HD
ENDROOT
BRANCH   1  13
ATOM     10  C   UNL     1      -4.675   2.931   5.380  0.00  0.00    +0.065 C 
ATOM     11  C   UNL     1      -3.385   2.756   4.620  0.00  0.00    +0.041 A 
ATOM     12  C   UNL     1      -2.199   3.173   5.198  0.00  0.00    +0.038 A 
ATOM     13  C   UNL     1      -1.002   3.011   4.497  0.00  0.00    +0.068 A 
ATOM     14  C   UNL     1      -1.063   2.422   3.217  0.00  0.00    +0.120 A 
ATOM     15  C   UNL     1      -2.318   2.033   2.707  0.00  0.00    +0.161 A 
ATOM     16  N   UNL     1      -3.414   2.212   3.421  0.00  0.00    -0.233 NA
ATOM     17  N   UNL     1      -2.065   1.509   1.457  0.00  0.00    -0.312 N 
ATOM     18  C   UNL     1      -0.721   1.574   1.250  0.00  0.00    +0.112 A 
ATOM     19  N   UNL     1      -0.141   2.116   2.285  0.00  0.00    -0.230 NA
ATOM     20  C   UNL     1      -0.013   1.086   0.008  0.00  0.00    +0.074 C 
ATOM     21  C   UNL     1      -0.754   1.593  -1.231  0.00  0.00    +0.008 C 
ATOM     22  C   UNL     1      -1.839   0.595  -1.622  0.00  0.00    +0.002 C 
ATOM     23  C   UNL     1      -2.422  -0.072  -0.377  0.00  0.00    +0.022 C 
ATOM     24  C   UNL     1      -3.064   0.987   0.520  0.00  0.00    +0.125 C 
ENDBRANCH   1  13
BRANCH   6  25
ATOM     25  C   UNL     1       3.244   5.930   9.710  0.00  0.00    +0.019 A 
ATOM     26  C   UNL     1       2.291   6.162  10.720  0.00  0.00    +0.044 A 
ATOM     27  C   UNL     1       2.956   6.762  11.768  0.00  0.00    +0.125 A 
ATOM     28  N   UNL     1       4.276   6.901  11.403  0.00  0.00    -0.355 N 
ATOM     29  H   UNL     1       4.992   7.366  12.097  0.00  0.00    +0.166 HD
ATOM     30  C   UNL     1       4.444   6.399  10.162  0.00  0.00    +0.093 A 
BRANCH  27  31
ATOM     31  C   UNL     1       2.362   7.181  13.040  0.00  0.00    +0.355 C 
ATOM     32  O   UNL     1       1.177   7.003  13.246  0.00  0.00    -0.243 OA
BRANCH  31  33
ATOM     33  O   UNL     1       3.130   7.766  13.982  0.00  0.00    -0.463 OA
ATOM     34  C   UNL     1       2.475   8.156  15.218  0.00  0.00    +0.280 C 
ENDBRANCH  31  33
ENDBRANCH  27  31
ENDBRANCH   6  25
TORSDOF 4
