REMARK  Name = ZINC09007502
REMARK  13 active torsions:
REMARK  status: ('A' for Active; 'I' for Inactive)
REMARK    1  A    between atoms: C_1  and  C_2
REMARK    2  A    between atoms: C_2  and  O_3
REMARK    3  A    between atoms: O_3  and  C_4
REMARK    4  A    between atoms: C_7  and  C_10
REMARK    5  A    between atoms: C_13  and  C_14
REMARK    6  A    between atoms: C_13  and  O_25
REMARK    7  A    between atoms: C_15  and  C_24
REMARK    8  A    between atoms: C_22  and  C_23
REMARK    9  A    between atoms: N_30  and  C_31
REMARK   10  A    between atoms: C_31  and  C_32
REMARK   11  A    between atoms: C_32  and  N_64
REMARK   12  A    between atoms: C_33  and  N_64
REMARK   13  A    between atoms: C_34  and  N_64
REMARK                            x       y       z     vdW  Elec       q    Type
REMARK                         _______ _______ _______ _____ _____    ______ ____
ROOT
ATOM      1  C   UNL     1       0.648   3.397   0.014  0.00  0.00    +0.144 C 
ATOM      2  C   UNL     1      -0.863   3.386   0.029  0.00  0.00    +0.073 C 
ATOM      3  C   UNL     1      -1.706   4.493   0.042  0.00  0.00    +0.151 C 
ATOM      4  C   UNL     1      -1.243   2.045   0.018  0.00  0.00    +0.249 C 
ATOM      5  O   UNL     1      -2.389   1.627   0.021  0.00  0.00    -0.282 OA
ATOM      6  C   UNL     1      -0.014   1.210   0.009  0.00  0.00    +0.288 C 
ATOM      7  O   UNL     1       0.002  -0.004   0.002  0.00  0.00    -0.266 OA
ATOM      8  N   UNL     1       1.076   1.995   0.003  0.00  0.00    -0.285 N 
ENDROOT
BRANCH   3   9
ATOM      9  C   UNL     1      -3.104   4.314   0.055  0.00  0.00    +0.111 A 
ATOM     10  C   UNL     1      -3.893   3.834  -0.987  0.00  0.00    +0.068 A 
ATOM     11  N   UNL     1      -5.149   3.817  -0.578  0.00  0.00    -0.232 NA
ATOM     12  C   UNL     1      -5.223   4.260   0.678  0.00  0.00    +0.141 A 
ATOM     13  N   UNL     1      -3.965   4.574   1.107  0.00  0.00    -0.296 N 
ATOM     14  C   UNL     1      -3.760   5.059   2.360  0.00  0.00    +0.093 A 
ATOM     15  C   UNL     1      -4.797   5.229   3.212  0.00  0.00    +0.018 A 
ATOM     16  C   UNL     1      -6.100   4.911   2.806  0.00  0.00    +0.008 A 
ATOM     17  C   UNL     1      -6.314   4.429   1.547  0.00  0.00    -0.008 A 
ATOM     18  C   UNL     1      -7.709   4.083   1.093  0.00  0.00    +0.047 C 
ATOM     19  C   UNL     1      -3.401   3.409  -2.346  0.00  0.00    +0.068 C 
ENDBRANCH   3   9
BRANCH   1  23
ATOM     20  C   UNL     1       2.065   5.390  -3.491  0.00  0.00    +0.121 A 
ATOM     21  C   UNL     1       2.085   6.041  -2.266  0.00  0.00    +0.046 A 
ATOM     22  C   UNL     1       1.627   5.394  -1.134  0.00  0.00    +0.009 A 
ATOM     23  C   UNL     1       1.148   4.100  -1.222  0.00  0.00    -0.022 A 
ATOM     24  C   UNL     1       1.132   3.448  -2.441  0.00  0.00    +0.009 A 
ATOM     25  C   UNL     1       1.584   4.092  -3.576  0.00  0.00    +0.046 A 
BRANCH  20  26
ATOM     26  O   UNL     1       2.515   6.024  -4.606  0.00  0.00    -0.492 OA
BRANCH  26  28
ATOM     27  C   UNL     1       3.008   6.163  -6.967  0.00  0.00    +0.048 C 
ATOM     28  C   UNL     1       2.464   5.293  -5.833  0.00  0.00    +0.225 C 
ENDBRANCH  26  28
ENDBRANCH  20  26
ENDBRANCH   1  23
BRANCH   3  29
ATOM     29  O   UNL     1      -1.185   5.741   0.043  0.00  0.00    -0.504 OA
ATOM     30  H   UNL     1      -1.926   6.412   0.054  0.00  0.00    +0.292 HD
ENDBRANCH   3  29
BRANCH   8  31
ATOM     31  C   UNL     1       2.464   1.527  -0.013  0.00  0.00    +0.090 C 
BRANCH  31  32
ATOM     32  C   UNL     1       2.935   1.371  -1.460  0.00  0.00    -0.060 C 
BRANCH  32  35
ATOM     33  C   UNL     1       4.737   0.515  -2.832  0.00  0.00    -0.097 C 
ATOM     34  C   UNL     1       5.231   1.918  -0.921  0.00  0.00    -0.097 C 
ATOM     35  N   UNL     1       4.328   0.879  -1.459  0.00  0.00    +0.377 N 
ATOM     36  H   UNL     1       4.386   0.045  -0.862  0.00  0.00    -0.083 HD
ENDBRANCH  32  35
ENDBRANCH  31  32
ENDBRANCH   8  31
TORSDOF 8
