REMARK  Name = ZINC44452585
REMARK  3 active torsions:
REMARK  status: ('A' for Active; 'I' for Inactive)
REMARK    1  A    between atoms: C_3  and  C_9
REMARK    2  A    between atoms: N_11  and  C_12
REMARK    3  A    between atoms: C_13  and  C_20
REMARK                            x       y       z     vdW  Elec       q    Type
REMARK                         _______ _______ _______ _____ _____    ______ ____
ROOT
ATOM      1  C   UNL     1       4.830   4.217  -0.023  0.00  0.00    +0.085 A 
ATOM      2  C   UNL     1       5.005   5.590  -0.012  0.00  0.00    +0.069 A 
ATOM      3  C   UNL     1       6.379   6.089  -0.024  0.00  0.00    -0.023 A 
ATOM      4  C   UNL     1       7.314   5.123  -0.046  0.00  0.00    -0.004 A 
ATOM      5  S   UNL     1       6.392   3.607  -0.041  0.00  0.00    -0.077 S 
ATOM      6  C   UNL     1       8.708   5.690  -0.061  0.00  0.00    +0.043 C 
ATOM      7  C   UNL     1       8.523   7.166  -0.479  0.00  0.00    +0.010 C 
ATOM      8  C   UNL     1       7.080   7.447  -0.016  0.00  0.00    +0.037 C 
ENDROOT
BRANCH   2   9
ATOM      9  C   UNL     1       3.861   6.505   0.010  0.00  0.00    +0.254 C 
ATOM     10  O   UNL     1       3.399   6.875   1.073  0.00  0.00    -0.270 OA
ATOM     11  N   UNL     1       3.321   6.936  -1.147  0.00  0.00    -0.236 N 
ATOM     12  C   UNL     1       2.269   7.778  -1.127  0.00  0.00    +0.304 C 
ATOM     13  O   UNL     1       1.807   8.148  -0.065  0.00  0.00    -0.253 OA
ATOM     14  N   UNL     1       1.728   8.209  -2.284  0.00  0.00    -0.313 N 
ATOM     15  H   UNL     1       3.690   6.641  -1.994  0.00  0.00    +0.159 HD
ATOM     16  H   UNL     1       2.097   7.914  -3.131  0.00  0.00    +0.146 HD
ATOM     17  H   UNL     1       0.971   8.815  -2.269  0.00  0.00    +0.146 HD
ENDBRANCH   2   9
BRANCH   1  20
ATOM     18  C   UNL     1       3.655   2.163  -0.022  0.00  0.00    +0.250 C 
ATOM     19  O   UNL     1       4.715   1.568  -0.035  0.00  0.00    -0.270 OA
ATOM     20  N   UNL     1       3.639   3.511  -0.015  0.00  0.00    -0.275 N 
ATOM     21  H   UNL     1       2.793   3.986  -0.004  0.00  0.00    +0.156 HD
BRANCH  18  24
ATOM     22  C   UNL     1      -0.017   1.381   0.010  0.00  0.00    +0.021 A 
ATOM     23  C   UNL     1       1.166   2.090   0.002  0.00  0.00    +0.016 A 
ATOM     24  C   UNL     1       2.385   1.409  -0.013  0.00  0.00    +0.055 A 
ATOM     25  C   UNL     1       2.398   0.012  -0.021  0.00  0.00    +0.054 A 
ATOM     26  C   UNL     1       1.207  -0.686  -0.013  0.00  0.00    +0.040 A 
ATOM     27  C   UNL     1       0.002  -0.004   0.002  0.00  0.00    +0.042 A 
ATOM     28 CL   UNL     1      -1.492  -0.889   0.012  0.00  0.00    -0.083 Cl
ATOM     29 CL   UNL     1       3.908  -0.845  -0.040  0.00  0.00    -0.083 Cl
ENDBRANCH  18  24
ENDBRANCH   1  20
TORSDOF 3
