REMARK  Name = ZINC01092635
REMARK  6 active torsions:
REMARK  status: ('A' for Active; 'I' for Inactive)
REMARK    1  A    between atoms: C_9  and  C_12
REMARK    2  A    between atoms: N_14  and  N_15
REMARK    3  A    between atoms: C_16  and  C_17
REMARK    4  A    between atoms: C_20  and  O_23
REMARK    5  A    between atoms: O_23  and  C_24
REMARK    6  A    between atoms: C_24  and  C_26
REMARK                            x       y       z     vdW  Elec       q    Type
REMARK                         _______ _______ _______ _____ _____    ______ ____
ROOT
ATOM      1  N   UNL     1      -2.261   9.472   0.162  0.00  0.00    -0.188 NA
ATOM      2  C   UNL     1      -3.193  10.297  -0.206  0.00  0.00    +0.138 C 
ENDROOT
BRANCH   2   3
ATOM      3  C   UNL     1      -3.123  11.713   0.195  0.00  0.00    -0.005 A 
ATOM      4  C   UNL     1      -2.058  12.169   0.977  0.00  0.00    +0.013 A 
ATOM      5  C   UNL     1      -1.994  13.496   1.344  0.00  0.00    +0.047 A 
ATOM      6  C   UNL     1      -2.993  14.377   0.949  0.00  0.00    +0.132 A 
ATOM      7  C   UNL     1      -4.056  13.927   0.177  0.00  0.00    +0.047 A 
ATOM      8  C   UNL     1      -4.125  12.604  -0.200  0.00  0.00    +0.013 A 
BRANCH   6   9
ATOM      9  O   UNL     1      -2.928  15.683   1.319  0.00  0.00    -0.420 OA
BRANCH   9  10
ATOM     10  C   UNL     1      -3.832  16.133   2.214  0.00  0.00    +0.380 C 
ATOM     11  O   UNL     1      -4.604  15.355   2.743  0.00  0.00    -0.241 OA
BRANCH  10  12
ATOM     12  C   UNL     1      -3.884  17.557   2.549  0.00  0.00    +0.212 A 
ATOM     13  C   UNL     1      -4.745  18.143   3.433  0.00  0.00    +0.056 A 
ATOM     14  C   UNL     1      -4.444  19.514   3.442  0.00  0.00    +0.042 A 
ATOM     15  C   UNL     1      -3.425  19.703   2.574  0.00  0.00    +0.196 A 
ATOM     16  O   UNL     1      -3.087  18.521   2.042  0.00  0.00    -0.456 OA
ENDBRANCH  10  12
ENDBRANCH   9  10
ENDBRANCH   6   9
ENDBRANCH   2   3
BRANCH   1  19
ATOM     17  C   UNL     1      -1.360   7.268   0.163  0.00  0.00    +0.276 C 
ATOM     18  O   UNL     1      -0.432   7.663   0.837  0.00  0.00    -0.270 OA
ATOM     19  N   UNL     1      -2.327   8.125  -0.219  0.00  0.00    -0.204 N 
ATOM     20  H   UNL     1      -3.069   7.809  -0.758  0.00  0.00    +0.177 HD
BRANCH  17  29
ATOM     21  C   UNL     1      -0.339   1.003   0.139  0.00  0.00    +0.004 A 
ATOM     22  C   UNL     1       0.866   1.675   0.228  0.00  0.00    +0.004 A 
ATOM     23  C   UNL     1       0.890   3.056   0.244  0.00  0.00    +0.049 A 
ATOM     24  C   UNL     1      -0.295   3.773   0.173  0.00  0.00    +0.163 A 
ATOM     25  C   UNL     1      -1.506   3.098   0.081  0.00  0.00    +0.162 A 
ATOM     26  C   UNL     1      -1.524   1.711   0.060  0.00  0.00    +0.049 A 
ATOM     27  O   UNL     1      -2.681   3.782   0.006  0.00  0.00    -0.484 OA
ATOM     28  C   UNL     1      -2.652   5.157   0.404  0.00  0.00    +0.283 C 
ATOM     29  C   UNL     1      -1.431   5.820  -0.247  0.00  0.00    +0.297 C 
ATOM     30  O   UNL     1      -0.256   5.133   0.199  0.00  0.00    -0.472 OA
ENDBRANCH  17  29
ENDBRANCH   1  19
TORSDOF 6
