REMARK  Name = ZINC59337960
REMARK  8 active torsions:
REMARK  status: ('A' for Active; 'I' for Inactive)
REMARK    1  A    between atoms: C_1  and  C_2
REMARK    2  A    between atoms: C_5  and  C_29
REMARK    3  A    between atoms: C_13  and  S_21
REMARK    4  A    between atoms: N_14  and  C_15
REMARK    5  A    between atoms: C_15  and  C_16
REMARK    6  A    between atoms: S_21  and  C_22
REMARK    7  A    between atoms: C_22  and  C_23
REMARK    8  A    between atoms: N_27  and  C_28
REMARK                            x       y       z     vdW  Elec       q    Type
REMARK                         _______ _______ _______ _____ _____    ______ ____
ROOT
ATOM      1  C   UNL     1       3.559   0.232  -1.320  0.00  0.00    +0.009 C 
ATOM      2  C   UNL     1       2.096  -0.199  -1.197  0.00  0.00    +0.004 C 
ATOM      3  C   UNL     1       2.014  -1.727  -1.169  0.00  0.00    +0.009 C 
ATOM      4  C   UNL     1       2.833  -2.262   0.007  0.00  0.00    +0.004 C 
ATOM      5  C   UNL     1       2.250  -1.723   1.317  0.00  0.00    +0.111 C 
ATOM      6  N   UNL     1       2.191  -0.257   1.241  0.00  0.00    -0.299 N 
ATOM      7  C   UNL     1       1.504   0.364   0.100  0.00  0.00    +0.111 C 
ATOM      8  C   UNL     1       2.773   0.527   2.229  0.00  0.00    +0.221 A 
ATOM      9  N   UNL     1       4.030   0.892   2.281  0.00  0.00    -0.112 NA
ATOM     10  N   UNL     1       4.207   1.673   3.431  0.00  0.00    -0.121 NA
ATOM     11  C   UNL     1       3.051   1.759   4.044  0.00  0.00    +0.194 A 
ATOM     12  N   UNL     1       2.133   1.057   3.313  0.00  0.00    -0.283 N 
ATOM     13  C   UNL     1       2.778  -3.791   0.014  0.00  0.00    +0.009 C 
ENDROOT
BRANCH  12  14
ATOM     14  C   UNL     1       0.713   0.899   3.638  0.00  0.00    +0.201 C 
BRANCH  14  15
ATOM     15  C   UNL     1       0.530  -0.314   4.513  0.00  0.00    +0.125 A 
ATOM     16  C   UNL     1       0.564  -0.327   5.857  0.00  0.00    +0.046 A 
ATOM     17  C   UNL     1       0.347  -1.665   6.260  0.00  0.00    +0.041 A 
ATOM     18  C   UNL     1       0.195  -2.390   5.137  0.00  0.00    +0.195 A 
ATOM     19  O   UNL     1       0.301  -1.565   4.082  0.00  0.00    -0.466 OA
ENDBRANCH  14  15
ENDBRANCH  12  14
BRANCH  11  20
ATOM     20  S   UNL     1       2.735   2.631   5.542  0.00  0.00    -0.078 S 
BRANCH  20  21
ATOM     21  C   UNL     1       4.345   3.339   5.986  0.00  0.00    +0.151 C 
BRANCH  21  22
ATOM     22  C   UNL     1       4.214   4.121   7.267  0.00  0.00    +0.120 A 
ATOM     23  N   UNL     1       3.912   5.387   7.357  0.00  0.00    -0.240 NA
ATOM     24  C   UNL     1       3.884   5.744   8.650  0.00  0.00    +0.130 A 
ATOM     25  C   UNL     1       4.179   4.658   9.389  0.00  0.00    +0.106 A 
ATOM     26  N   UNL     1       4.384   3.627   8.512  0.00  0.00    -0.337 N 
ATOM     27  C   UNL     1       4.726   2.245   8.859  0.00  0.00    +0.150 C 
ENDBRANCH  21  22
ENDBRANCH  20  21
ENDBRANCH  11  20
TORSDOF 5
