REMARK  Name = ZINC08858043
REMARK  6 active torsions:
REMARK  status: ('A' for Active; 'I' for Inactive)
REMARK    1  A    between atoms: C_1  and  C_2
REMARK    2  A    between atoms: C_2  and  N_59
REMARK    3  A    between atoms: N_5  and  C_8
REMARK    4  A    between atoms: C_9  and  C_19
REMARK    5  A    between atoms: N_23  and  C_27
REMARK    6  A    between atoms: C_27  and  C_28
REMARK                            x       y       z     vdW  Elec       q    Type
REMARK                         _______ _______ _______ _____ _____    ______ ____
ROOT
ATOM      1  C   UNL     1      -1.321   3.339   0.127  0.00  0.00    +0.136 A 
ATOM      2  C   UNL     1      -0.136   4.057  -0.160  0.00  0.00    +0.081 A 
ATOM      3  C   UNL     1       1.078   3.336  -0.265  0.00  0.00    +0.267 A 
ATOM      4  O   UNL     1       2.122   3.914  -0.511  0.00  0.00    -0.267 OA
ATOM      5  N   UNL     1       1.059   1.998  -0.087  0.00  0.00    -0.268 N 
ATOM      6  C   UNL     1       2.224   1.296  -0.184  0.00  0.00    +0.096 A 
ATOM      7  C   UNL     1       2.240  -0.045  -0.012  0.00  0.00    +0.018 A 
ATOM      8  C   UNL     1       1.052  -0.732   0.271  0.00  0.00    +0.005 A 
ATOM      9  C   UNL     1      -0.118  -0.039   0.371  0.00  0.00    +0.047 A 
ATOM     10  C   UNL     1      -0.116   1.356   0.188  0.00  0.00    +0.142 A 
ATOM     11  N   UNL     1      -1.266   2.024   0.283  0.00  0.00    -0.214 NA
ENDROOT
BRANCH   2  12
ATOM     12  C   UNL     1      -0.164   5.460  -0.339  0.00  0.00    +0.037 C 
ATOM     13  C   UNL     1      -0.981   6.011  -1.284  0.00  0.00    +0.077 C 
ATOM     14  C   UNL     1      -1.123   7.373  -1.675  0.00  0.00    +0.259 C 
ATOM     15  O   UNL     1      -0.460   8.249  -1.148  0.00  0.00    -0.269 OA
ATOM     16  N   UNL     1      -1.990   7.659  -2.631  0.00  0.00    -0.251 N 
ATOM     17  C   UNL     1      -2.730   6.688  -3.211  0.00  0.00    +0.121 C 
ATOM     18  S   UNL     1      -3.906   6.829  -4.447  0.00  0.00    -0.027 S 
ATOM     19  S   UNL     1      -2.170   5.221  -2.360  0.00  0.00    -0.061 S 
BRANCH  16  20
ATOM     20  C   UNL     1      -2.156   9.049  -3.062  0.00  0.00    +0.150 C 
BRANCH  20  21
ATOM     21  C   UNL     1      -3.223   9.710  -2.228  0.00  0.00    -0.029 A 
ATOM     22  C   UNL     1      -4.543   9.673  -2.639  0.00  0.00    +0.008 A 
ATOM     23  C   UNL     1      -5.523  10.273  -1.872  0.00  0.00    +0.038 A 
ATOM     24  C   UNL     1      -5.182  10.922  -0.697  0.00  0.00    +0.123 A 
ATOM     25  C   UNL     1      -3.859  10.963  -0.290  0.00  0.00    +0.038 A 
ATOM     26  C   UNL     1      -2.881  10.357  -1.056  0.00  0.00    +0.008 A 
ATOM     27  F   UNL     1      -6.138  11.514   0.051  0.00  0.00    -0.205 F 
ENDBRANCH  20  21
ENDBRANCH  16  20
ENDBRANCH   2  12
BRANCH   1  30
ATOM     28  C   UNL     1      -4.962   3.824   0.366  0.00  0.00    -0.060 C 
ATOM     29  C   UNL     1      -3.642   3.051   0.326  0.00  0.00    +0.088 C 
ATOM     30  N   UNL     1      -2.524   4.001   0.237  0.00  0.00    -0.318 N 
ATOM     31  C   UNL     1      -2.519   4.913   1.390  0.00  0.00    +0.088 C 
ATOM     32  C   UNL     1      -3.840   5.686   1.431  0.00  0.00    -0.060 C 
ATOM     33  N   UNL     1      -4.954   4.720   1.542  0.00  0.00    +0.382 N 
ATOM     34  H   UNL     1      -4.824   4.157   2.390  0.00  0.00    -0.082 HD
BRANCH  33  36
ATOM     35  C   UNL     1      -6.293   6.185   2.972  0.00  0.00    -0.017 C 
ATOM     36  C   UNL     1      -6.241   5.441   1.636  0.00  0.00    -0.082 C 
ENDBRANCH  33  36
ENDBRANCH   1  30
TORSDOF 5
