REMARK  Name = ZINC49527064
REMARK  8 active torsions:
REMARK  status: ('A' for Active; 'I' for Inactive)
REMARK    1  A    between atoms: C_1  and  C_2
REMARK    2  A    between atoms: C_7  and  C_8
REMARK    3  A    between atoms: C_8  and  C_10
REMARK    4  A    between atoms: C_8  and  N_11
REMARK    5  A    between atoms: N_11  and  S_12
REMARK    6  A    between atoms: S_12  and  C_15
REMARK    7  A    between atoms: C_18  and  N_21
REMARK    8  A    between atoms: N_21  and  N_22
REMARK                            x       y       z     vdW  Elec       q    Type
REMARK                         _______ _______ _______ _____ _____    ______ ____
ROOT
ATOM      1  S   UNL     1       1.542  -0.099   4.739  0.00  0.00    +0.059 S 
ATOM      2  O   UNL     1       1.960  -1.154   5.594  0.00  0.00    -0.153 OA
ATOM      3  O   UNL     1       2.464   0.769   4.094  0.00  0.00    -0.153 OA
ENDROOT
BRANCH   1   4
ATOM      4  C   UNL     1       0.466   0.923   5.688  0.00  0.00    +0.105 A 
ATOM      5  C   UNL     1       0.283   2.247   5.335  0.00  0.00    +0.030 A 
ATOM      6  C   UNL     1      -0.560   3.051   6.077  0.00  0.00    +0.026 A 
ATOM      7  C   UNL     1      -1.224   2.528   7.180  0.00  0.00    +0.041 A 
ATOM      8  C   UNL     1      -1.037   1.197   7.532  0.00  0.00    +0.026 A 
ATOM      9  C   UNL     1      -0.198   0.397   6.782  0.00  0.00    +0.030 A 
BRANCH   7  10
ATOM     10  N   UNL     1      -2.076   3.338   7.933  0.00  0.00    -0.283 N 
ATOM     11  H   UNL     1      -2.206   4.268   7.686  0.00  0.00    +0.166 HD
BRANCH  10  12
ATOM     12  N   UNL     1      -2.729   2.822   9.016  0.00  0.00    -0.257 NA
ATOM     13  H   UNL     1      -2.076   2.423   9.675  0.00  0.00    +0.140 HD
ATOM     14  H   UNL     1      -3.306   3.522   9.458  0.00  0.00    +0.140 HD
ENDBRANCH  10  12
ENDBRANCH   7  10
ENDBRANCH   1   4
BRANCH   1  15
ATOM     15  N   UNL     1       0.630  -0.793   3.543  0.00  0.00    -0.183 NA
ATOM     16  H   UNL     1       0.497  -1.753   3.530  0.00  0.00    +0.149 HD
BRANCH  15  17
ATOM     17  C   UNL     1       0.025   0.045   2.504  0.00  0.00    +0.104 C 
ATOM     18  C   UNL     1      -1.413   0.387   2.899  0.00  0.00    +0.031 C 
BRANCH  17  25
ATOM     19  C   UNL     1      -0.018   1.503   0.010  0.00  0.00    +0.044 C 
ATOM     20  C   UNL     1       0.002  -0.004   0.002  0.00  0.00    -0.046 A 
ATOM     21  C   UNL     1       0.006  -0.689  -1.199  0.00  0.00    +0.003 A 
ATOM     22  C   UNL     1       0.025  -2.071  -1.207  0.00  0.00    +0.000 A 
ATOM     23  C   UNL     1       0.040  -2.768  -0.013  0.00  0.00    +0.000 A 
ATOM     24  C   UNL     1       0.037  -2.084   1.188  0.00  0.00    +0.005 A 
ATOM     25  C   UNL     1       0.023  -0.702   1.195  0.00  0.00    -0.026 A 
ENDBRANCH  17  25
ENDBRANCH  15  17
ENDBRANCH   1  15
TORSDOF 6
