REMARK  Name = ZINC10811956
REMARK  8 active torsions:
REMARK  status: ('A' for Active; 'I' for Inactive)
REMARK    1  A    between atoms: C_1  and  C_2
REMARK    2  A    between atoms: C_9  and  N_15
REMARK    3  A    between atoms: C_10  and  C_11
REMARK    4  A    between atoms: C_11  and  O_13
REMARK    5  A    between atoms: O_13  and  C_14
REMARK    6  A    between atoms: C_16  and  C_18
REMARK    7  A    between atoms: N_24  and  S_25
REMARK    8  A    between atoms: S_25  and  C_28
REMARK                            x       y       z     vdW  Elec       q    Type
REMARK                         _______ _______ _______ _____ _____    ______ ____
ROOT
ATOM      1  N   UNL     1      -2.248  -1.427  -1.648  0.00  0.00    -0.278 N 
ATOM      2  C   UNL     1      -1.599  -0.336  -1.193  0.00  0.00    +0.236 C 
ATOM      3  O   UNL     1      -0.871  -0.423  -0.227  0.00  0.00    -0.274 OA
ATOM      4  H   UNL     1      -2.830  -1.357  -2.421  0.00  0.00    +0.155 HD
ENDROOT
BRANCH   1  12
ATOM      5  C   UNL     1      -0.973  -8.137   2.164  0.00  0.00    +0.008 C 
ATOM      6  C   UNL     1      -1.215  -7.138   1.030  0.00  0.00    -0.009 C 
ATOM      7  C   UNL     1      -2.675  -7.221   0.575  0.00  0.00    +0.008 C 
ATOM      8  C   UNL     1      -2.865  -6.414  -0.711  0.00  0.00    +0.037 C 
ATOM      9  C   UNL     1      -2.317  -5.009  -0.494  0.00  0.00    -0.021 A 
ATOM     10  C   UNL     1      -1.460  -4.745   0.516  0.00  0.00    -0.004 A 
ATOM     11  S   UNL     1      -1.107  -3.017   0.371  0.00  0.00    -0.077 S 
ATOM     12  C   UNL     1      -2.083  -2.647  -1.012  0.00  0.00    +0.086 A 
ATOM     13  C   UNL     1      -2.664  -3.869  -1.325  0.00  0.00    +0.091 A 
ATOM     14  C   UNL     1      -0.932  -5.714   1.529  0.00  0.00    +0.046 C 
BRANCH  13  15
ATOM     15  C   UNL     1      -3.587  -4.004  -2.453  0.00  0.00    +0.342 C 
ATOM     16  O   UNL     1      -3.161  -4.283  -3.558  0.00  0.00    -0.245 OA
BRANCH  15  17
ATOM     17  O   UNL     1      -4.910  -3.820  -2.268  0.00  0.00    -0.464 OA
ATOM     18  C   UNL     1      -5.767  -3.970  -3.430  0.00  0.00    +0.280 C 
ENDBRANCH  15  17
ENDBRANCH  13  15
ENDBRANCH   1  12
BRANCH   2  19
ATOM     19  C   UNL     1      -1.779   0.991  -1.885  0.00  0.00    +0.166 C 
ATOM     20  C   UNL     1      -0.443   1.448  -2.466  0.00  0.00    +0.030 C 
ATOM     21  C   UNL     1      -0.595   2.858  -3.042  0.00  0.00    +0.003 C 
ATOM     22  C   UNL     1      -0.995   3.826  -1.927  0.00  0.00    +0.017 C 
ATOM     23  C   UNL     1      -2.344   3.395  -1.341  0.00  0.00    +0.110 C 
ATOM     24  N   UNL     1      -2.247   1.991  -0.916  0.00  0.00    -0.164 NA
BRANCH  24  25
ATOM     25  S   UNL     1      -2.652   1.547   0.627  0.00  0.00    +0.068 S 
ATOM     26  O   UNL     1      -3.568   2.524   1.103  0.00  0.00    -0.152 OA
ATOM     27  O   UNL     1      -2.970   0.163   0.581  0.00  0.00    -0.152 OA
BRANCH  25  28
ATOM     28  C   UNL     1      -1.198   1.697   1.611  0.00  0.00    +0.144 A 
ATOM     29  C   UNL     1      -0.747   2.768   2.308  0.00  0.00    +0.038 A 
ATOM     30  C   UNL     1       0.434   2.656   3.018  0.00  0.00    +0.030 A 
ATOM     31  C   UNL     1       1.106   1.478   2.996  0.00  0.00    +0.080 A 
ATOM     32  S   UNL     1       0.058   0.476   1.954  0.00  0.00    -0.057 S 
ATOM     33 CL   UNL     1       2.594   1.052   3.782  0.00  0.00    -0.076 Cl
ENDBRANCH  25  28
ENDBRANCH  24  25
ENDBRANCH   2  19
TORSDOF 6
