REMARK  Name = ZINC11377186
REMARK  10 active torsions:
REMARK  status: ('A' for Active; 'I' for Inactive)
REMARK    1  A    between atoms: C_1  and  C_2
REMARK    2  A    between atoms: C_5  and  C_8
REMARK    3  A    between atoms: C_8  and  C_37
REMARK    4  A    between atoms: N_11  and  C_15
REMARK    5  A    between atoms: C_15  and  C_16
REMARK    6  A    between atoms: N_18  and  C_19
REMARK    7  A    between atoms: C_24  and  C_25
REMARK    8  A    between atoms: N_27  and  C_28
REMARK    9  A    between atoms: C_28  and  C_30
REMARK   10  A    between atoms: C_28  and  C_31
REMARK                            x       y       z     vdW  Elec       q    Type
REMARK                         _______ _______ _______ _____ _____    ______ ____
ROOT
ATOM      1  C   UNL     1      -0.107  -0.857  -6.213  0.00  0.00    +0.235 C 
ATOM      2  O   UNL     1      -0.565  -0.303  -7.191  0.00  0.00    -0.274 OA
ATOM      3  N   UNL     1      -0.328  -0.349  -4.985  0.00  0.00    -0.284 N 
ATOM      4  H   UNL     1       0.101  -0.746  -4.211  0.00  0.00    +0.155 HD
ENDROOT
BRANCH   3   5
ATOM      5  C   UNL     1      -1.172   0.748  -4.827  0.00  0.00    +0.046 A 
ATOM      6  C   UNL     1      -2.288   0.892  -5.640  0.00  0.00    +0.024 A 
ATOM      7  C   UNL     1      -3.120   1.982  -5.486  0.00  0.00    +0.002 A 
ATOM      8  C   UNL     1      -2.853   2.937  -4.517  0.00  0.00    +0.001 A 
ATOM      9  C   UNL     1      -1.753   2.808  -3.698  0.00  0.00    +0.015 A 
ATOM     10  C   UNL     1      -0.902   1.710  -3.842  0.00  0.00    +0.058 A 
BRANCH  10  11
ATOM     11  C   UNL     1       0.278   1.565  -2.969  0.00  0.00    +0.246 C 
ATOM     12  O   UNL     1       0.966   0.565  -3.035  0.00  0.00    -0.270 OA
ATOM     13  N   UNL     1       0.594   2.543  -2.096  0.00  0.00    -0.305 N 
ATOM     14  H   UNL     1       0.046   3.341  -2.043  0.00  0.00    +0.150 HD
BRANCH  13  15
ATOM     15  C   UNL     1       1.766   2.400  -1.229  0.00  0.00    +0.100 C 
ATOM     16  C   UNL     1       3.016   2.866  -1.978  0.00  0.00    +0.033 C 
BRANCH  15  17
ATOM     17  C   UNL     1       1.580   3.239   0.009  0.00  0.00    -0.027 A 
ATOM     18  C   UNL     1       1.017   4.498  -0.088  0.00  0.00    +0.005 A 
ATOM     19  C   UNL     1       0.843   5.266   1.048  0.00  0.00    +0.000 A 
ATOM     20  C   UNL     1       1.240   4.780   2.279  0.00  0.00    +0.000 A 
ATOM     21  C   UNL     1       1.808   3.523   2.375  0.00  0.00    +0.000 A 
ATOM     22  C   UNL     1       1.978   2.753   1.240  0.00  0.00    +0.005 A 
ENDBRANCH  15  17
ENDBRANCH  13  15
ENDBRANCH  10  11
ENDBRANCH   3   5
BRANCH   1  23
ATOM     23  C   UNL     1       0.710  -2.114  -6.373  0.00  0.00    +0.214 C 
BRANCH  23  27
ATOM     24  C   UNL     1       1.474  -2.624  -9.972  0.00  0.00    +0.135 C 
ATOM     25  C   UNL     1       1.780  -2.022  -8.615  0.00  0.00    +0.251 C 
ATOM     26  O   UNL     1       2.709  -1.298  -8.329  0.00  0.00    -0.272 OA
ATOM     27  N   UNL     1       0.805  -2.457  -7.794  0.00  0.00    -0.215 N 
ATOM     28  C   UNL     1      -0.064  -3.248  -8.435  0.00  0.00    +0.310 C 
ATOM     29  O   UNL     1      -1.027  -3.764  -7.904  0.00  0.00    -0.252 OA
ATOM     30  N   UNL     1       0.246  -3.403  -9.735  0.00  0.00    -0.281 N 
ATOM     31  C   UNL     1       1.227  -1.524 -11.006  0.00  0.00    +0.047 C 
ATOM     32  H   UNL     1      -0.242  -3.928 -10.389  0.00  0.00    +0.152 HD
BRANCH  24  37
ATOM     33  C   UNL     1       5.777  -6.083 -11.679  0.00  0.00    +0.044 C 
ATOM     34  C   UNL     1       4.655  -5.181 -11.234  0.00  0.00    -0.050 A 
ATOM     35  C   UNL     1       3.358  -5.439 -11.639  0.00  0.00    +0.004 A 
ATOM     36  C   UNL     1       2.329  -4.612 -11.230  0.00  0.00    +0.006 A 
ATOM     37  C   UNL     1       2.596  -3.526 -10.417  0.00  0.00    -0.015 A 
ATOM     38  C   UNL     1       3.893  -3.265 -10.016  0.00  0.00    +0.006 A 
ATOM     39  C   UNL     1       4.922  -4.095 -10.421  0.00  0.00    +0.004 A 
ENDBRANCH  24  37
ENDBRANCH  23  27
ENDBRANCH   1  23
TORSDOF 7
