REMARK  Name = ZINC05437617
REMARK  8 active torsions:
REMARK  status: ('A' for Active; 'I' for Inactive)
REMARK    1  A    between atoms: C_1  and  C_2
REMARK    2  A    between atoms: C_4  and  C_7
REMARK    3  A    between atoms: C_7  and  O_33
REMARK    4  A    between atoms: C_11  and  O_28
REMARK    5  A    between atoms: C_14  and  O_15
REMARK    6  A    between atoms: C_22  and  O_26
REMARK    7  A    between atoms: O_26  and  C_27
REMARK    8  A    between atoms: C_29  and  O_32
REMARK                            x       y       z     vdW  Elec       q    Type
REMARK                         _______ _______ _______ _____ _____    ______ ____
ROOT
ATOM      1  C   UNL     1       2.111   0.984  -3.362  0.00  0.00    +0.115 C 
ATOM      2  C   UNL     1       1.283   1.115  -2.086  0.00  0.00    +0.080 C 
ATOM      3  C   UNL     1       2.152   1.539  -0.930  0.00  0.00    +0.007 A 
ATOM      4  C   UNL     1       3.389   2.107  -1.104  0.00  0.00    +0.030 A 
ATOM      5  C   UNL     1       4.147   2.496   0.008  0.00  0.00    +0.134 A 
ATOM      6  C   UNL     1       3.658   2.307   1.299  0.00  0.00    +0.078 A 
ATOM      7  C   UNL     1       2.388   1.723   1.479  0.00  0.00    +0.078 A 
ATOM      8  C   UNL     1       1.648   1.338   0.362  0.00  0.00    +0.132 A 
ATOM      9  C   UNL     1       1.859   1.509   2.837  0.00  0.00    +0.198 C 
ATOM     10  O   UNL     1       0.765   1.001   2.992  0.00  0.00    -0.286 OA
ATOM     11  C   UNL     1       2.658   1.919   4.010  0.00  0.00    +0.037 A 
ATOM     12  C   UNL     1       2.165   1.726   5.296  0.00  0.00    +0.012 A 
ATOM     13  C   UNL     1       2.918   2.111   6.393  0.00  0.00    +0.004 A 
ATOM     14  C   UNL     1       4.160   2.688   6.223  0.00  0.00    +0.046 A 
ATOM     15  C   UNL     1       4.673   2.891   4.946  0.00  0.00    +0.132 A 
ATOM     16  C   UNL     1       3.924   2.507   3.829  0.00  0.00    +0.075 A 
ATOM     17  C   UNL     1       4.454   2.716   2.470  0.00  0.00    +0.202 C 
ATOM     18  O   UNL     1       5.548   3.224   2.314  0.00  0.00    -0.286 OA
ATOM     19  C   UNL     1       3.993   2.331  -2.467  0.00  0.00    +0.152 C 
ATOM     20  C   UNL     1       2.917   2.275  -3.549  0.00  0.00    +0.077 C 
ENDROOT
BRANCH   1  24
ATOM     21  C   UNL     1       0.220   2.356  -7.786  0.00  0.00    +0.073 C 
ATOM     22  C   UNL     1       0.383   1.481  -6.569  0.00  0.00    +0.076 A 
ATOM     23  N   UNL     1       1.170   1.649  -5.532  0.00  0.00    -0.246 NA
ATOM     24  C   UNL     1       1.198   0.780  -4.543  0.00  0.00    +0.081 A 
ATOM     25  C   UNL     1       0.378  -0.300  -4.610  0.00  0.00    +0.073 A 
ATOM     26  S   UNL     1      -0.428  -0.004  -6.177  0.00  0.00    -0.080 S 
ENDBRANCH   1  24
BRANCH   8  27
ATOM     27  O   UNL     1       0.427   0.771   0.527  0.00  0.00    -0.506 OA
ATOM     28  H   UNL     1       0.448  -0.193   0.597  0.00  0.00    +0.292 HD
ENDBRANCH   8  27
BRANCH  15  29
ATOM     29  O   UNL     1       5.894   3.458   4.784  0.00  0.00    -0.494 OA
ATOM     30  C   UNL     1       6.601   3.824   5.971  0.00  0.00    +0.277 C 
ENDBRANCH  15  29
BRANCH   5  31
ATOM     31  O   UNL     1       5.366   3.061  -0.173  0.00  0.00    -0.506 OA
ATOM     32  H   UNL     1       5.355   4.028  -0.171  0.00  0.00    +0.292 HD
ENDBRANCH   5  31
BRANCH  19  33
ATOM     33  O   UNL     1       4.624   3.613  -2.497  0.00  0.00    -0.387 OA
ATOM     34  H   UNL     1       5.108   3.794  -3.314  0.00  0.00    +0.210 HD
ENDBRANCH  19  33
BRANCH   1  35
ATOM     35  O   UNL     1       3.003  -0.127  -3.246  0.00  0.00    -0.382 OA
ATOM     36  H   UNL     1       2.558  -0.977  -3.126  0.00  0.00    +0.211 HD
ENDBRANCH   1  35
TORSDOF 6
