REMARK  Name = ZINC05536764
REMARK  4 active torsions:
REMARK  status: ('A' for Active; 'I' for Inactive)
REMARK    1  A    between atoms: C_1  and  C_2
REMARK    2  A    between atoms: C_5  and  C_7
REMARK    3  A    between atoms: C_20  and  N_24
REMARK    4  A    between atoms: C_21  and  C_22
REMARK                            x       y       z     vdW  Elec       q    Type
REMARK                         _______ _______ _______ _____ _____    ______ ____
ROOT
ATOM      1  C   UNL     1      -1.333   2.133   0.033  0.00  0.00    +0.112 C 
ATOM      2  C   UNL     1      -0.017   1.404   0.010  0.00  0.00    +0.090 A 
ATOM      3  C   UNL     1       0.002  -0.004   0.002  0.00  0.00    +0.262 A 
ATOM      4  O   UNL     1      -1.042  -0.632   0.008  0.00  0.00    -0.267 OA
ATOM      5  N   UNL     1       1.183  -0.652  -0.012  0.00  0.00    -0.275 N 
ATOM      6  H   UNL     1       1.202  -1.652  -0.017  0.00  0.00    +0.173 HD
ATOM      7  C   UNL     1       2.338   0.038  -0.018  0.00  0.00    +0.329 A 
ATOM      8  O   UNL     1       3.395  -0.564  -0.031  0.00  0.00    -0.247 OA
ATOM      9  N   UNL     1       2.342   1.383  -0.013  0.00  0.00    -0.278 N 
ATOM     10  H   UNL     1       3.212   1.876  -0.019  0.00  0.00    +0.173 HD
ATOM     11  C   UNL     1       1.160   2.084   0.002  0.00  0.00    +0.214 A 
ATOM     12  O   UNL     1       1.188   3.430   0.007  0.00  0.00    -0.425 OA
ATOM     13  C   UNL     1       0.108   4.125   0.405  0.00  0.00    +0.200 C 
ATOM     14  C   UNL     1      -1.125   3.564   0.438  0.00  0.00    +0.099 C 
ENDROOT
BRANCH   1  19
ATOM     15  C   UNL     1      -2.833   2.449  -5.421  0.00  0.00    +0.053 C 
ATOM     16  C   UNL     1      -2.664   2.241  -3.938  0.00  0.00    +0.001 A 
ATOM     17  C   UNL     1      -3.505   1.643  -3.058  0.00  0.00    +0.028 A 
ATOM     18  C   UNL     1      -3.137   1.562  -1.728  0.00  0.00    +0.027 A 
ATOM     19  C   UNL     1      -1.950   2.091  -1.341  0.00  0.00    +0.004 A 
ATOM     20  S   UNL     1      -1.306   2.720  -2.883  0.00  0.00    -0.096 S 
ATOM     21 BR   UNL     1      -5.154   0.925  -3.643  0.00  0.00    -0.049 Br
ENDBRANCH   1  19
BRANCH  13  22
ATOM     22  N   UNL     1       0.258   5.435   0.788  0.00  0.00    -0.328 N 
ATOM     23  H   UNL     1       1.135   5.848   0.769  0.00  0.00    +0.145 HD
ATOM     24  H   UNL     1      -0.513   5.947   1.077  0.00  0.00    +0.145 HD
ENDBRANCH  13  22
BRANCH  14  25
ATOM     25  C   UNL     1      -2.245   4.345   0.869  0.00  0.00    +0.101 C 
ATOM     26  N   UNL     1      -3.134   4.965   1.211  0.00  0.00    -0.191 NA
ENDBRANCH  14  25
TORSDOF 3
