REMARK  Name = ZINC09170515
REMARK  6 active torsions:
REMARK  status: ('A' for Active; 'I' for Inactive)
REMARK    1  A    between atoms: C_1  and  C_2
REMARK    2  A    between atoms: C_6  and  S_8
REMARK    3  A    between atoms: S_8  and  C_9
REMARK    4  A    between atoms: C_9  and  C_10
REMARK    5  A    between atoms: N_17  and  C_20
REMARK    6  A    between atoms: C_18  and  O_19
REMARK                            x       y       z     vdW  Elec       q    Type
REMARK                         _______ _______ _______ _____ _____    ______ ____
ROOT
ATOM      1  C   UNL     1       0.095  -5.472   3.441  0.00  0.00    +0.058 A 
ATOM      2  C   UNL     1       1.321  -5.829   3.986  0.00  0.00    +0.076 A 
ATOM      3  C   UNL     1       1.380  -6.614   5.123  0.00  0.00    +0.197 A 
ATOM      4  C   UNL     1       0.161  -7.034   5.701  0.00  0.00    +0.129 A 
ATOM      5  C   UNL     1      -1.097  -6.614   5.065  0.00  0.00    +0.189 A 
ATOM      6  N   UNL     1      -1.048  -5.846   3.964  0.00  0.00    -0.230 NA
ATOM      7  N   UNL     1      -2.076  -7.128   5.786  0.00  0.00    -0.143 NA
ATOM      8  N   UNL     1      -1.533  -7.856   6.850  0.00  0.00    -0.198 N 
ATOM      9  C   UNL     1      -0.190  -7.802   6.803  0.00  0.00    +0.229 A 
ATOM     10  O   UNL     1       2.570  -6.971   5.666  0.00  0.00    -0.287 OA
ENDROOT
BRANCH   8  11
ATOM     11  C   UNL     1      -2.277  -8.539   7.820  0.00  0.00    +0.069 A 
ATOM     12  C   UNL     1      -1.801  -9.730   8.351  0.00  0.00    +0.028 A 
ATOM     13  C   UNL     1      -2.537 -10.401   9.308  0.00  0.00    +0.002 A 
ATOM     14  C   UNL     1      -3.747  -9.888   9.738  0.00  0.00    +0.000 A 
ATOM     15  C   UNL     1      -4.224  -8.701   9.211  0.00  0.00    +0.002 A 
ATOM     16  C   UNL     1      -3.490  -8.023   8.258  0.00  0.00    +0.028 A 
ENDBRANCH   8  11
BRANCH   9  17
ATOM     17  O   UNL     1       0.666  -8.390   7.674  0.00  0.00    -0.492 OA
ATOM     18  H   UNL     1       0.902  -7.835   8.429  0.00  0.00    +0.294 HD
ENDBRANCH   9  17
BRANCH   1  19
ATOM     19  C   UNL     1       0.077  -4.615   2.202  0.00  0.00    +0.133 C 
BRANCH  19  20
ATOM     20  S   UNL     1       0.055  -2.865   2.677  0.00  0.00    -0.080 S 
BRANCH  20  26
ATOM     21  C   UNL     1      -0.018   1.503   0.010  0.00  0.00    +0.066 C 
ATOM     22  C   UNL     1       0.002  -0.004   0.002  0.00  0.00    +0.043 A 
ATOM     23  C   UNL     1       0.006  -0.699  -1.198  0.00  0.00    +0.043 A 
ATOM     24  C   UNL     1       0.025  -2.084  -1.161  0.00  0.00    +0.115 A 
ATOM     25  N   UNL     1       0.040  -2.699   0.010  0.00  0.00    -0.230 NA
ATOM     26  C   UNL     1       0.035  -2.005   1.139  0.00  0.00    +0.189 A 
ATOM     27  N   UNL     1       0.022  -0.679   1.139  0.00  0.00    -0.227 NA
ENDBRANCH  20  26
ENDBRANCH  19  20
ENDBRANCH   1  19
TORSDOF 5
