REMARK  Name = ZINC65690321
REMARK  5 active torsions:
REMARK  status: ('A' for Active; 'I' for Inactive)
REMARK    1  A    between atoms: N_5  and  C_12
REMARK    2  A    between atoms: C_7  and  C_8
REMARK    3  A    between atoms: C_12  and  C_13
REMARK    4  A    between atoms: N_15  and  C_16
REMARK    5  A    between atoms: N_23  and  C_25
REMARK                            x       y       z     vdW  Elec       q    Type
REMARK                         _______ _______ _______ _____ _____    ______ ____
ROOT
ATOM      1  C   UNL     1       4.072  -0.981   1.378  0.00  0.00    +0.233 C 
ATOM      2  O   UNL     1       3.400  -0.589   2.309  0.00  0.00    -0.274 OA
ATOM      3  N   UNL     1       5.219  -1.650   1.609  0.00  0.00    -0.311 N 
ATOM      4  H   UNL     1       5.756  -1.963   0.865  0.00  0.00    +0.149 HD
ENDROOT
BRANCH   3   5
ATOM      5  C   UNL     1       5.653  -1.903   2.982  0.00  0.00    +0.076 C 
ATOM      6  C   UNL     1       6.463  -0.716   3.510  0.00  0.00    -0.007 C 
ATOM      7  C   UNL     1       6.790  -0.955   4.982  0.00  0.00    +0.003 C 
ATOM      8  C   UNL     1       7.570  -2.246   5.189  0.00  0.00    +0.001 C 
ATOM      9  C   UNL     1       6.937  -3.435   4.481  0.00  0.00    +0.003 C 
ATOM     10  C   UNL     1       6.561  -3.134   3.036  0.00  0.00    -0.007 C 
ATOM     11  C   UNL     1       7.792  -2.905   2.170  0.00  0.00    -0.073 C 
ATOM     12  N   UNL     1       8.541  -1.710   2.547  0.00  0.00    +0.382 N 
ATOM     13  C   UNL     1       7.718  -0.514   2.678  0.00  0.00    -0.073 C 
ATOM     14  H   UNL     1       9.059  -1.878   3.396  0.00  0.00    -0.081 HD
BRANCH  12  15
ATOM     15  C   UNL     1       9.543  -1.458   1.503  0.00  0.00    -0.069 C 
ATOM     16  C   UNL     1      11.014  -1.658   1.871  0.00  0.00    -0.017 C 
ATOM     17  C   UNL     1      10.458  -0.245   1.680  0.00  0.00    -0.017 C 
ENDBRANCH  12  15
ENDBRANCH   3   5
BRANCH   1  18
ATOM     18  C   UNL     1       3.623  -0.720  -0.037  0.00  0.00    +0.220 C 
BRANCH  18  23
ATOM     19  C   UNL     1      -0.017   1.398   0.010  0.00  0.00    +0.019 A 
ATOM     20  C   UNL     1       1.164   2.081   0.002  0.00  0.00    +0.071 A 
ATOM     21  C   UNL     1       2.373   1.364  -0.013  0.00  0.00    +0.252 A 
ATOM     22  O   UNL     1       3.437   1.963  -0.020  0.00  0.00    -0.268 OA
ATOM     23  N   UNL     1       2.358   0.018  -0.020  0.00  0.00    -0.306 N 
ATOM     24  C   UNL     1       1.184  -0.664  -0.013  0.00  0.00    +0.102 A 
ATOM     25  C   UNL     1       0.002  -0.004   0.002  0.00  0.00    +0.071 A 
BRANCH  25  26
ATOM     26  C   UNL     1      -1.292  -0.776   0.010  0.00  0.00    +0.419 C 
ATOM     27  F   UNL     1      -1.740  -0.923   1.327  0.00  0.00    -0.166 F 
ATOM     28  F   UNL     1      -2.253  -0.083  -0.734  0.00  0.00    -0.166 F 
ATOM     29  F   UNL     1      -1.086  -2.038  -0.556  0.00  0.00    -0.166 F 
ENDBRANCH  25  26
ENDBRANCH  18  23
ENDBRANCH   1  18
TORSDOF 5
