REMARK  Name = ZINC36839062
REMARK  8 active torsions:
REMARK  status: ('A' for Active; 'I' for Inactive)
REMARK    1  A    between atoms: C_1  and  C_2
REMARK    2  A    between atoms: N_8  and  S_9
REMARK    3  A    between atoms: S_9  and  C_12
REMARK    4  A    between atoms: C_15  and  C_18
REMARK    5  A    between atoms: N_20  and  C_21
REMARK    6  A    between atoms: C_21  and  C_22
REMARK    7  A    between atoms: C_22  and  C_24
REMARK    8  A    between atoms: C_22  and  N_29
REMARK                            x       y       z     vdW  Elec       q    Type
REMARK                         _______ _______ _______ _____ _____    ______ ____
ROOT
ATOM      1  C   UNL     1      -2.611   1.447   6.851  0.00  0.00    +0.244 C 
ATOM      2  O   UNL     1      -3.571   2.167   6.659  0.00  0.00    -0.270 OA
ATOM      3  N   UNL     1      -2.533   0.712   7.978  0.00  0.00    -0.312 N 
ATOM      4  H   UNL     1      -1.767   0.137   8.131  0.00  0.00    +0.149 HD
ENDROOT
BRANCH   1   8
ATOM      5  C   UNL     1       0.502   1.247   3.967  0.00  0.00    +0.106 A 
ATOM      6  C   UNL     1      -0.591   2.067   3.746  0.00  0.00    +0.029 A 
ATOM      7  C   UNL     1      -1.605   2.136   4.678  0.00  0.00    +0.015 A 
ATOM      8  C   UNL     1      -1.528   1.377   5.847  0.00  0.00    +0.037 A 
ATOM      9  C   UNL     1      -0.423   0.551   6.064  0.00  0.00    +0.015 A 
ATOM     10  C   UNL     1       0.582   0.487   5.120  0.00  0.00    +0.029 A 
BRANCH   5  11
ATOM     11  S   UNL     1       1.793   1.164   2.771  0.00  0.00    +0.061 S 
ATOM     12  O   UNL     1       2.908   0.567   3.418  0.00  0.00    -0.153 OA
ATOM     13  O   UNL     1       1.863   2.445   2.159  0.00  0.00    -0.153 OA
BRANCH  11  20
ATOM     14  C   UNL     1       2.217  -1.617   3.082  0.00  0.00    +0.026 C 
ATOM     15  C   UNL     1       1.445  -1.345   1.790  0.00  0.00    +0.077 C 
ATOM     16  C   UNL     1       2.211  -1.933   0.600  0.00  0.00    +0.020 C 
ATOM     17  C   UNL     1       1.508  -1.538  -0.700  0.00  0.00    +0.003 C 
ATOM     18  C   UNL     1       1.500  -0.014  -0.836  0.00  0.00    +0.017 C 
ATOM     19  C   UNL     1       0.726   0.596   0.337  0.00  0.00    +0.110 C 
ATOM     20  N   UNL     1       1.304   0.104   1.596  0.00  0.00    -0.174 NA
ENDBRANCH  11  20
ENDBRANCH   5  11
ENDBRANCH   1   8
BRANCH   3  21
ATOM     21  C   UNL     1      -3.607   0.781   8.973  0.00  0.00    +0.097 C 
BRANCH  21  22
ATOM     22  C   UNL     1      -3.338  -0.236  10.084  0.00  0.00    +0.016 C 
BRANCH  22  23
ATOM     23  N   UNL     1      -3.215  -1.578   9.500  0.00  0.00    +0.387 N 
ATOM     24  C   UNL     1      -3.068  -2.566  10.576  0.00  0.00    -0.078 C 
ATOM     25  C   UNL     1      -2.858  -3.956   9.971  0.00  0.00    -0.019 C 
ATOM     26  C   UNL     1      -4.067  -4.318   9.104  0.00  0.00    -0.004 C 
ATOM     27  C   UNL     1      -4.254  -3.241   8.031  0.00  0.00    -0.019 C 
ATOM     28  C   UNL     1      -4.413  -1.878   8.708  0.00  0.00    -0.078 C 
ATOM     29  H   UNL     1      -2.401  -1.611   8.903  0.00  0.00    -0.081 HD
ENDBRANCH  22  23
BRANCH  22  30
ATOM     30  C   UNL     1      -4.481  -0.219  11.067  0.00  0.00    +0.093 A 
ATOM     31  C   UNL     1      -4.513   0.467  12.223  0.00  0.00    +0.043 A 
ATOM     32  C   UNL     1      -5.764   0.197  12.825  0.00  0.00    +0.041 A 
ATOM     33  C   UNL     1      -6.421  -0.637  11.999  0.00  0.00    +0.195 A 
ATOM     34  O   UNL     1      -5.641  -0.881  10.934  0.00  0.00    -0.469 OA
ENDBRANCH  22  30
ENDBRANCH  21  22
ENDBRANCH   3  21
TORSDOF 7
