REMARK  Name = ZINC40291783
REMARK  4 active torsions:
REMARK  status: ('A' for Active; 'I' for Inactive)
REMARK    1  A    between atoms: C_1  and  C_2
REMARK    2  A    between atoms: C_3  and  C_21
REMARK    3  A    between atoms: C_7  and  C_8
REMARK    4  A    between atoms: N_9  and  O_10
REMARK                            x       y       z     vdW  Elec       q    Type
REMARK                         _______ _______ _______ _____ _____    ______ ____
ROOT
ATOM      1  C   UNL     1       0.072   1.502   0.030  0.00  0.00    +0.046 C 
ATOM      2  C   UNL     1       0.046  -0.004   0.012  0.00  0.00    -0.016 A 
ATOM      3  C   UNL     1      -0.059  -0.702  -1.181  0.00  0.00    +0.035 A 
ATOM      4  N   UNL     1      -0.080  -2.021  -1.177  0.00  0.00    -0.280 N 
ATOM      5  N   UNL     1      -0.007  -2.711  -0.098  0.00  0.00    -0.158 NA
ATOM      6  C   UNL     1       0.096  -2.145   1.096  0.00  0.00    +0.153 A 
ATOM      7  C   UNL     1       0.133  -0.743   1.197  0.00  0.00    +0.064 A 
ATOM      8  N   UNL     1       0.172  -2.930   2.237  0.00  0.00    -0.309 N 
ATOM      9  C   UNL     1      -1.050  -3.334   2.947  0.00  0.00    +0.112 C 
ATOM     10  C   UNL     1      -1.180  -4.862   2.853  0.00  0.00    +0.061 C 
ATOM     11  C   UNL     1       0.162  -5.472   3.097  0.00  0.00    -0.004 A 
ATOM     12  C   UNL     1       1.377  -4.862   3.060  0.00  0.00    -0.020 A 
ATOM     13  C   UNL     1       2.488  -5.664   3.319  0.00  0.00    +0.013 A 
ATOM     14  C   UNL     1       2.325  -6.978   3.594  0.00  0.00    +0.046 A 
ATOM     15  S   UNL     1       0.549  -7.155   3.500  0.00  0.00    -0.101 S 
ATOM     16  C   UNL     1       1.476  -3.374   2.749  0.00  0.00    +0.142 C 
ATOM     17  C   UNL     1      -0.149   0.047  -2.485  0.00  0.00    +0.065 C 
ATOM     18  H   UNL     1      -0.155  -2.488  -2.023  0.00  0.00    +0.189 HD
ENDROOT
BRANCH   7  19
ATOM     19  C   UNL     1       0.253  -0.072   2.510  0.00  0.00    +0.166 C 
ATOM     20  N   UNL     1      -0.815   0.205   3.199  0.00  0.00    -0.071 NA
ATOM     21  N   UNL     1       1.502   0.262   3.005  0.00  0.00    -0.340 N 
ATOM     22  H   UNL     1       2.299   0.056   2.491  0.00  0.00    +0.144 HD
ATOM     23  H   UNL     1       1.581   0.702   3.866  0.00  0.00    +0.144 HD
BRANCH  20  24
ATOM     24  O   UNL     1      -0.700   0.847   4.456  0.00  0.00    -0.408 OA
ATOM     25  H   UNL     1      -1.547   1.011   4.893  0.00  0.00    +0.328 HD
ENDBRANCH  20  24
ENDBRANCH   7  19
TORSDOF 2
