REMARK  Name = ZINC66419474
REMARK  10 active torsions:
REMARK  status: ('A' for Active; 'I' for Inactive)
REMARK    1  A    between atoms: C_1  and  C_2
REMARK    2  A    between atoms: C_3  and  C_7
REMARK    3  A    between atoms: C_7  and  N_8
REMARK    4  A    between atoms: N_8  and  C_9
REMARK    5  A    between atoms: C_10  and  C_12
REMARK    6  A    between atoms: C_24  and  O_26
REMARK    7  A    between atoms: O_26  and  C_27
REMARK    8  A    between atoms: C_27  and  C_28
REMARK    9  A    between atoms: C_27  and  C_29
REMARK   10  A    between atoms: C_27  and  C_30
REMARK                            x       y       z     vdW  Elec       q    Type
REMARK                         _______ _______ _______ _____ _____    ______ ____
ROOT
ATOM      1  C   UNL     1       3.404   1.334  -3.367  0.00  0.00    +0.166 C 
ATOM      2  C   UNL     1       4.397   0.731  -2.336  0.00  0.00    +0.037 C 
ATOM      3  C   UNL     1       4.804   1.974  -1.529  0.00  0.00    +0.012 C 
ATOM      4  C   UNL     1       6.168   1.897  -0.866  0.00  0.00    +0.005 C 
ATOM      5  C   UNL     1       6.444   3.268  -0.227  0.00  0.00    +0.000 C 
ATOM      6  C   UNL     1       6.399   4.386  -1.263  0.00  0.00    +0.002 C 
ATOM      7  C   UNL     1       5.069   4.383  -2.034  0.00  0.00    +0.023 C 
ATOM      8  C   UNL     1       4.900   3.023  -2.670  0.00  0.00    +0.083 C 
ATOM      9  N   UNL     1       3.714   2.778  -3.482  0.00  0.00    -0.253 N 
ATOM     10  C   UNL     1       3.029   3.690  -4.201  0.00  0.00    +0.404 C 
ATOM     11  O   UNL     1       3.389   4.850  -4.212  0.00  0.00    -0.226 OA
ENDROOT
BRANCH   1  14
ATOM     12  N   UNL     1       1.368  -0.036  -3.052  0.00  0.00    -0.298 N 
ATOM     13  C   UNL     1       2.071  -1.145  -3.701  0.00  0.00    +0.132 C 
ATOM     14  C   UNL     1       1.988   1.150  -2.885  0.00  0.00    +0.236 C 
ATOM     15  O   UNL     1       1.406   2.068  -2.348  0.00  0.00    -0.274 OA
BRANCH  12  16
ATOM     16  C   UNL     1      -0.008  -0.215  -2.583  0.00  0.00    +0.151 C 
BRANCH  16  19
ATOM     17  C   UNL     1      -0.018   1.503   0.010  0.00  0.00    +0.066 C 
ATOM     18  C   UNL     1       0.002  -0.004   0.002  0.00  0.00    +0.050 A 
ATOM     19  C   UNL     1       0.006  -0.708  -1.159  0.00  0.00    +0.029 A 
ATOM     20  S   UNL     1       0.032  -2.379  -0.531  0.00  0.00    -0.079 S 
ATOM     21  C   UNL     1       0.036  -2.009   1.111  0.00  0.00    +0.156 A 
ATOM     22  N   UNL     1       0.023  -0.699   1.122  0.00  0.00    -0.252 NA
ENDBRANCH  16  19
ENDBRANCH  12  16
ENDBRANCH   1  14
BRANCH  10  23
ATOM     23  O   UNL     1       1.945   3.315  -4.905  0.00  0.00    -0.445 OA
BRANCH  23  24
ATOM     24  C   UNL     1       1.267   4.333  -5.644  0.00  0.00    +0.107 C 
ATOM     25  C   UNL     1       2.227   4.949  -6.663  0.00  0.00    +0.055 C 
ATOM     26  C   UNL     1       0.070   3.721  -6.375  0.00  0.00    +0.055 C 
ATOM     27  C   UNL     1       0.777   5.419  -4.684  0.00  0.00    +0.055 C 
ENDBRANCH  23  24
ENDBRANCH  10  23
TORSDOF 5
