REMARK  Name = ZINC63807095
REMARK  6 active torsions:
REMARK  status: ('A' for Active; 'I' for Inactive)
REMARK    1  A    between atoms: C_1  and  C_2
REMARK    2  A    between atoms: C_2  and  C_3
REMARK    3  A    between atoms: C_2  and  C_4
REMARK    4  A    between atoms: C_4  and  C_5
REMARK    5  A    between atoms: C_10  and  C_12
REMARK    6  A    between atoms: C_12  and  N_18
REMARK                            x       y       z     vdW  Elec       q    Type
REMARK                         _______ _______ _______ _____ _____    ______ ____
ROOT
ATOM      1  C   UNL     1      -1.471  -8.289  -1.111  0.00  0.00    +0.112 C 
ATOM      2  C   UNL     1      -0.130  -8.955  -1.424  0.00  0.00    +0.033 C 
ATOM      3  C   UNL     1       0.725  -9.001  -0.156  0.00  0.00    +0.002 C 
ATOM      4  C   UNL     1      -0.005  -9.806   0.921  0.00  0.00    +0.000 C 
ATOM      5  C   UNL     1      -1.346  -9.140   1.235  0.00  0.00    +0.002 C 
ATOM      6  C   UNL     1      -2.201  -9.094  -0.033  0.00  0.00    +0.033 C 
ENDROOT
BRANCH   1  12
ATOM      7  C   UNL     1      -0.575  -2.045  -0.551  0.00  0.00    +0.104 A 
ATOM      8  N   UNL     1      -0.829  -2.881   0.436  0.00  0.00    -0.145 NA
ATOM      9  N   UNL     1      -0.963  -4.111   0.182  0.00  0.00    -0.126 NA
ATOM     10  C   UNL     1      -0.855  -4.584  -1.044  0.00  0.00    +0.188 A 
ATOM     11  N   UNL     1      -0.972  -5.896  -1.491  0.00  0.00    -0.262 N 
ATOM     12  C   UNL     1      -1.232  -6.886  -0.614  0.00  0.00    +0.240 C 
ATOM     13  O   UNL     1      -1.273  -6.648   0.574  0.00  0.00    -0.273 OA
ATOM     14  S   UNL     1      -0.545  -3.183  -1.929  0.00  0.00    -0.035 S 
ATOM     15  H   UNL     1      -0.867  -6.098  -2.434  0.00  0.00    +0.157 HD
BRANCH   7  16
ATOM     16  C   UNL     1      -0.373  -0.552  -0.526  0.00  0.00    +0.068 C 
BRANCH  16  18
ATOM     17  C   UNL     1       1.335   1.269  -0.425  0.00  0.00    +0.007 C 
ATOM     18  C   UNL     1       1.112  -0.242  -0.326  0.00  0.00    -0.011 C 
ATOM     19  C   UNL     1       1.554  -0.733   1.054  0.00  0.00    +0.007 C 
ENDBRANCH  16  18
ENDBRANCH   7  16
ENDBRANCH   1  12
BRANCH   1  20
ATOM     20  N   UNL     1      -2.292  -8.244  -2.328  0.00  0.00    -0.228 NA
ATOM     21  C   UNL     1      -2.618  -9.615  -2.802  0.00  0.00    +0.169 C 
ATOM     22  N   UNL     1      -3.853  -9.396  -3.601  0.00  0.00    -0.335 NA
ATOM     23  N   UNL     1      -4.581  -8.361  -2.861  0.00  0.00    +0.408 N 
ATOM     24  N   UNL     1      -3.598  -7.636  -2.059  0.00  0.00    -0.280 NA
ATOM     25  H   UNL     1      -3.629  -9.082  -4.534  0.00  0.00    +0.105 HD
ATOM     26  H   UNL     1      -5.032  -7.730  -3.506  0.00  0.00    -0.032 HD
ATOM     27  H   UNL     1      -3.825  -7.686  -1.077  0.00  0.00    +0.121 HD
ATOM     28  H   UNL     1      -5.268  -8.790  -2.258  0.00  0.00    -0.032 HD
ENDBRANCH   1  20
TORSDOF 4
