REMARK  Name = ZINC22781310
REMARK  5 active torsions:
REMARK  status: ('A' for Active; 'I' for Inactive)
REMARK    1  A    between atoms: C_1  and  C_2
REMARK    2  A    between atoms: C_2  and  C_4
REMARK    3  A    between atoms: C_2  and  N_11
REMARK    4  A    between atoms: N_11  and  C_12
REMARK    5  A    between atoms: C_12  and  C_13
REMARK                            x       y       z     vdW  Elec       q    Type
REMARK                         _______ _______ _______ _____ _____    ______ ____
ROOT
ATOM      1  N   UNL     1       0.690  -0.478  -1.207  0.00  0.00    +0.386 N 
ATOM      2  H   UNL     1       1.508   0.213  -1.458  0.00  0.00    -0.085 HD
ATOM      3  H   UNL     1       1.101  -1.482  -1.025  0.00  0.00    -0.085 HD
ENDROOT
BRANCH   1   5
ATOM      4  C   UNL     1      -0.019   1.526   0.010  0.00  0.00    -0.009 C 
ATOM      5  C   UNL     1       0.002  -0.004   0.002  0.00  0.00    -0.042 C 
BRANCH   5   6
ATOM      6  C   UNL     1       0.731  -0.503   1.223  0.00  0.00    -0.043 A 
ATOM      7  C   UNL     1       2.076  -0.814   1.147  0.00  0.00    +0.003 A 
ATOM      8  C   UNL     1       2.744  -1.272   2.266  0.00  0.00    +0.000 A 
ATOM      9  C   UNL     1       2.069  -1.419   3.463  0.00  0.00    +0.001 A 
ATOM     10  C   UNL     1       0.724  -1.109   3.541  0.00  0.00    +0.020 A 
ATOM     11  C   UNL     1       0.056  -0.646   2.422  0.00  0.00    +0.043 A 
ATOM     12 CL   UNL     1      -1.632  -0.249   2.520  0.00  0.00    -0.083 Cl
ENDBRANCH   5   6
ENDBRANCH   1   5
BRANCH   1  13
ATOM     13  C   UNL     1      -0.235  -0.547  -2.346  0.00  0.00    -0.046 C 
BRANCH  13  14
ATOM     14  C   UNL     1       0.504  -1.036  -3.564  0.00  0.00    -0.060 A 
ATOM     15  C   UNL     1       1.109  -0.128  -4.414  0.00  0.00    +0.051 A 
ATOM     16  C   UNL     1       1.794  -0.575  -5.532  0.00  0.00    +0.168 A 
ATOM     17  C   UNL     1       1.862  -1.939  -5.804  0.00  0.00    +0.180 A 
ATOM     18  C   UNL     1       1.248  -2.843  -4.951  0.00  0.00    +0.063 A 
ATOM     19  C   UNL     1       0.571  -2.390  -3.833  0.00  0.00    +0.021 A 
ATOM     20 BR   UNL     1       1.338  -4.697  -5.315  0.00  0.00    -0.046 Br
ATOM     21  O   UNL     1       2.580  -2.121  -6.951  0.00  0.00    -0.451 OA
ATOM     22  C   UNL     1       3.295  -0.888  -7.155  0.00  0.00    +0.466 C 
ATOM     23  O   UNL     1       2.469   0.098  -6.509  0.00  0.00    -0.453 OA
ENDBRANCH  13  14
ENDBRANCH   1  13
TORSDOF 4
