REMARK  Name = ZINC12209971
REMARK  7 active torsions:
REMARK  status: ('A' for Active; 'I' for Inactive)
REMARK    1  A    between atoms: C_1  and  C_2
REMARK    2  A    between atoms: C_5  and  N_9
REMARK    3  A    between atoms: N_9  and  S_10
REMARK    4  A    between atoms: S_10  and  C_13
REMARK    5  A    between atoms: C_14  and  C_28
REMARK    6  A    between atoms: C_16  and  N_20
REMARK    7  A    between atoms: C_18  and  C_19
REMARK                            x       y       z     vdW  Elec       q    Type
REMARK                         _______ _______ _______ _____ _____    ______ ____
ROOT
ATOM      1  C   UNL     1       3.069  -0.229  -0.275  0.00  0.00    +0.114 A 
ATOM      2  C   UNL     1       1.881  -0.850   0.062  0.00  0.00    -0.022 A 
ATOM      3  C   UNL     1       0.774  -0.093   0.394  0.00  0.00    +0.030 A 
ATOM      4  C   UNL     1       0.856   1.293   0.390  0.00  0.00    +0.051 A 
ATOM      5  C   UNL     1       2.052   1.914   0.051  0.00  0.00    +0.030 A 
ATOM      6  C   UNL     1       3.155   1.151  -0.280  0.00  0.00    -0.022 A 
ATOM      7  C   UNL     1       4.452   1.824  -0.647  0.00  0.00    +0.046 C 
ATOM      8  C   UNL     1       1.792  -2.355   0.066  0.00  0.00    +0.046 C 
ENDROOT
BRANCH   4   9
ATOM      9  N   UNL     1      -0.262   2.062   0.720  0.00  0.00    -0.207 N 
ATOM     10  C   UNL     1      -0.116   3.425   1.251  0.00  0.00    +0.131 C 
ATOM     11  C   UNL     1      -0.869   4.405   0.353  0.00  0.00    +0.022 C 
ATOM     12  C   UNL     1      -2.370   4.124   0.387  0.00  0.00    +0.026 C 
ATOM     13  C   UNL     1      -2.667   2.809  -0.344  0.00  0.00    +0.189 C 
ATOM     14  S   UNL     1      -1.803   1.466   0.518  0.00  0.00    +0.045 S 
ATOM     15  O   UNL     1      -1.655   0.343  -0.340  0.00  0.00    -0.155 OA
ATOM     16  O   UNL     1      -2.316   1.315   1.835  0.00  0.00    -0.155 OA
ENDBRANCH   4   9
BRANCH   1  17
ATOM     17  S   UNL     1       4.479  -1.198  -0.698  0.00  0.00    +0.073 S 
ATOM     18  O   UNL     1       4.007  -2.518  -0.937  0.00  0.00    -0.150 OA
ATOM     19  O   UNL     1       5.202  -0.460  -1.673  0.00  0.00    -0.150 OA
BRANCH  17  20
ATOM     20  N   UNL     1       5.441  -1.276   0.648  0.00  0.00    -0.216 N 
ATOM     21  H   UNL     1       6.301  -0.828   0.655  0.00  0.00    +0.174 HD
BRANCH  20  26
ATOM     22  C   UNL     1       3.706  -4.163   5.211  0.00  0.00    +0.045 C 
ATOM     23  C   UNL     1       4.167  -3.397   3.998  0.00  0.00    -0.032 A 
ATOM     24  C   UNL     1       3.306  -2.515   3.370  0.00  0.00    +0.006 A 
ATOM     25  C   UNL     1       3.727  -1.806   2.263  0.00  0.00    +0.025 A 
ATOM     26  C   UNL     1       5.014  -1.988   1.771  0.00  0.00    +0.049 A 
ATOM     27  C   UNL     1       5.877  -2.873   2.403  0.00  0.00    +0.044 A 
ATOM     28  C   UNL     1       5.452  -3.575   3.515  0.00  0.00    +0.046 A 
ATOM     29 CL   UNL     1       6.529  -4.684   4.306  0.00  0.00    -0.083 Cl
ENDBRANCH  20  26
ENDBRANCH  17  20
ENDBRANCH   1  17
TORSDOF 4
