REMARK  Name = ZINC67261566
REMARK  13 active torsions:
REMARK  status: ('A' for Active; 'I' for Inactive)
REMARK    1  A    between atoms: C_1  and  C_2
REMARK    2  A    between atoms: C_4  and  C_25
REMARK    3  A    between atoms: C_7  and  N_8
REMARK    4  A    between atoms: N_11  and  C_12
REMARK    5  A    between atoms: C_12  and  C_13
REMARK    6  A    between atoms: C_13  and  N_14
REMARK    7  A    between atoms: N_14  and  C_15
REMARK    8  A    between atoms: C_18  and  O_20
REMARK    9  A    between atoms: O_20  and  C_21
REMARK   10  A    between atoms: C_21  and  C_22
REMARK   11  A    between atoms: C_21  and  C_23
REMARK   12  A    between atoms: C_21  and  C_24
REMARK   13  A    between atoms: N_27  and  C_28
REMARK                            x       y       z     vdW  Elec       q    Type
REMARK                         _______ _______ _______ _____ _____    ______ ____
ROOT
ATOM      1  N   UNL     1       0.097   0.027   2.422  0.00  0.00    -0.269 N 
ATOM      2  C   UNL     1       0.002  -0.656   3.580  0.00  0.00    +0.304 C 
ATOM      3  O   UNL     1       0.018  -1.872   3.572  0.00  0.00    -0.253 OA
ATOM      4  N   UNL     1      -0.112   0.009   4.747  0.00  0.00    -0.298 N 
ATOM      5  H   UNL     1       0.147   0.996   2.433  0.00  0.00    +0.156 HD
ATOM      6  H   UNL     1      -0.125   0.979   4.754  0.00  0.00    +0.150 HD
ENDROOT
BRANCH   1  13
ATOM      7  C   UNL     1      -1.167   1.233   0.182  0.00  0.00    +0.045 C 
ATOM      8  C   UNL     1      -0.482  -0.106   0.086  0.00  0.00    -0.028 A 
ATOM      9  C   UNL     1      -0.453  -0.778  -1.116  0.00  0.00    +0.018 A 
ATOM     10  C   UNL     1       0.183  -2.019  -1.204  0.00  0.00    +0.037 A 
ATOM     11  C   UNL     1       0.786  -2.575  -0.073  0.00  0.00    +0.015 A 
ATOM     12  C   UNL     1       0.753  -1.898   1.125  0.00  0.00    +0.024 A 
ATOM     13  C   UNL     1       0.124  -0.659   1.209  0.00  0.00    +0.038 A 
BRANCH  10  14
ATOM     14  C   UNL     1       0.216  -2.743  -2.490  0.00  0.00    +0.244 C 
ATOM     15  O   UNL     1      -0.310  -2.259  -3.474  0.00  0.00    -0.270 OA
ATOM     16  N   UNL     1       0.829  -3.940  -2.574  0.00  0.00    -0.314 N 
ATOM     17  C   UNL     1       0.863  -4.658  -3.851  0.00  0.00    +0.128 C 
ATOM     18  H   UNL     1       1.249  -4.326  -1.790  0.00  0.00    +0.149 HD
ENDBRANCH  10  14
ENDBRANCH   1  13
BRANCH   4  19
ATOM     19  C   UNL     1      -0.216  -0.734   6.006  0.00  0.00    +0.125 C 
BRANCH  19  20
ATOM     20  C   UNL     1      -0.333   0.251   7.171  0.00  0.00    +0.130 C 
BRANCH  20  21
ATOM     21  N   UNL     1      -0.437  -0.491   8.430  0.00  0.00    -0.263 N 
ATOM     22  C   UNL     1      -1.647  -0.847   8.904  0.00  0.00    +0.404 C 
ATOM     23  O   UNL     1      -2.656  -0.475   8.338  0.00  0.00    -0.226 OA
BRANCH  21  24
ATOM     24  C   UNL     1       0.775  -0.846   9.173  0.00  0.00    +0.079 C 
ATOM     25  C   UNL     1       2.081  -0.163   8.762  0.00  0.00    +0.024 C 
ATOM     26  C   UNL     1       1.852  -1.639   8.430  0.00  0.00    +0.024 C 
ENDBRANCH  21  24
BRANCH  22  27
ATOM     27  O   UNL     1      -1.739  -1.616  10.005  0.00  0.00    -0.445 OA
BRANCH  27  28
ATOM     28  C   UNL     1      -3.053  -1.956  10.452  0.00  0.00    +0.107 C 
ATOM     29  C   UNL     1      -3.783  -2.727   9.351  0.00  0.00    +0.055 C 
ATOM     30  C   UNL     1      -2.956  -2.827  11.706  0.00  0.00    +0.055 C 
ATOM     31  C   UNL     1      -3.827  -0.677  10.778  0.00  0.00    +0.055 C 
ENDBRANCH  27  28
ENDBRANCH  22  27
ENDBRANCH  20  21
ENDBRANCH  19  20
ENDBRANCH   4  19
TORSDOF 8
