REMARK  Name = ZINC06318799
REMARK  9 active torsions:
REMARK  status: ('A' for Active; 'I' for Inactive)
REMARK    1  A    between atoms: C_1  and  C_2
REMARK    2  A    between atoms: C_2  and  N_3
REMARK    3  A    between atoms: C_7  and  C_9
REMARK    4  A    between atoms: C_9  and  C_11
REMARK    5  A    between atoms: C_9  and  S_12
REMARK    6  A    between atoms: S_12  and  C_13
REMARK    7  A    between atoms: C_15  and  C_25
REMARK    8  A    between atoms: C_18  and  C_24
REMARK    9  A    between atoms: C_20  and  C_23
REMARK                            x       y       z     vdW  Elec       q    Type
REMARK                         _______ _______ _______ _____ _____    ______ ____
ROOT
ATOM      1  S   UNL     1      -2.739   0.842   0.020  0.00  0.00    -0.093 S 
ENDROOT
BRANCH   1   2
ATOM      2  C   UNL     1      -1.236   1.762   0.018  0.00  0.00    +0.099 A 
ATOM      3  C   UNL     1      -0.013   1.076   0.008  0.00  0.00    +0.038 A 
ATOM      4  C   UNL     1       1.157   1.774   0.001  0.00  0.00    -0.039 A 
ATOM      5  C   UNL     1       1.094   3.183   0.008  0.00  0.00    +0.004 A 
ATOM      6  C   UNL     1       2.260   3.963   0.002  0.00  0.00    +0.013 A 
ATOM      7  C   UNL     1       2.162   5.322   0.009  0.00  0.00    -0.050 A 
ATOM      8  C   UNL     1       0.918   5.948   0.024  0.00  0.00    +0.008 A 
ATOM      9  C   UNL     1      -0.233   5.221   0.031  0.00  0.00    -0.024 A 
ATOM     10  C   UNL     1      -0.172   3.817   0.023  0.00  0.00    +0.075 A 
ATOM     11  N   UNL     1      -1.288   3.079   0.030  0.00  0.00    -0.240 NA
ATOM     12  C   UNL     1      -1.568   5.920   0.046  0.00  0.00    +0.046 C 
ATOM     13  C   UNL     1       3.416   6.158   0.001  0.00  0.00    +0.044 C 
ATOM     14  C   UNL     1       2.483   1.059  -0.015  0.00  0.00    +0.044 C 
ENDBRANCH   1   2
BRANCH   1  15
ATOM     15  C   UNL     1      -3.938   2.198   0.033  0.00  0.00    +0.136 C 
ATOM     16  C   UNL     1      -3.813   2.977   1.344  0.00  0.00    +0.029 C 
BRANCH  15  21
ATOM     17  N   UNL     1      -8.559   2.657  -1.210  0.00  0.00    -0.299 N 
ATOM     18  C   UNL     1      -7.569   1.896  -0.703  0.00  0.00    +0.306 C 
ATOM     19  O   UNL     1      -7.799   0.759  -0.342  0.00  0.00    -0.252 OA
ATOM     20  N   UNL     1      -6.322   2.398  -0.595  0.00  0.00    -0.239 N 
ATOM     21  C   UNL     1      -5.332   1.637  -0.088  0.00  0.00    +0.233 C 
ATOM     22  O   UNL     1      -5.562   0.503   0.272  0.00  0.00    -0.274 OA
ATOM     23  H   UNL     1      -8.375   3.564  -1.497  0.00  0.00    +0.150 HD
ATOM     24  H   UNL     1      -6.138   3.306  -0.883  0.00  0.00    +0.159 HD
BRANCH  17  26
ATOM     25  C   UNL     1     -10.840   3.171  -1.928  0.00  0.00    +0.024 C 
ATOM     26  C   UNL     1      -9.914   2.112  -1.327  0.00  0.00    +0.102 C 
ENDBRANCH  17  26
ENDBRANCH  15  21
ENDBRANCH   1  15
TORSDOF 4
