REMARK  Name = ZINC31633212
REMARK  12 active torsions:
REMARK  status: ('A' for Active; 'I' for Inactive)
REMARK    1  A    between atoms: C_1  and  C_2
REMARK    2  A    between atoms: C_2  and  C_23
REMARK    3  A    between atoms: N_5  and  C_9
REMARK    4  A    between atoms: C_9  and  C_10
REMARK    5  A    between atoms: C_10  and  C_11
REMARK    6  A    between atoms: C_11  and  O_12
REMARK    7  A    between atoms: O_12  and  C_13
REMARK    8  A    between atoms: C_16  and  C_19
REMARK    9  A    between atoms: C_19  and  C_20
REMARK   10  A    between atoms: C_19  and  C_21
REMARK   11  A    between atoms: C_19  and  C_22
REMARK   12  A    between atoms: C_26  and  N_29
REMARK                            x       y       z     vdW  Elec       q    Type
REMARK                         _______ _______ _______ _____ _____    ______ ____
ROOT
ATOM      1  C   UNL     1      -0.019   1.526   0.010  0.00  0.00    +0.047 C 
ATOM      2  C   UNL     1       0.002  -0.004   0.002  0.00  0.00    +0.135 C 
ATOM      3  C   UNL     1      -1.403  -0.557   0.139  0.00  0.00    +0.251 C 
ATOM      4  O   UNL     1      -2.332  -0.392  -0.621  0.00  0.00    -0.272 OA
ATOM      5  N   UNL     1      -1.403  -1.272   1.282  0.00  0.00    -0.224 N 
ATOM      6  C   UNL     1      -0.206  -1.247   1.879  0.00  0.00    +0.310 C 
ATOM      7  O   UNL     1       0.040  -1.819   2.924  0.00  0.00    -0.252 OA
ATOM      8  N   UNL     1       0.695  -0.520   1.195  0.00  0.00    -0.281 N 
ATOM      9  H   UNL     1       1.621  -0.365   1.440  0.00  0.00    +0.152 HD
ENDROOT
BRANCH   2  10
ATOM     10  C   UNL     1       0.657  -0.517  -1.255  0.00  0.00    -0.015 A 
ATOM     11  C   UNL     1      -0.107  -0.772  -2.378  0.00  0.00    +0.008 A 
ATOM     12  C   UNL     1       0.493  -1.242  -3.530  0.00  0.00    +0.033 A 
ATOM     13  C   UNL     1       1.859  -1.457  -3.560  0.00  0.00    +0.126 A 
ATOM     14  C   UNL     1       2.623  -1.202  -2.437  0.00  0.00    +0.033 A 
ATOM     15  C   UNL     1       2.023  -0.727  -1.286  0.00  0.00    +0.008 A 
BRANCH  13  16
ATOM     16  N   UNL     1       2.502  -1.962  -4.794  0.00  0.00    +0.056 N 
ATOM     17  O   UNL     1       1.833  -2.186  -5.776  0.00  0.00    -0.126 OA
ATOM     18  O   UNL     1       3.696  -2.150  -4.820  0.00  0.00    -0.126 OA
ENDBRANCH  13  16
ENDBRANCH   2  10
BRANCH   5  19
ATOM     19  C   UNL     1      -2.569  -1.986   1.805  0.00  0.00    +0.121 C 
BRANCH  19  20
ATOM     20  C   UNL     1      -2.585  -3.413   1.252  0.00  0.00    +0.060 C 
BRANCH  20  21
ATOM     21  C   UNL     1      -3.803  -4.159   1.798  0.00  0.00    +0.230 C 
BRANCH  21  22
ATOM     22  O   UNL     1      -3.818  -5.491   1.281  0.00  0.00    -0.492 OA
BRANCH  22  23
ATOM     23  C   UNL     1      -4.843  -6.294   1.671  0.00  0.00    +0.121 A 
ATOM     24  C   UNL     1      -5.817  -5.807   2.530  0.00  0.00    +0.046 A 
ATOM     25  C   UNL     1      -6.858  -6.625   2.926  0.00  0.00    +0.008 A 
ATOM     26  C   UNL     1      -6.929  -7.927   2.466  0.00  0.00    -0.042 A 
ATOM     27  C   UNL     1      -5.958  -8.414   1.611  0.00  0.00    +0.008 A 
ATOM     28  C   UNL     1      -4.919  -7.599   1.207  0.00  0.00    +0.046 A 
BRANCH  26  29
ATOM     29  C   UNL     1      -8.065  -8.817   2.899  0.00  0.00    -0.013 C 
ATOM     30  C   UNL     1      -9.394  -8.197   2.462  0.00  0.00    +0.015 C 
ATOM     31  C   UNL     1      -7.908 -10.195   2.254  0.00  0.00    +0.015 C 
ATOM     32  C   UNL     1      -8.047  -8.962   4.422  0.00  0.00    +0.015 C 
ENDBRANCH  26  29
ENDBRANCH  22  23
ENDBRANCH  21  22
ENDBRANCH  20  21
ENDBRANCH  19  20
ENDBRANCH   5  19
TORSDOF 8
