REMARK  Name = ZINC39686308
REMARK  7 active torsions:
REMARK  status: ('A' for Active; 'I' for Inactive)
REMARK    1  A    between atoms: C_1  and  C_2
REMARK    2  A    between atoms: C_2  and  C_3
REMARK    3  A    between atoms: C_2  and  C_4
REMARK    4  A    between atoms: C_4  and  C_5
REMARK    5  A    between atoms: C_10  and  N_13
REMARK    6  A    between atoms: C_14  and  C_16
REMARK    7  A    between atoms: C_27  and  C_29
REMARK                            x       y       z     vdW  Elec       q    Type
REMARK                         _______ _______ _______ _____ _____    ______ ____
ROOT
ATOM      1  C   UNL     1       6.324   1.216  -7.681  0.00  0.00    +0.100 C 
ATOM      2  C   UNL     1       5.587   0.586  -8.884  0.00  0.00    +0.121 C 
ATOM      3  N   UNL     1       6.567   0.643  -9.994  0.00  0.00    -0.300 N 
ATOM      4  C   UNL     1       7.865   0.317  -9.357  0.00  0.00    +0.115 C 
ATOM      5  C   UNL     1       7.819   1.036  -7.995  0.00  0.00    -0.004 C 
ATOM      6  C   UNL     1       8.485   0.178  -6.923  0.00  0.00    -0.010 C 
ATOM      7  C   UNL     1       9.982   0.063  -7.225  0.00  0.00    -0.082 C 
ATOM      8  N   UNL     1      10.582   1.402  -7.252  0.00  0.00    +0.379 N 
ATOM      9  C   UNL     1      10.001   2.189  -8.346  0.00  0.00    -0.082 C 
ATOM     10  C   UNL     1       8.505   2.395  -8.091  0.00  0.00    -0.010 C 
ATOM     11  C   UNL     1       6.331   0.927 -11.290  0.00  0.00    +0.219 C 
ATOM     12  O   UNL     1       7.246   0.934 -12.086  0.00  0.00    -0.275 OA
ATOM     13  H   UNL     1      10.405   1.866  -6.374  0.00  0.00    -0.086 HD
ATOM     14  H   UNL     1      11.578   1.319  -7.391  0.00  0.00    -0.086 HD
ENDROOT
BRANCH  11  15
ATOM     15  C   UNL     1       4.930   1.237 -11.751  0.00  0.00    +0.079 C 
ATOM     16  C   UNL     1       4.932   1.514 -13.259  0.00  0.00    +0.017 C 
ATOM     17  C   UNL     1       3.538   1.997 -13.665  0.00  0.00    +0.027 C 
ATOM     18  C   UNL     1       2.491   1.072 -13.119  0.00  0.00    -0.031 C 
ATOM     19  C   UNL     1       2.700   0.222 -12.165  0.00  0.00    -0.030 C 
ATOM     20  C   UNL     1       4.021   0.037 -11.475  0.00  0.00    +0.039 C 
ENDBRANCH  11  15
BRANCH   1  22
ATOM     21  N   UNL     1       5.985   1.148  -5.231  0.00  0.00    -0.312 N 
ATOM     22  C   UNL     1       5.965   0.492  -6.408  0.00  0.00    +0.218 C 
ATOM     23  O   UNL     1       5.657  -0.680  -6.444  0.00  0.00    -0.275 OA
ATOM     24  H   UNL     1       6.231   2.086  -5.203  0.00  0.00    +0.149 HD
BRANCH  21  30
ATOM     25  C   UNL     1       6.347   0.019   0.029  0.00  0.00    +0.216 C 
ATOM     26  O   UNL     1       7.293  -0.651   0.387  0.00  0.00    -0.276 OA
ATOM     27  N   UNL     1       5.877  -0.098  -1.229  0.00  0.00    -0.301 N 
ATOM     28  C   UNL     1       4.736   0.711  -1.679  0.00  0.00    +0.109 C 
ATOM     29  C   UNL     1       5.133   1.454  -2.959  0.00  0.00    +0.041 C 
ATOM     30  C   UNL     1       5.636   0.445  -3.994  0.00  0.00    +0.076 C 
ATOM     31  C   UNL     1       6.873  -0.273  -3.450  0.00  0.00    +0.041 C 
ATOM     32  C   UNL     1       6.499  -1.031  -2.177  0.00  0.00    +0.109 C 
BRANCH  25  33
ATOM     33  C   UNL     1       5.698   0.981   0.990  0.00  0.00    +0.099 C 
BRANCH  33  35
ATOM     34  C   UNL     1       7.854   1.419   2.173  0.00  0.00    +0.008 C 
ATOM     35  C   UNL     1       6.418   0.918   2.338  0.00  0.00    -0.008 C 
ATOM     36  C   UNL     1       5.684   1.801   3.350  0.00  0.00    +0.008 C 
ENDBRANCH  33  35
ENDBRANCH  25  33
ENDBRANCH  21  30
ENDBRANCH   1  22
TORSDOF 5
