REMARK  Name = ZINC32843638
REMARK  5 active torsions:
REMARK  status: ('A' for Active; 'I' for Inactive)
REMARK    1  A    between atoms: C_4  and  S_8
REMARK    2  A    between atoms: S_8  and  N_11
REMARK    3  A    between atoms: N_11  and  C_12
REMARK    4  A    between atoms: C_12  and  C_13
REMARK    5  A    between atoms: C_19  and  C_23
REMARK                            x       y       z     vdW  Elec       q    Type
REMARK                         _______ _______ _______ _____ _____    ______ ____
ROOT
ATOM      1  C   UNL     1      -3.083   5.584   0.060  0.00  0.00    +0.182 C 
ENDROOT
BRANCH   1   2
ATOM      2  C   UNL     1      -2.557   4.172   0.048  0.00  0.00    +0.153 A 
ATOM      3  N   UNL     1      -3.276   3.079   0.034  0.00  0.00    -0.132 NA
ATOM      4  N   UNL     1      -2.512   2.043   0.025  0.00  0.00    -0.128 NA
ATOM      5  C   UNL     1      -1.246   2.428   0.021  0.00  0.00    +0.180 A 
ATOM      6  N   UNL     1      -1.248   3.801   0.033  0.00  0.00    -0.284 N 
ATOM      7  C   UNL     1      -0.073   4.494   0.026  0.00  0.00    +0.107 A 
ATOM      8  C   UNL     1       1.108   3.841   0.012  0.00  0.00    +0.073 A 
ATOM      9  C   UNL     1       1.143   2.436   0.004  0.00  0.00    +0.037 A 
ATOM     10  C   UNL     1      -0.021   1.732   0.012  0.00  0.00    +0.086 A 
ATOM     11 CL   UNL     1       0.002  -0.004   0.002  0.00  0.00    -0.080 Cl
BRANCH   8  12
ATOM     12  C   UNL     1       2.396   4.623   0.004  0.00  0.00    +0.419 C 
ATOM     13  F   UNL     1       3.479   3.737  -0.010  0.00  0.00    -0.166 F 
ATOM     14  F   UNL     1       2.442   5.435  -1.135  0.00  0.00    -0.166 F 
ATOM     15  F   UNL     1       2.463   5.423   1.150  0.00  0.00    -0.166 F 
ENDBRANCH   8  12
ENDBRANCH   1   2
BRANCH   1  16
ATOM     16  N   UNL     1      -3.266   6.050  -1.317  0.00  0.00    -0.183 NA
ATOM     17  H   UNL     1      -2.676   5.604  -2.131  0.00  0.00    +0.148 HD
BRANCH  16  18
ATOM     18  S   UNL     1      -4.169   7.404  -1.620  0.00  0.00    +0.060 S 
ATOM     19  O   UNL     1      -4.136   7.608  -3.026  0.00  0.00    -0.153 OA
ATOM     20  O   UNL     1      -5.385   7.251  -0.900  0.00  0.00    -0.153 OA
BRANCH  18  24
ATOM     21  C   UNL     1      -1.993  10.909   0.249  0.00  0.00    +0.021 A 
ATOM     22  C   UNL     1      -2.505   9.906   1.051  0.00  0.00    +0.023 A 
ATOM     23  C   UNL     1      -3.170   8.835   0.480  0.00  0.00    +0.067 A 
ATOM     24  C   UNL     1      -3.322   8.768  -0.893  0.00  0.00    +0.125 A 
ATOM     25  C   UNL     1      -2.805   9.767  -1.696  0.00  0.00    +0.050 A 
ATOM     26  C   UNL     1      -2.145  10.841  -1.125  0.00  0.00    +0.043 A 
ATOM     27 CL   UNL     1      -1.502  12.100  -2.132  0.00  0.00    -0.083 Cl
ATOM     28 CL   UNL     1      -3.813   7.577   1.488  0.00  0.00    -0.082 Cl
ENDBRANCH  18  24
ENDBRANCH  16  18
ENDBRANCH   1  16
TORSDOF 5
