REMARK  Name = ZINC39711316
REMARK  10 active torsions:
REMARK  status: ('A' for Active; 'I' for Inactive)
REMARK    1  A    between atoms: C_1  and  O_2
REMARK    2  A    between atoms: O_2  and  C_3
REMARK    3  A    between atoms: C_3  and  C_4
REMARK    4  A    between atoms: C_4  and  N_5
REMARK    5  A    between atoms: C_6  and  C_10
REMARK    6  A    between atoms: C_10  and  C_12
REMARK    7  A    between atoms: C_10  and  N_26
REMARK    8  A    between atoms: C_17  and  O_24
REMARK    9  A    between atoms: O_24  and  C_25
REMARK   10  A    between atoms: N_29  and  C_32
REMARK                            x       y       z     vdW  Elec       q    Type
REMARK                         _______ _______ _______ _____ _____    ______ ____
ROOT
ATOM      1  C   UNL     1      -0.821  -2.816  -3.590  0.00  0.00    +0.142 C 
ENDROOT
BRANCH   1   2
ATOM      2  C   UNL     1      -1.630  -4.107  -3.727  0.00  0.00    +0.123 C 
ATOM      3  C   UNL     1      -1.069  -4.885  -4.901  0.00  0.00    -0.003 C 
ATOM      4  C   UNL     1      -0.615  -6.147  -4.654  0.00  0.00    -0.003 A 
ATOM      5  C   UNL     1      -0.058  -6.967  -5.731  0.00  0.00    +0.055 A 
ATOM      6  C   UNL     1       0.383  -8.222  -5.439  0.00  0.00    +0.121 A 
ATOM      7  C   UNL     1       0.310  -8.733  -4.137  0.00  0.00    +0.047 A 
ATOM      8  C   UNL     1      -0.196  -8.020  -3.099  0.00  0.00    +0.027 A 
ATOM      9  C   UNL     1      -0.677  -6.712  -3.295  0.00  0.00    +0.041 A 
ATOM     10  N   UNL     1      -1.171  -6.024  -2.266  0.00  0.00    -0.284 N 
ATOM     11  C   UNL     1      -1.641  -4.793  -2.380  0.00  0.00    +0.226 C 
ATOM     12  O   UNL     1      -2.079  -4.215  -1.404  0.00  0.00    -0.275 OA
ATOM     13  H   UNL     1      -1.188  -6.446  -1.393  0.00  0.00    +0.155 HD
BRANCH   6  14
ATOM     14  O   UNL     1       0.902  -8.994  -6.430  0.00  0.00    -0.495 OA
ATOM     15  C   UNL     1       1.349 -10.302  -6.067  0.00  0.00    +0.277 C 
ENDBRANCH   6  14
ENDBRANCH   1   2
BRANCH   1  16
ATOM     16  N   UNL     1      -0.802  -2.111  -4.878  0.00  0.00    -0.289 NA
ATOM     17  C   UNL     1      -2.162  -1.751  -5.302  0.00  0.00    +0.104 C 
ATOM     18  C   UNL     1      -2.116  -1.183  -6.725  0.00  0.00    +0.120 C 
ATOM     19  N   UNL     1      -1.143  -0.081  -6.758  0.00  0.00    -0.327 N 
ATOM     20  C   UNL     1       0.204  -0.327  -6.221  0.00  0.00    +0.120 C 
ATOM     21  C   UNL     1       0.068  -0.928  -4.818  0.00  0.00    +0.104 C 
BRANCH  19  22
ATOM     22  C   UNL     1      -1.489   1.165  -7.284  0.00  0.00    +0.030 A 
ATOM     23  C   UNL     1      -0.523   2.154  -7.425  0.00  0.00    +0.023 A 
ATOM     24  C   UNL     1      -0.868   3.385  -7.947  0.00  0.00    +0.002 A 
ATOM     25  C   UNL     1      -2.173   3.635  -8.328  0.00  0.00    +0.000 A 
ATOM     26  C   UNL     1      -3.137   2.653  -8.190  0.00  0.00    +0.002 A 
ATOM     27  C   UNL     1      -2.798   1.417  -7.674  0.00  0.00    +0.023 A 
ENDBRANCH  19  22
ENDBRANCH   1  16
BRANCH   1  29
ATOM     28  N   UNL     1       1.130  -2.987  -1.956  0.00  0.00    -0.225 N 
ATOM     29  C   UNL     1       0.590  -3.149  -3.178  0.00  0.00    +0.170 A 
ATOM     30  N   UNL     1       1.529  -3.652  -3.941  0.00  0.00    -0.112 NA
ATOM     31  N   UNL     1       2.591  -3.793  -3.224  0.00  0.00    -0.023 NA
ATOM     32  N   UNL     1       2.354  -3.387  -2.026  0.00  0.00    -0.044 NA
BRANCH  28  33
ATOM     33  C   UNL     1       0.455  -2.453  -0.770  0.00  0.00    +0.175 C 
BRANCH  33  34
ATOM     34  C   UNL     1       0.634  -0.934  -0.723  0.00  0.00    +0.183 C 
BRANCH  34  36
ATOM     35  C   UNL     1       0.084   1.005   0.573  0.00  0.00    +0.194 C 
ATOM     36  O   UNL     1      -0.024  -0.413   0.434  0.00  0.00    -0.381 OA
ENDBRANCH  34  36
ENDBRANCH  33  34
ENDBRANCH  28  33
ENDBRANCH   1  29
TORSDOF 8
