REMARK  Name = ZINC24337082
REMARK  17 active torsions:
REMARK  status: ('A' for Active; 'I' for Inactive)
REMARK    1  A    between atoms: C_1  and  C_2
REMARK    2  A    between atoms: C_6  and  N_9
REMARK    3  A    between atoms: C_7  and  C_8
REMARK    4  A    between atoms: C_10  and  C_12
REMARK    5  A    between atoms: C_12  and  N_13
REMARK    6  A    between atoms: N_13  and  C_14
REMARK    7  A    between atoms: N_13  and  C_18
REMARK    8  A    between atoms: C_14  and  C_15
REMARK    9  A    between atoms: C_15  and  O_16
REMARK   10  A    between atoms: O_16  and  C_17
REMARK   11  A    between atoms: C_18  and  C_19
REMARK   12  A    between atoms: N_21  and  C_22
REMARK   13  A    between atoms: C_23  and  C_36
REMARK   14  A    between atoms: C_24  and  C_35
REMARK   15  A    between atoms: C_25  and  C_34
REMARK   16  A    between atoms: N_26  and  C_27
REMARK   17  A    between atoms: C_27  and  C_28
REMARK                            x       y       z     vdW  Elec       q    Type
REMARK                         _______ _______ _______ _____ _____    ______ ____
ROOT
ATOM      1  C   UNL     1      -0.632   3.196   0.775  0.00  0.00    +0.020 C 
ENDROOT
BRANCH   1   2
ATOM      2  C   UNL     1      -0.834   2.139  -0.280  0.00  0.00    +0.202 C 
ATOM      3  O   UNL     1      -0.801   0.965   0.023  0.00  0.00    -0.278 OA
ATOM      4  N   UNL     1      -1.051   2.499  -1.561  0.00  0.00    -0.272 N 
ATOM      5  H   UNL     1      -1.068   3.563  -1.838  0.00  0.00    +0.156 HD
BRANCH   4   6
ATOM      6  C   UNL     1      -1.254   1.527  -2.530  0.00  0.00    +0.123 A 
ATOM      7  C   UNL     1      -2.142   1.606  -3.593  0.00  0.00    +0.095 A 
ATOM      8  C   UNL     1      -1.997   0.347  -4.335  0.00  0.00    -0.011 A 
ATOM      9  C   UNL     1      -1.067  -0.376  -3.690  0.00  0.00    +0.022 A 
ATOM     10  N   UNL     1      -0.614   0.331  -2.608  0.00  0.00    -0.329 N 
ATOM     11  C   UNL     1      -0.592  -1.747  -4.096  0.00  0.00    +0.064 C 
ATOM     12  C   UNL     1      -2.748  -0.056  -5.577  0.00  0.00    +0.047 C 
BRANCH   7  13
ATOM     13  C   UNL     1      -3.020   2.693  -3.904  0.00  0.00    +0.103 C 
ATOM     14  N   UNL     1      -3.717   3.556  -4.150  0.00  0.00    -0.191 NA
ENDBRANCH   7  13
BRANCH  10  15
ATOM     15  C   UNL     1       0.410  -0.135  -1.670  0.00  0.00    +0.154 C 
BRANCH  15  16
ATOM     16  C   UNL     1       0.025  -1.518  -1.141  0.00  0.00    +0.138 C 
ATOM     17  C   UNL     1       0.886  -1.879   0.096  0.00  0.00    +0.035 C 
ATOM     18  C   UNL     1      -0.041  -2.897   0.814  0.00  0.00    +0.031 C 
ATOM     19  C   UNL     1      -1.446  -2.341   0.497  0.00  0.00    +0.160 C 
ATOM     20  O   UNL     1      -1.330  -1.509  -0.664  0.00  0.00    -0.375 OA
ENDBRANCH  15  16
ENDBRANCH  10  15
ENDBRANCH   4   6
ENDBRANCH   1   2
BRANCH   1  21
ATOM     21  N   UNL     1       0.336   2.715   1.770  0.00  0.00    +0.393 N 
ATOM     22  H   UNL     1       1.200   2.301   1.229  0.00  0.00    -0.080 HD
BRANCH  21  23
ATOM     23  C   UNL     1      -0.241   1.640   2.589  0.00  0.00    +0.020 C 
BRANCH  23  25
ATOM     24  N   UNL     1       0.551  -0.029   4.233  0.00  0.00    -0.287 N 
ATOM     25  C   UNL     1       0.852   0.973   3.384  0.00  0.00    +0.201 C 
ATOM     26  O   UNL     1       2.002   1.339   3.260  0.00  0.00    -0.278 OA
ATOM     27  H   UNL     1      -0.477  -0.414   4.287  0.00  0.00    +0.155 HD
BRANCH  24  33
ATOM     28  C   UNL     1       1.834  -2.354   8.371  0.00  0.00    +0.044 C 
ATOM     29  C   UNL     1       2.198  -1.714   7.056  0.00  0.00    -0.046 A 
ATOM     30  C   UNL     1       3.520  -1.672   6.651  0.00  0.00    +0.004 A 
ATOM     31  C   UNL     1       3.858  -1.085   5.446  0.00  0.00    +0.002 A 
ATOM     32  C   UNL     1       2.876  -0.540   4.641  0.00  0.00    +0.023 A 
ATOM     33  C   UNL     1       1.548  -0.581   5.045  0.00  0.00    +0.036 A 
ATOM     34  C   UNL     1       1.213  -1.165   6.260  0.00  0.00    -0.026 A 
ATOM     35  C   UNL     1      -0.227  -1.206   6.705  0.00  0.00    +0.046 C 
ENDBRANCH  24  33
ENDBRANCH  23  25
ENDBRANCH  21  23
BRANCH  21  36
ATOM     36  C   UNL     1       0.817   3.818   2.613  0.00  0.00    -0.049 C 
BRANCH  36  37
ATOM     37  C   UNL     1       1.792   4.684   1.812  0.00  0.00    +0.141 C 
BRANCH  37  38
ATOM     38  O   UNL     1       1.086   5.356   0.767  0.00  0.00    -0.385 OA
ATOM     39  C   UNL     1       1.885   6.280   0.026  0.00  0.00    +0.193 C 
ENDBRANCH  37  38
ENDBRANCH  36  37
ENDBRANCH  21  36
ENDBRANCH   1  21
TORSDOF 12
