REMARK  Name = ZINC29428111
REMARK  8 active torsions:
REMARK  status: ('A' for Active; 'I' for Inactive)
REMARK    1  A    between atoms: C_1  and  C_2
REMARK    2  A    between atoms: C_2  and  C_4
REMARK    3  A    between atoms: C_2  and  N_13
REMARK    4  A    between atoms: C_7  and  C_10
REMARK    5  A    between atoms: C_10  and  C_11
REMARK    6  A    between atoms: C_10  and  C_12
REMARK    7  A    between atoms: C_14  and  C_16
REMARK    8  A    between atoms: C_20  and  C_26
REMARK                            x       y       z     vdW  Elec       q    Type
REMARK                         _______ _______ _______ _____ _____    ______ ____
ROOT
ATOM      1  N   UNL     1       0.711  -0.489   1.189  0.00  0.00    -0.307 N 
ATOM      2  C   UNL     1       0.051  -0.633   2.355  0.00  0.00    +0.235 C 
ATOM      3  O   UNL     1      -1.129  -0.361   2.423  0.00  0.00    -0.274 OA
ATOM      4  H   UNL     1       1.654  -0.707   1.135  0.00  0.00    +0.149 HD
ENDROOT
BRANCH   2   5
ATOM      5  C   UNL     1       0.780  -1.133   3.576  0.00  0.00    +0.173 C 
ATOM      6  C   UNL     1       1.383  -2.520   3.252  0.00  0.00    +0.103 C 
ATOM      7  S   UNL     1       0.965  -3.432   4.806  0.00  0.00    -0.133 S 
ATOM      8  C   UNL     1      -0.553  -2.462   5.187  0.00  0.00    +0.082 C 
ATOM      9  N   UNL     1      -0.150  -1.117   4.710  0.00  0.00    -0.275 N 
ATOM     10  C   UNL     1      -0.749  -0.202   5.519  0.00  0.00    +0.217 C 
ATOM     11  O   UNL     1      -0.855   0.980   5.267  0.00  0.00    -0.276 OA
ATOM     12  C   UNL     1      -1.262  -0.863   6.777  0.00  0.00    +0.099 C 
ATOM     13  C   UNL     1      -0.712  -2.300   6.707  0.00  0.00    +0.046 C 
ATOM     14  C   UNL     1      -1.808  -3.015   4.508  0.00  0.00    +0.044 C 
ENDBRANCH   2   5
BRANCH   1  16
ATOM     15  C   UNL     1      -0.019   1.526   0.010  0.00  0.00    +0.033 C 
ATOM     16  C   UNL     1       0.002  -0.004   0.002  0.00  0.00    +0.100 C 
BRANCH  16  17
ATOM     17  C   UNL     1       0.707  -0.490  -1.238  0.00  0.00    -0.027 A 
ATOM     18  C   UNL     1       2.089  -0.511  -1.284  0.00  0.00    +0.006 A 
ATOM     19  C   UNL     1       2.736  -0.957  -2.421  0.00  0.00    +0.004 A 
ATOM     20  C   UNL     1       2.002  -1.382  -3.512  0.00  0.00    -0.045 A 
ATOM     21  C   UNL     1       0.620  -1.362  -3.466  0.00  0.00    +0.004 A 
ATOM     22  C   UNL     1      -0.027  -0.920  -2.327  0.00  0.00    +0.006 A 
BRANCH  20  23
ATOM     23  C   UNL     1       2.707  -1.867  -4.753  0.00  0.00    +0.013 C 
ATOM     24  C   UNL     1       2.307  -3.317  -5.032  0.00  0.00    +0.012 C 
ATOM     25  C   UNL     1       2.309  -0.990  -5.941  0.00  0.00    +0.012 C 
ENDBRANCH  20  23
ENDBRANCH  16  17
ENDBRANCH   1  16
TORSDOF 4
