REMARK  Name = ZINC41222639
REMARK  11 active torsions:
REMARK  status: ('A' for Active; 'I' for Inactive)
REMARK    1  A    between atoms: C_1  and  C_2
REMARK    2  A    between atoms: C_2  and  C_4
REMARK    3  A    between atoms: C_2  and  N_13
REMARK    4  A    between atoms: C_4  and  C_5
REMARK    5  A    between atoms: C_5  and  C_6
REMARK    6  A    between atoms: C_9  and  O_12
REMARK    7  A    between atoms: C_14  and  C_16
REMARK    8  A    between atoms: N_18  and  C_19
REMARK    9  A    between atoms: C_24  and  N_25
REMARK   10  A    between atoms: N_25  and  C_26
REMARK   11  A    between atoms: N_25  and  C_27
REMARK                            x       y       z     vdW  Elec       q    Type
REMARK                         _______ _______ _______ _____ _____    ______ ____
ROOT
ATOM      1  N   UNL     1       0.687  -0.494  -1.196  0.00  0.00    -0.305 N 
ATOM      2  C   UNL     1       2.030  -0.602  -1.209  0.00  0.00    +0.300 C 
ATOM      3  O   UNL     1       2.671  -0.316  -0.219  0.00  0.00    -0.265 OA
ATOM      4  H   UNL     1       0.174  -0.723  -1.988  0.00  0.00    +0.149 HD
ENDROOT
BRANCH   2   5
ATOM      5  C   UNL     1       2.730  -1.072  -2.442  0.00  0.00    +0.303 C 
ATOM      6  O   UNL     1       2.088  -1.358  -3.432  0.00  0.00    -0.265 OA
ATOM      7  N   UNL     1       4.073  -1.179  -2.455  0.00  0.00    -0.276 N 
ATOM      8  H   UNL     1       4.591  -0.875  -1.693  0.00  0.00    +0.155 HD
BRANCH   7   9
ATOM      9  C   UNL     1       4.720  -1.728  -3.567  0.00  0.00    +0.056 A 
ATOM     10  C   UNL     1       4.044  -2.607  -4.402  0.00  0.00    +0.025 A 
ATOM     11  C   UNL     1       4.685  -3.149  -5.500  0.00  0.00    +0.003 A 
ATOM     12  C   UNL     1       6.001  -2.818  -5.771  0.00  0.00    +0.022 A 
ATOM     13  C   UNL     1       6.683  -1.943  -4.946  0.00  0.00    +0.064 A 
ATOM     14  C   UNL     1       6.045  -1.390  -3.844  0.00  0.00    +0.069 A 
ATOM     15 CL   UNL     1       8.333  -1.531  -5.291  0.00  0.00    -0.082 Cl
BRANCH  14  16
ATOM     16  N   UNL     1       6.731  -0.500  -3.009  0.00  0.00    -0.333 N 
ATOM     17  C   UNL     1       7.486  -1.007  -1.861  0.00  0.00    +0.129 C 
ATOM     18  C   UNL     1       6.693   0.939  -3.284  0.00  0.00    +0.129 C 
ENDBRANCH  14  16
ENDBRANCH   7   9
ENDBRANCH   2   5
BRANCH   1  20
ATOM     19  C   UNL     1      -0.024   1.497   0.033  0.00  0.00    +0.028 C 
ATOM     20  C   UNL     1       0.001  -0.033   0.013  0.00  0.00    +0.071 C 
BRANCH  20  21
ATOM     21  C   UNL     1      -1.434  -0.566   0.020  0.00  0.00    +0.026 C 
BRANCH  21  22
ATOM     22  C   UNL     1      -1.410  -2.092   0.126  0.00  0.00    +0.037 C 
BRANCH  22  23
ATOM     23  C   UNL     1      -2.822  -2.617   0.133  0.00  0.00    -0.047 A 
ATOM     24  C   UNL     1      -3.496  -2.770   1.331  0.00  0.00    +0.007 A 
ATOM     25  C   UNL     1      -4.791  -3.252   1.340  0.00  0.00    +0.045 A 
ATOM     26  C   UNL     1      -5.415  -3.581   0.146  0.00  0.00    +0.117 A 
ATOM     27  C   UNL     1      -4.738  -3.426  -1.054  0.00  0.00    +0.045 A 
ATOM     28  C   UNL     1      -3.445  -2.940  -1.059  0.00  0.00    +0.007 A 
BRANCH  26  29
ATOM     29  O   UNL     1      -6.689  -4.056   0.153  0.00  0.00    -0.507 OA
ATOM     30  H   UNL     1      -7.365  -3.368   0.088  0.00  0.00    +0.292 HD
ENDBRANCH  26  29
ENDBRANCH  22  23
ENDBRANCH  21  22
ENDBRANCH  20  21
ENDBRANCH   1  20
TORSDOF 8
