REMARK  Name = ZINC39675253
REMARK  13 active torsions:
REMARK  status: ('A' for Active; 'I' for Inactive)
REMARK    1  A    between atoms: C_1  and  C_2
REMARK    2  A    between atoms: C_2  and  C_4
REMARK    3  A    between atoms: C_2  and  N_14
REMARK    4  A    between atoms: C_4  and  C_5
REMARK    5  A    between atoms: C_5  and  C_6
REMARK    6  A    between atoms: C_9  and  O_12
REMARK    7  A    between atoms: O_12  and  C_13
REMARK    8  A    between atoms: C_15  and  C_17
REMARK    9  A    between atoms: C_28  and  C_30
REMARK   10  A    between atoms: C_33  and  O_38
REMARK   11  A    between atoms: C_35  and  O_36
REMARK   12  A    between atoms: O_36  and  C_37
REMARK   13  A    between atoms: O_38  and  C_39
REMARK                            x       y       z     vdW  Elec       q    Type
REMARK                         _______ _______ _______ _____ _____    ______ ____
ROOT
ATOM      1  C   UNL     1       2.777  -1.101   2.400  0.00  0.00    +0.100 C 
ATOM      2  C   UNL     1       2.275  -2.507   2.794  0.00  0.00    +0.121 C 
ATOM      3  N   UNL     1       3.225  -3.440   2.144  0.00  0.00    -0.296 N 
ATOM      4  C   UNL     1       4.547  -2.789   2.303  0.00  0.00    +0.115 C 
ATOM      5  C   UNL     1       4.270  -1.289   2.081  0.00  0.00    -0.004 C 
ATOM      6  C   UNL     1       4.553  -0.910   0.630  0.00  0.00    -0.010 C 
ATOM      7  C   UNL     1       6.052  -1.052   0.354  0.00  0.00    -0.082 C 
ATOM      8  N   UNL     1       6.804  -0.180   1.264  0.00  0.00    +0.379 N 
ATOM      9  C   UNL     1       6.599  -0.609   2.652  0.00  0.00    -0.082 C 
ATOM     10  C   UNL     1       5.123  -0.449   3.026  0.00  0.00    -0.010 C 
ATOM     11  C   UNL     1       2.949  -4.615   1.544  0.00  0.00    +0.250 C 
ATOM     12  O   UNL     1       1.794  -4.972   1.408  0.00  0.00    -0.270 OA
ATOM     13  H   UNL     1       7.786  -0.229   1.039  0.00  0.00    -0.086 HD
ATOM     14  H   UNL     1       6.484   0.771   1.157  0.00  0.00    -0.086 HD
ENDROOT
BRANCH  11  15
ATOM     15  C   UNL     1       4.046  -5.467   1.054  0.00  0.00    +0.079 A 
ATOM     16  C   UNL     1       5.255  -5.527   1.753  0.00  0.00    +0.020 A 
ATOM     17  C   UNL     1       6.277  -6.324   1.292  0.00  0.00    +0.046 A 
ATOM     18  C   UNL     1       6.113  -7.072   0.130  0.00  0.00    +0.124 A 
ATOM     19  C   UNL     1       4.918  -7.020  -0.572  0.00  0.00    +0.092 A 
ATOM     20  C   UNL     1       3.880  -6.226  -0.115  0.00  0.00    +0.136 A 
BRANCH  20  21
ATOM     21  O   UNL     1       2.708  -6.178  -0.797  0.00  0.00    -0.494 OA
ATOM     22  C   UNL     1       2.611  -6.978  -1.977  0.00  0.00    +0.277 C 
ENDBRANCH  20  21
BRANCH  18  23
ATOM     23  O   UNL     1       7.126  -7.856  -0.318  0.00  0.00    -0.495 OA
ATOM     24  C   UNL     1       8.330  -7.863   0.452  0.00  0.00    +0.277 C 
ENDBRANCH  18  23
ENDBRANCH  11  15
BRANCH   1  26
ATOM     25  N   UNL     1       1.833   0.719   1.016  0.00  0.00    -0.312 N 
ATOM     26  C   UNL     1       2.040  -0.602   1.183  0.00  0.00    +0.218 C 
ATOM     27  O   UNL     1       1.633  -1.390   0.356  0.00  0.00    -0.275 OA
ATOM     28  H   UNL     1       2.158   1.349   1.678  0.00  0.00    +0.149 HD
BRANCH  25  30
ATOM     29  C   UNL     1       2.097   1.359  -1.330  0.00  0.00    +0.028 C 
ATOM     30  C   UNL     1       1.116   1.204  -0.167  0.00  0.00    +0.070 C 
BRANCH  30  31
ATOM     31  C   UNL     1       0.475   2.558   0.145  0.00  0.00    +0.026 C 
BRANCH  31  32
ATOM     32  C   UNL     1      -0.596   2.380   1.223  0.00  0.00    +0.037 C 
BRANCH  32  33
ATOM     33  C   UNL     1      -1.226   3.714   1.529  0.00  0.00    -0.047 A 
ATOM     34  C   UNL     1      -0.689   4.521   2.515  0.00  0.00    +0.007 A 
ATOM     35  C   UNL     1      -1.266   5.744   2.798  0.00  0.00    +0.046 A 
ATOM     36  C   UNL     1      -2.385   6.162   2.092  0.00  0.00    +0.120 A 
ATOM     37  C   UNL     1      -2.921   5.351   1.103  0.00  0.00    +0.046 A 
ATOM     38  C   UNL     1      -2.338   4.131   0.820  0.00  0.00    +0.007 A 
BRANCH  36  39
ATOM     39  O   UNL     1      -2.954   7.364   2.370  0.00  0.00    -0.495 OA
ATOM     40  C   UNL     1      -4.103   7.730   1.603  0.00  0.00    +0.277 C 
ENDBRANCH  36  39
ENDBRANCH  32  33
ENDBRANCH  31  32
ENDBRANCH  30  31
ENDBRANCH  25  30
ENDBRANCH   1  26
TORSDOF 9
