REMARK  Name = ZINC39769513
REMARK  5 active torsions:
REMARK  status: ('A' for Active; 'I' for Inactive)
REMARK    1  A    between atoms: C_1  and  C_2
REMARK    2  A    between atoms: C_2  and  C_3
REMARK    3  A    between atoms: N_17  and  N_18
REMARK    4  A    between atoms: C_19  and  C_20
REMARK    5  A    between atoms: C_23  and  C_26
REMARK                            x       y       z     vdW  Elec       q    Type
REMARK                         _______ _______ _______ _____ _____    ______ ____
ROOT
ATOM      1  C   UNL     1       0.731  -0.503   1.223  0.00  0.00    -0.047 A 
ATOM      2  C   UNL     1       2.116  -0.704   1.147  0.00  0.00    +0.005 A 
ATOM      3  C   UNL     1       2.829  -1.155   2.204  0.00  0.00    +0.026 A 
ATOM      4  C   UNL     1       2.137  -1.445   3.465  0.00  0.00    +0.046 A 
ATOM      5  N   UNL     1       2.579  -1.853   4.631  0.00  0.00    -0.358 N 
ATOM      6  C   UNL     1       1.443  -2.099   5.503  0.00  0.00    +0.253 C 
ATOM      7  C   UNL     1       0.236  -1.524   4.782  0.00  0.00    +0.115 C 
ATOM      8  C   UNL     1       0.672  -1.211   3.517  0.00  0.00    +0.025 A 
ATOM      9  C   UNL     1       0.025  -0.736   2.353  0.00  0.00    +0.015 A 
ATOM     10  N   UNL     1      -0.915  -1.290   5.417  0.00  0.00    -0.171 NA
ATOM     11  N   UNL     1      -0.813  -1.055   6.690  0.00  0.00    -0.247 N 
ATOM     12  C   UNL     1       0.386  -0.986   7.316  0.00  0.00    +0.227 C 
ATOM     13  N   UNL     1       1.509  -1.430   6.802  0.00  0.00    -0.220 NA
ATOM     14  N   UNL     1       0.430  -0.417   8.575  0.00  0.00    -0.206 N 
ATOM     15  H   UNL     1      -0.383  -0.082   8.984  0.00  0.00    +0.177 HD
ATOM     16  H   UNL     1      -1.622  -0.924   7.210  0.00  0.00    +0.192 HD
ATOM     17  H   UNL     1       3.511  -1.972   4.871  0.00  0.00    +0.162 HD
ENDROOT
BRANCH   1  19
ATOM     18  C   UNL     1      -0.019   1.526   0.010  0.00  0.00    +0.009 C 
ATOM     19  C   UNL     1       0.002  -0.004   0.002  0.00  0.00    +0.032 C 
ENDBRANCH   1  19
BRANCH  14  20
ATOM     20  N   UNL     1       1.649  -0.325   9.260  0.00  0.00    -0.188 NA
ATOM     21  C   UNL     1       1.690   0.210  10.443  0.00  0.00    +0.138 C 
BRANCH  21  22
ATOM     22  C   UNL     1       2.971   0.307  11.162  0.00  0.00    -0.005 A 
ATOM     23  C   UNL     1       4.145  -0.172  10.569  0.00  0.00    +0.010 A 
ATOM     24  C   UNL     1       5.332  -0.082  11.237  0.00  0.00    +0.016 A 
ATOM     25  C   UNL     1       5.376   0.490  12.514  0.00  0.00    +0.063 A 
ATOM     26  C   UNL     1       4.202   0.969  13.106  0.00  0.00    +0.016 A 
ATOM     27  C   UNL     1       3.016   0.883  12.437  0.00  0.00    +0.010 A 
BRANCH  25  28
ATOM     28  C   UNL     1       6.657   0.586  13.233  0.00  0.00    +0.387 C 
ATOM     29  O   UNL     1       7.683   0.167  12.715  0.00  0.00    -0.241 OA
ATOM     30  O   UNL     1       6.696   1.086  14.350  0.00  0.00    -0.241 OA
ENDBRANCH  25  28
ENDBRANCH  21  22
ENDBRANCH  14  20
TORSDOF 4
