REMARK  Name = ZINC03885549
REMARK  12 active torsions:
REMARK  status: ('A' for Active; 'I' for Inactive)
REMARK    1  A    between atoms: C_1  and  C_2
REMARK    2  A    between atoms: C_2  and  N_68
REMARK    3  A    between atoms: C_5  and  C_6
REMARK    4  A    between atoms: C_9  and  C_12
REMARK    5  A    between atoms: C_12  and  C_13
REMARK    6  A    between atoms: C_12  and  C_14
REMARK    7  A    between atoms: C_12  and  C_15
REMARK    8  A    between atoms: C_19  and  C_20
REMARK    9  A    between atoms: C_23  and  C_26
REMARK   10  A    between atoms: C_26  and  C_27
REMARK   11  A    between atoms: C_26  and  C_28
REMARK   12  A    between atoms: C_26  and  C_29
REMARK                            x       y       z     vdW  Elec       q    Type
REMARK                         _______ _______ _______ _____ _____    ______ ____
ROOT
ATOM      1  C   UNL     1      -1.319   3.301  -0.452  0.00  0.00    -0.039 C 
ATOM      2  C   UNL     1      -1.431   1.790  -0.395  0.00  0.00    -0.016 C 
ATOM      3  C   UNL     1      -0.380   0.985  -0.655  0.00  0.00    +0.013 C 
ATOM      4  C   UNL     1      -2.764   1.249  -0.031  0.00  0.00    +0.182 C 
ATOM      5  O   UNL     1      -3.222   0.234  -0.527  0.00  0.00    -0.287 OA
ATOM      6  C   UNL     1      -3.491   2.046   0.986  0.00  0.00    -0.016 C 
ATOM      7  C   UNL     1      -4.250   1.467   1.940  0.00  0.00    +0.013 C 
ATOM      8  C   UNL     1      -3.333   3.551   0.891  0.00  0.00    -0.039 C 
ATOM      9  N   UNL     1      -1.886   3.862   0.794  0.00  0.00    +0.385 N 
ATOM     10  H   UNL     1      -1.403   3.442   1.597  0.00  0.00    -0.081 HD
ENDROOT
BRANCH   3  11
ATOM     11  C   UNL     1       0.867   1.553  -1.191  0.00  0.00    -0.025 A 
ATOM     12  C   UNL     1       0.821   2.603  -2.115  0.00  0.00    +0.008 A 
ATOM     13  C   UNL     1       1.994   3.132  -2.610  0.00  0.00    +0.005 A 
ATOM     14  C   UNL     1       3.214   2.621  -2.203  0.00  0.00    -0.042 A 
ATOM     15  C   UNL     1       3.268   1.579  -1.293  0.00  0.00    +0.005 A 
ATOM     16  C   UNL     1       2.104   1.042  -0.785  0.00  0.00    +0.008 A 
BRANCH  14  17
ATOM     17  C   UNL     1       4.491   3.202  -2.753  0.00  0.00    -0.013 C 
ATOM     18  C   UNL     1       5.275   2.110  -3.484  0.00  0.00    +0.015 C 
ATOM     19  C   UNL     1       4.158   4.332  -3.730  0.00  0.00    +0.015 C 
ATOM     20  C   UNL     1       5.337   3.755  -1.604  0.00  0.00    +0.015 C 
ENDBRANCH  14  17
ENDBRANCH   3  11
BRANCH   7  21
ATOM     21  C   UNL     1      -4.260   0.002   2.082  0.00  0.00    -0.025 A 
ATOM     22  C   UNL     1      -5.424  -0.655   2.495  0.00  0.00    +0.008 A 
ATOM     23  C   UNL     1      -5.427  -2.029   2.621  0.00  0.00    +0.005 A 
ATOM     24  C   UNL     1      -4.280  -2.755   2.351  0.00  0.00    -0.042 A 
ATOM     25  C   UNL     1      -3.123  -2.111   1.948  0.00  0.00    +0.005 A 
ATOM     26  C   UNL     1      -3.105  -0.739   1.811  0.00  0.00    +0.008 A 
BRANCH  24  27
ATOM     27  C   UNL     1      -4.291  -4.255   2.498  0.00  0.00    -0.013 C 
ATOM     28  C   UNL     1      -3.250  -4.673   3.538  0.00  0.00    +0.015 C 
ATOM     29  C   UNL     1      -5.678  -4.713   2.952  0.00  0.00    +0.015 C 
ATOM     30  C   UNL     1      -3.956  -4.901   1.152  0.00  0.00    +0.015 C 
ENDBRANCH  24  27
ENDBRANCH   7  21
BRANCH   9  32
ATOM     31  C   UNL     1      -0.234   5.634   0.444  0.00  0.00    -0.017 C 
ATOM     32  C   UNL     1      -1.682   5.322   0.825  0.00  0.00    -0.081 C 
ENDBRANCH   9  32
TORSDOF 5
