REMARK  Name = ZINC63200685
REMARK  5 active torsions:
REMARK  status: ('A' for Active; 'I' for Inactive)
REMARK    1  A    between atoms: C_1  and  C_2
REMARK    2  A    between atoms: C_2  and  C_4
REMARK    3  A    between atoms: C_2  and  N_11
REMARK    4  A    between atoms: N_9  and  C_10
REMARK    5  A    between atoms: C_14  and  C_17
REMARK                            x       y       z     vdW  Elec       q    Type
REMARK                         _______ _______ _______ _____ _____    ______ ____
ROOT
ATOM      1  N   UNL     1       0.007  -0.953  -1.120  0.00  0.00    +0.387 N 
ATOM      2  C   UNL     1      -0.655  -2.209  -0.749  0.00  0.00    -0.078 C 
ATOM      3  C   UNL     1      -0.579  -3.195  -1.917  0.00  0.00    -0.017 C 
ATOM      4  C   UNL     1      -1.279  -2.587  -3.137  0.00  0.00    -0.029 C 
ATOM      5  C   UNL     1      -0.627  -1.242  -3.469  0.00  0.00    -0.017 C 
ATOM      6  C   UNL     1      -0.701  -0.329  -2.244  0.00  0.00    -0.078 C 
ATOM      7  H   UNL     1       0.961  -1.145  -1.390  0.00  0.00    -0.081 HD
ENDROOT
BRANCH   4   8
ATOM      8  C   UNL     1      -1.138  -3.533  -4.331  0.00  0.00    -0.069 C 
ATOM      9  C   UNL     1      -1.809  -2.913  -5.574  0.00  0.00    -0.017 C 
ATOM     10  C   UNL     1      -2.467  -4.137  -6.264  0.00  0.00    -0.021 C 
ATOM     11  C   UNL     1      -2.910  -4.982  -5.044  0.00  0.00    -0.082 C 
ATOM     12  N   UNL     1      -1.827  -4.806  -4.048  0.00  0.00    +0.381 N 
ATOM     13  H   UNL     1      -1.171  -5.569  -4.116  0.00  0.00    -0.086 HD
ATOM     14  H   UNL     1      -2.220  -4.779  -3.119  0.00  0.00    -0.086 HD
ENDBRANCH   4   8
BRANCH   1  16
ATOM     15  C   UNL     1       0.638   1.292  -0.373  0.00  0.00    -0.004 C 
ATOM     16  C   UNL     1       0.001  -0.040   0.030  0.00  0.00    +0.017 C 
BRANCH  16  17
ATOM     17  C   UNL     1       0.786  -0.650   1.162  0.00  0.00    +0.207 C 
ATOM     18  O   UNL     1       1.683  -1.431   0.925  0.00  0.00    -0.277 OA
ATOM     19  N   UNL     1       0.490  -0.329   2.437  0.00  0.00    -0.242 N 
ATOM     20  C   UNL     1       1.193  -0.876   3.450  0.00  0.00    +0.306 C 
ATOM     21  O   UNL     1       2.092  -1.658   3.212  0.00  0.00    -0.252 OA
ATOM     22  N   UNL     1       0.898  -0.554   4.725  0.00  0.00    -0.302 N 
ATOM     23  C   UNL     1       1.661  -1.149   5.825  0.00  0.00    +0.129 C 
ATOM     24  H   UNL     1      -0.227   0.295   2.626  0.00  0.00    +0.159 HD
ATOM     25  H   UNL     1       0.180   0.070   4.914  0.00  0.00    +0.150 HD
ENDBRANCH  16  17
ENDBRANCH   1  16
TORSDOF 3
