REMARK  Name = ZINC38372374
REMARK  10 active torsions:
REMARK  status: ('A' for Active; 'I' for Inactive)
REMARK    1  A    between atoms: C_1  and  C_2
REMARK    2  A    between atoms: C_2  and  C_4
REMARK    3  A    between atoms: C_2  and  N_20
REMARK    4  A    between atoms: N_9  and  C_10
REMARK    5  A    between atoms: N_20  and  C_21
REMARK    6  A    between atoms: N_20  and  C_22
REMARK    7  A    between atoms: C_22  and  C_23
REMARK    8  A    between atoms: N_25  and  C_26
REMARK    9  A    between atoms: C_26  and  C_27
REMARK   10  A    between atoms: C_26  and  C_28
REMARK                            x       y       z     vdW  Elec       q    Type
REMARK                         _______ _______ _______ _____ _____    ______ ____
ROOT
ATOM      1  C   UNL     1      -1.376  -0.455  -0.149  0.00  0.00    +0.207 C 
ATOM      2  O   UNL     1      -1.783  -1.239   0.682  0.00  0.00    -0.277 OA
ATOM      3  N   UNL     1      -2.195  -0.027  -1.130  0.00  0.00    -0.242 N 
ATOM      4  C   UNL     1      -3.466  -0.471  -1.188  0.00  0.00    +0.306 C 
ATOM      5  O   UNL     1      -3.874  -1.258  -0.356  0.00  0.00    -0.252 OA
ATOM      6  N   UNL     1      -4.285  -0.044  -2.169  0.00  0.00    -0.294 N 
ATOM      7  H   UNL     1      -1.870   0.600  -1.794  0.00  0.00    +0.159 HD
ATOM      8  H   UNL     1      -3.960   0.583  -2.834  0.00  0.00    +0.151 HD
ENDROOT
BRANCH   6   9
ATOM      9  C   UNL     1      -5.667  -0.527  -2.233  0.00  0.00    +0.037 C 
ATOM     10  C   UNL     1      -5.669  -2.049  -2.387  0.00  0.00    +0.029 C 
ATOM     11  C   UNL     1      -7.112  -2.553  -2.453  0.00  0.00    -0.008 C 
ATOM     12  C   UNL     1      -7.820  -1.918  -3.651  0.00  0.00    +0.007 C 
ATOM     13  C   UNL     1      -7.818  -0.396  -3.497  0.00  0.00    -0.008 C 
ATOM     14  C   UNL     1      -6.375   0.108  -3.431  0.00  0.00    +0.029 C 
ATOM     15  C   UNL     1      -8.551  -0.013  -2.211  0.00  0.00    +0.007 C 
ATOM     16  C   UNL     1      -7.844  -0.647  -1.012  0.00  0.00    -0.008 C 
ATOM     17  C   UNL     1      -7.846  -2.170  -1.166  0.00  0.00    +0.007 C 
ATOM     18  C   UNL     1      -6.401  -0.143  -0.946  0.00  0.00    +0.029 C 
ENDBRANCH   6   9
BRANCH   1  20
ATOM     19  C   UNL     1       0.094   1.346   0.715  0.00  0.00    -0.004 C 
ATOM     20  C   UNL     1       0.045   0.042  -0.084  0.00  0.00    +0.017 C 
BRANCH  20  21
ATOM     21  N   UNL     1       0.887  -0.967   0.574  0.00  0.00    +0.391 N 
ATOM     22  C   UNL     1       2.261  -0.461   0.686  0.00  0.00    -0.094 C 
ATOM     23  H   UNL     1       0.523  -1.160   1.495  0.00  0.00    -0.080 HD
BRANCH  21  24
ATOM     24  C   UNL     1       0.883  -2.202  -0.222  0.00  0.00    +0.019 C 
BRANCH  24  25
ATOM     25  C   UNL     1       1.605  -3.288   0.533  0.00  0.00    +0.197 C 
ATOM     26  O   UNL     1       2.076  -3.057   1.626  0.00  0.00    -0.278 OA
ATOM     27  N   UNL     1       1.727  -4.517  -0.007  0.00  0.00    -0.315 N 
ATOM     28  H   UNL     1       1.350  -4.702  -0.881  0.00  0.00    +0.149 HD
BRANCH  27  29
ATOM     29  C   UNL     1       2.428  -5.573   0.727  0.00  0.00    +0.067 C 
ATOM     30  C   UNL     1       1.457  -6.254   1.693  0.00  0.00    +0.027 C 
ATOM     31  C   UNL     1       2.973  -6.606  -0.262  0.00  0.00    +0.027 C 
ENDBRANCH  27  29
ENDBRANCH  24  25
ENDBRANCH  21  24
ENDBRANCH  20  21
ENDBRANCH   1  20
TORSDOF 6
