REMARK  Name = ZINC20432576
REMARK  6 active torsions:
REMARK  status: ('A' for Active; 'I' for Inactive)
REMARK    1  A    between atoms: C_4  and  S_8
REMARK    2  A    between atoms: S_8  and  N_11
REMARK    3  A    between atoms: N_11  and  C_12
REMARK    4  A    between atoms: C_12  and  C_13
REMARK    5  A    between atoms: C_13  and  C_14
REMARK    6  A    between atoms: C_14  and  N_15
REMARK                            x       y       z     vdW  Elec       q    Type
REMARK                         _______ _______ _______ _____ _____    ______ ____
ROOT
ATOM      1  S   UNL     1       0.249  -0.821  -1.417  0.00  0.00    +0.059 S 
ATOM      2  O   UNL     1       0.089  -2.223  -1.251  0.00  0.00    -0.153 OA
ATOM      3  O   UNL     1      -0.548  -0.065  -2.319  0.00  0.00    -0.153 OA
ENDROOT
BRANCH   1   7
ATOM      4  C   UNL     1       4.562  -0.146  -2.619  0.00  0.00    +0.016 A 
ATOM      5  C   UNL     1       4.265  -0.937  -1.526  0.00  0.00    +0.018 A 
ATOM      6  C   UNL     1       2.948  -1.144  -1.158  0.00  0.00    +0.044 A 
ATOM      7  C   UNL     1       1.927  -0.558  -1.885  0.00  0.00    +0.120 A 
ATOM      8  C   UNL     1       2.223   0.230  -2.981  0.00  0.00    +0.045 A 
ATOM      9  C   UNL     1       3.541   0.440  -3.346  0.00  0.00    +0.020 A 
ATOM     10 BR   UNL     1       3.947   1.522  -4.843  0.00  0.00    -0.050 Br
ATOM     11 BR   UNL     1       2.542  -2.226   0.338  0.00  0.00    -0.048 Br
ENDBRANCH   1   7
BRANCH   1  12
ATOM     12  N   UNL     1       0.045  -0.141   0.079  0.00  0.00    -0.190 NA
ATOM     13  H   UNL     1      -0.030  -0.795   0.961  0.00  0.00    +0.148 HD
BRANCH  12  14
ATOM     14  C   UNL     1       0.184   1.307   0.251  0.00  0.00    +0.104 C 
BRANCH  14  15
ATOM     15  C   UNL     1      -0.419   1.722   1.595  0.00  0.00    -0.003 C 
BRANCH  15  16
ATOM     16  C   UNL     1      -0.274   3.234   1.774  0.00  0.00    -0.085 C 
BRANCH  16  17
ATOM     17  N   UNL     1      -0.852   3.632   3.064  0.00  0.00    +0.378 N 
ATOM     18  H   UNL     1      -0.748   4.719   3.193  0.00  0.00    -0.090 HD
ATOM     19  H   UNL     1      -0.323   3.114   3.878  0.00  0.00    -0.090 HD
ATOM     20  H   UNL     1      -1.918   3.360   3.088  0.00  0.00    -0.090 HD
ENDBRANCH  16  17
ENDBRANCH  15  16
ENDBRANCH  14  15
ENDBRANCH  12  14
ENDBRANCH   1  12
TORSDOF 6
