REMARK  Name = ZINC09067342
REMARK  15 active torsions:
REMARK  status: ('A' for Active; 'I' for Inactive)
REMARK    1  A    between atoms: C_1  and  C_2
REMARK    2  A    between atoms: C_5  and  C_8
REMARK    3  A    between atoms: C_11  and  C_12
REMARK    4  A    between atoms: C_11  and  O_24
REMARK    5  A    between atoms: C_15  and  O_19
REMARK    6  A    between atoms: C_16  and  C_18
REMARK    7  A    between atoms: O_19  and  C_20
REMARK    8  A    between atoms: C_20  and  C_21
REMARK    9  A    between atoms: C_21  and  C_22
REMARK   10  A    between atoms: C_21  and  C_23
REMARK   11  A    between atoms: N_29  and  C_30
REMARK   12  A    between atoms: C_30  and  C_31
REMARK   13  A    between atoms: C_31  and  N_67
REMARK   14  A    between atoms: C_32  and  N_67
REMARK   15  A    between atoms: C_33  and  N_67
REMARK                            x       y       z     vdW  Elec       q    Type
REMARK                         _______ _______ _______ _____ _____    ______ ____
ROOT
ATOM      1  C   UNL     1       1.454  -6.413  -0.265  0.00  0.00    +0.144 C 
ATOM      2  C   UNL     1       1.260  -4.920  -0.140  0.00  0.00    +0.071 C 
ATOM      3  C   UNL     1       0.060  -4.246  -0.021  0.00  0.00    +0.133 C 
ATOM      4  C   UNL     1       2.544  -4.356  -0.164  0.00  0.00    +0.249 C 
ATOM      5  O   UNL     1       2.805  -3.169  -0.083  0.00  0.00    -0.282 OA
ATOM      6  C   UNL     1       3.533  -5.459  -0.306  0.00  0.00    +0.288 C 
ATOM      7  O   UNL     1       4.736  -5.312  -0.359  0.00  0.00    -0.266 OA
ATOM      8  N   UNL     1       2.898  -6.642  -0.367  0.00  0.00    -0.285 N 
ENDROOT
BRANCH   1  13
ATOM      9  C   UNL     1      -0.657  -9.081   4.407  0.00  0.00    +0.044 C 
ATOM     10  C   UNL     1      -0.106  -8.385   3.188  0.00  0.00    -0.050 A 
ATOM     11  C   UNL     1      -0.835  -8.368   2.014  0.00  0.00    +0.004 A 
ATOM     12  C   UNL     1      -0.331  -7.730   0.896  0.00  0.00    +0.006 A 
ATOM     13  C   UNL     1       0.903  -7.109   0.953  0.00  0.00    -0.022 A 
ATOM     14  C   UNL     1       1.635  -7.131   2.126  0.00  0.00    +0.006 A 
ATOM     15  C   UNL     1       1.127  -7.764   3.245  0.00  0.00    +0.004 A 
ENDBRANCH   1  13
BRANCH   3  16
ATOM     16  C   UNL     1       0.047  -2.779   0.080  0.00  0.00    +0.017 A 
ATOM     17  C   UNL     1       0.671  -2.002  -0.904  0.00  0.00    +0.015 A 
ATOM     18  C   UNL     1       0.656  -0.629  -0.806  0.00  0.00    +0.046 A 
ATOM     19  C   UNL     1       0.023  -0.014   0.268  0.00  0.00    +0.123 A 
ATOM     20  C   UNL     1      -0.594  -0.781   1.251  0.00  0.00    -0.008 A 
ATOM     21  C   UNL     1      -0.589  -2.154   1.159  0.00  0.00    +0.018 A 
ATOM     22  C   UNL     1      -1.272  -0.107   2.416  0.00  0.00    +0.047 C 
BRANCH  19  23
ATOM     23  O   UNL     1       0.011   1.340   0.361  0.00  0.00    -0.491 OA
BRANCH  23  24
ATOM     24  C   UNL     1       0.668   2.067  -0.679  0.00  0.00    +0.232 C 
BRANCH  24  25
ATOM     25  C   UNL     1       0.550   3.568  -0.405  0.00  0.00    +0.020 C 
ATOM     26  C   UNL     1       1.358   4.342  -1.449  0.00  0.00    +0.010 C 
ATOM     27  C   UNL     1      -0.919   3.987  -0.484  0.00  0.00    +0.010 C 
ENDBRANCH  24  25
ENDBRANCH  23  24
ENDBRANCH  19  23
ENDBRANCH   3  16
BRANCH   3  28
ATOM     28  O   UNL     1      -1.102  -4.934   0.004  0.00  0.00    -0.506 OA
ATOM     29  H   UNL     1      -1.866  -4.296   0.094  0.00  0.00    +0.292 HD
ENDBRANCH   3  28
BRANCH   8  30
ATOM     30  C   UNL     1       3.545  -7.949  -0.507  0.00  0.00    +0.090 C 
BRANCH  30  31
ATOM     31  C   UNL     1       3.847  -8.520   0.879  0.00  0.00    -0.060 C 
BRANCH  31  34
ATOM     32  C   UNL     1       5.822  -9.697   0.119  0.00  0.00    -0.097 C 
ATOM     33  C   UNL     1       4.587 -10.514   2.036  0.00  0.00    -0.097 C 
ATOM     34  N   UNL     1       4.480  -9.846   0.722  0.00  0.00    +0.377 N 
ATOM     35  H   UNL     1       3.898 -10.421   0.101  0.00  0.00    -0.083 HD
ENDBRANCH  31  34
ENDBRANCH  30  31
ENDBRANCH   8  30
TORSDOF 9
