REMARK  Name = ZINC35524715
REMARK  5 active torsions:
REMARK  status: ('A' for Active; 'I' for Inactive)
REMARK    1  A    between atoms: C_1  and  N_2
REMARK    2  A    between atoms: N_2  and  C_3
REMARK    3  A    between atoms: N_2  and  C_4
REMARK    4  A    between atoms: C_4  and  C_5
REMARK    5  A    between atoms: C_24  and  C_26
REMARK                            x       y       z     vdW  Elec       q    Type
REMARK                         _______ _______ _______ _____ _____    ______ ____
ROOT
ATOM      1  C   UNL     1      -1.316  -2.645   0.106  0.00  0.00    +0.116 A 
ATOM      2  N   UNL     1      -1.353  -3.072  -1.144  0.00  0.00    -0.219 NA
ATOM      3  C   UNL     1      -1.286  -4.357  -1.452  0.00  0.00    +0.133 A 
ATOM      4  C   UNL     1      -1.171  -5.315  -0.406  0.00  0.00    +0.051 A 
ATOM      5  C   UNL     1      -1.084  -6.773  -0.503  0.00  0.00    -0.025 A 
ATOM      6  C   UNL     1      -0.980  -7.458   0.653  0.00  0.00    -0.004 A 
ATOM      7  S   UNL     1      -0.991  -6.223   1.925  0.00  0.00    -0.073 S 
ATOM      8  C   UNL     1      -1.138  -4.784   0.899  0.00  0.00    +0.114 A 
ATOM      9  N   UNL     1      -1.204  -3.485   1.117  0.00  0.00    -0.227 NA
ATOM     10  C   UNL     1      -0.879  -8.943   0.822  0.00  0.00    +0.043 C 
ATOM     11  C   UNL     1      -1.284  -9.611  -0.499  0.00  0.00    +0.005 C 
ATOM     12  C   UNL     1      -0.548  -8.913  -1.647  0.00  0.00    +0.005 C 
ATOM     13  C   UNL     1      -1.109  -7.504  -1.843  0.00  0.00    +0.037 C 
ATOM     14  N   UNL     1      -1.328  -4.764  -2.773  0.00  0.00    -0.312 N 
ATOM     15  C   UNL     1      -2.598  -5.174  -3.390  0.00  0.00    +0.125 C 
ATOM     16  C   UNL     1      -2.826  -4.330  -4.650  0.00  0.00    +0.127 C 
ATOM     17  N   UNL     1      -1.602  -4.360  -5.463  0.00  0.00    -0.295 N 
ATOM     18  C   UNL     1      -0.332  -3.950  -4.846  0.00  0.00    +0.127 C 
ATOM     19  C   UNL     1      -0.105  -4.788  -3.587  0.00  0.00    +0.125 C 
ATOM     20  C   UNL     1      -1.642  -4.757  -6.750  0.00  0.00    +0.247 C 
ATOM     21  O   UNL     1      -0.611  -4.871  -7.384  0.00  0.00    -0.270 OA
ENDROOT
BRANCH  20  22
ATOM     22  C   UNL     1      -2.940  -5.052  -7.391  0.00  0.00    +0.037 A 
ATOM     23  C   UNL     1      -4.041  -4.225  -7.158  0.00  0.00    +0.016 A 
ATOM     24  C   UNL     1      -5.250  -4.505  -7.758  0.00  0.00    +0.039 A 
ATOM     25  C   UNL     1      -5.374  -5.606  -8.593  0.00  0.00    +0.123 A 
ATOM     26  C   UNL     1      -4.284  -6.430  -8.828  0.00  0.00    +0.039 A 
ATOM     27  C   UNL     1      -3.069  -6.155  -8.237  0.00  0.00    +0.016 A 
ATOM     28  F   UNL     1      -6.561  -5.876  -9.178  0.00  0.00    -0.205 F 
ENDBRANCH  20  22
BRANCH   1  29
ATOM     29  C   UNL     1      -1.398  -1.166   0.382  0.00  0.00    -0.002 C 
BRANCH  29  31
ATOM     30  C   UNL     1      -0.130   0.864   0.544  0.00  0.00    -0.096 C 
ATOM     31  N   UNL     1      -0.044  -0.595   0.394  0.00  0.00    +0.381 N 
ATOM     32  C   UNL     1       0.715  -1.159   1.518  0.00  0.00    -0.096 C 
ATOM     33  H   UNL     1       0.422  -0.817  -0.472  0.00  0.00    -0.082 HD
ENDBRANCH  29  31
ENDBRANCH   1  29
TORSDOF 3
