REMARK  Name = ZINC08920224
REMARK  14 active torsions:
REMARK  status: ('A' for Active; 'I' for Inactive)
REMARK    1  A    between atoms: C_1  and  C_2
REMARK    2  A    between atoms: C_2  and  C_3
REMARK    3  A    between atoms: C_2  and  C_4
REMARK    4  A    between atoms: C_7  and  C_10
REMARK    5  A    between atoms: C_13  and  C_14
REMARK    6  A    between atoms: C_13  and  O_24
REMARK    7  A    between atoms: C_17  and  O_20
REMARK    8  A    between atoms: O_20  and  C_21
REMARK    9  A    between atoms: C_21  and  C_22
REMARK   10  A    between atoms: N_29  and  C_30
REMARK   11  A    between atoms: C_30  and  C_31
REMARK   12  A    between atoms: C_31  and  N_65
REMARK   13  A    between atoms: C_32  and  N_65
REMARK   14  A    between atoms: C_33  and  N_65
REMARK                            x       y       z     vdW  Elec       q    Type
REMARK                         _______ _______ _______ _____ _____    ______ ____
ROOT
ATOM      1  C   UNL     1       3.238  -1.404   7.387  0.00  0.00    +0.144 C 
ATOM      2  C   UNL     1       2.589  -0.821   6.153  0.00  0.00    +0.071 C 
ATOM      3  C   UNL     1       1.514   0.045   6.111  0.00  0.00    +0.133 C 
ATOM      4  C   UNL     1       3.303  -1.332   5.059  0.00  0.00    +0.249 C 
ATOM      5  O   UNL     1       3.083  -1.088   3.886  0.00  0.00    -0.282 OA
ATOM      6  C   UNL     1       4.376  -2.222   5.579  0.00  0.00    +0.288 C 
ATOM      7  O   UNL     1       5.175  -2.824   4.891  0.00  0.00    -0.266 OA
ATOM      8  N   UNL     1       4.330  -2.263   6.921  0.00  0.00    -0.285 N 
ENDROOT
BRANCH   1  12
ATOM      9  C   UNL     1       0.396  -3.725   9.575  0.00  0.00    -0.045 A 
ATOM     10  C   UNL     1       0.715  -2.447   9.995  0.00  0.00    +0.004 A 
ATOM     11  C   UNL     1       1.635  -1.696   9.287  0.00  0.00    +0.006 A 
ATOM     12  C   UNL     1       2.236  -2.223   8.159  0.00  0.00    -0.022 A 
ATOM     13  C   UNL     1       1.913  -3.499   7.736  0.00  0.00    +0.006 A 
ATOM     14  C   UNL     1       0.997  -4.252   8.447  0.00  0.00    +0.004 A 
BRANCH   9  16
ATOM     15  C   UNL     1      -1.782  -4.902   9.435  0.00  0.00    +0.012 C 
ATOM     16  C   UNL     1      -0.607  -4.544  10.346  0.00  0.00    +0.013 C 
ATOM     17  C   UNL     1       0.060  -5.826  10.847  0.00  0.00    +0.012 C 
ENDBRANCH   9  16
ENDBRANCH   1  12
BRANCH   3  18
ATOM     18  C   UNL     1       0.905   0.400   4.820  0.00  0.00    +0.017 A 
ATOM     19  C   UNL     1       0.533  -0.605   3.918  0.00  0.00    +0.015 A 
ATOM     20  C   UNL     1      -0.036  -0.267   2.712  0.00  0.00    +0.046 A 
ATOM     21  C   UNL     1      -0.242   1.070   2.387  0.00  0.00    +0.121 A 
ATOM     22  C   UNL     1       0.131   2.072   3.277  0.00  0.00    +0.046 A 
ATOM     23  C   UNL     1       0.697   1.744   4.488  0.00  0.00    +0.015 A 
BRANCH  21  24
ATOM     24  O   UNL     1      -0.803   1.398   1.196  0.00  0.00    -0.488 OA
BRANCH  24  25
ATOM     25  C   UNL     1      -0.986   2.789   0.926  0.00  0.00    +0.256 C 
BRANCH  25  26
ATOM     26  C   UNL     1      -1.618   2.959  -0.431  0.00  0.00    +0.006 C 
ATOM     27  C   UNL     1      -2.610   3.798  -0.592  0.00  0.00    +0.007 C 
ENDBRANCH  25  26
ENDBRANCH  24  25
ENDBRANCH  21  24
ENDBRANCH   3  18
BRANCH   3  28
ATOM     28  O   UNL     1       1.021   0.565   7.255  0.00  0.00    -0.506 OA
ATOM     29  H   UNL     1       0.250   1.166   7.044  0.00  0.00    +0.292 HD
ENDBRANCH   3  28
BRANCH   8  30
ATOM     30  C   UNL     1       5.231  -3.036   7.780  0.00  0.00    +0.090 C 
BRANCH  30  31
ATOM     31  C   UNL     1       6.447  -2.182   8.144  0.00  0.00    -0.060 C 
BRANCH  31  34
ATOM     32  C   UNL     1       8.633  -2.264   9.182  0.00  0.00    -0.097 C 
ATOM     33  C   UNL     1       6.723  -3.244  10.302  0.00  0.00    -0.097 C 
ATOM     34  N   UNL     1       7.355  -2.982   8.992  0.00  0.00    +0.377 N 
ATOM     35  H   UNL     1       7.542  -3.878   8.527  0.00  0.00    -0.083 HD
ENDBRANCH  31  34
ENDBRANCH  30  31
ENDBRANCH   8  30
TORSDOF 10
