REMARK  Name = ZINC13064857
REMARK  14 active torsions:
REMARK  status: ('A' for Active; 'I' for Inactive)
REMARK    1  A    between atoms: C_1  and  C_2
REMARK    2  A    between atoms: C_2  and  C_3
REMARK    3  A    between atoms: C_3  and  C_5
REMARK    4  A    between atoms: C_3  and  N_74
REMARK    5  A    between atoms: N_9  and  C_10
REMARK    6  A    between atoms: C_10  and  C_11
REMARK    7  A    between atoms: C_17  and  C_18
REMARK    8  A    between atoms: C_17  and  N_74
REMARK    9  A    between atoms: C_21  and  O_24
REMARK   10  A    between atoms: O_24  and  C_25
REMARK   11  A    between atoms: C_26  and  C_27
REMARK   12  A    between atoms: C_26  and  N_74
REMARK   13  A    between atoms: C_30  and  C_40
REMARK   14  A    between atoms: C_32  and  C_39
REMARK                            x       y       z     vdW  Elec       q    Type
REMARK                         _______ _______ _______ _____ _____    ______ ____
ROOT
ATOM      1  N   UNL     1       3.737  -2.640   4.000  0.00  0.00    +0.392 N 
ATOM      2  H   UNL     1       4.112  -1.718   3.748  0.00  0.00    -0.080 HD
ENDROOT
BRANCH   1   3
ATOM      3  C   UNL     1       3.823  -3.530   2.823  0.00  0.00    +0.003 C 
BRANCH   3   4
ATOM      4  C   UNL     1       3.744  -2.686   1.577  0.00  0.00    +0.138 A 
ATOM      5  N   UNL     1       3.088  -1.560   1.434  0.00  0.00    -0.115 NA
ATOM      6  N   UNL     1       3.266  -1.146   0.228  0.00  0.00    -0.023 NA
ATOM      7  N   UNL     1       4.019  -1.978  -0.404  0.00  0.00    -0.044 NA
ATOM      8  N   UNL     1       4.339  -2.938   0.396  0.00  0.00    -0.228 N 
BRANCH   8   9
ATOM      9  C   UNL     1       5.188  -4.089   0.078  0.00  0.00    +0.178 C 
BRANCH   9  10
ATOM     10  C   UNL     1       4.341  -5.181  -0.579  0.00  0.00    +0.140 C 
ATOM     11  C   UNL     1       5.202  -6.441  -0.813  0.00  0.00    +0.035 C 
ATOM     12  C   UNL     1       4.703  -6.928  -2.201  0.00  0.00    +0.031 C 
ATOM     13  C   UNL     1       4.399  -5.576  -2.894  0.00  0.00    +0.160 C 
ATOM     14  O   UNL     1       3.875  -4.732  -1.857  0.00  0.00    -0.375 OA
ENDBRANCH   9  10
ENDBRANCH   8   9
ENDBRANCH   3   4
BRANCH   3  16
ATOM     15  C   UNL     1       2.782  -5.430   4.068  0.00  0.00    +0.002 C 
ATOM     16  C   UNL     1       2.670  -4.536   2.831  0.00  0.00    -0.011 C 
ENDBRANCH   3  16
ENDBRANCH   1   3
BRANCH   1  17
ATOM     17  C   UNL     1       2.328  -2.489   4.417  0.00  0.00    -0.042 C 
BRANCH  17  18
ATOM     18  C   UNL     1       1.607  -1.647   3.396  0.00  0.00    -0.064 A 
ATOM     19  C   UNL     1       0.639  -2.217   2.590  0.00  0.00    +0.005 A 
ATOM     20  C   UNL     1      -0.022  -1.448   1.652  0.00  0.00    +0.046 A 
ATOM     21  C   UNL     1       0.285  -0.102   1.520  0.00  0.00    +0.120 A 
ATOM     22  C   UNL     1       1.261   0.467   2.326  0.00  0.00    +0.046 A 
ATOM     23  C   UNL     1       1.915  -0.305   3.266  0.00  0.00    +0.005 A 
BRANCH  21  24
ATOM     24  O   UNL     1      -0.364   0.657   0.599  0.00  0.00    -0.495 OA
ATOM     25  C   UNL     1       0.004   2.036   0.518  0.00  0.00    +0.277 C 
ENDBRANCH  21  24
ENDBRANCH  17  18
ENDBRANCH   1  17
BRANCH   1  26
ATOM     26  C   UNL     1       4.537  -3.195   5.112  0.00  0.00    -0.036 C 
BRANCH  26  27
ATOM     27  C   UNL     1       5.996  -2.951   4.828  0.00  0.00    +0.001 A 
ATOM     28  C   UNL     1       6.596  -1.828   5.292  0.00  0.00    +0.017 A 
ATOM     29  C   UNL     1       8.017  -1.623   5.002  0.00  0.00    +0.002 A 
ATOM     30  C   UNL     1       8.692  -0.486   5.459  0.00  0.00    -0.041 A 
ATOM     31  C   UNL     1      10.016  -0.322   5.168  0.00  0.00    +0.007 A 
ATOM     32  C   UNL     1      10.698  -1.274   4.421  0.00  0.00    -0.048 A 
ATOM     33  C   UNL     1      10.054  -2.401   3.961  0.00  0.00    +0.029 A 
ATOM     34  C   UNL     1       8.705  -2.590   4.245  0.00  0.00    +0.050 A 
ATOM     35  N   UNL     1       8.035  -3.708   3.797  0.00  0.00    -0.322 N 
ATOM     36  H   UNL     1       8.511  -4.373   3.276  0.00  0.00    +0.169 HD
ATOM     37  C   UNL     1       6.732  -3.890   4.073  0.00  0.00    +0.251 A 
ATOM     38  O   UNL     1       6.172  -4.891   3.661  0.00  0.00    -0.268 OA
ATOM     39  C   UNL     1      12.160  -1.071   4.112  0.00  0.00    +0.044 C 
ATOM     40  C   UNL     1       7.961   0.553   6.270  0.00  0.00    +0.044 C 
ENDBRANCH  26  27
ENDBRANCH   1  26
TORSDOF 10
