REMARK  Name = ZINC36390432
REMARK  10 active torsions:
REMARK  status: ('A' for Active; 'I' for Inactive)
REMARK    1  A    between atoms: C_1  and  C_2
REMARK    2  A    between atoms: C_4  and  C_27
REMARK    3  A    between atoms: C_8  and  C_10
REMARK    4  A    between atoms: C_10  and  C_11
REMARK    5  A    between atoms: C_10  and  S_12
REMARK    6  A    between atoms: S_12  and  C_13
REMARK    7  A    between atoms: N_17  and  C_18
REMARK    8  A    between atoms: C_21  and  C_24
REMARK    9  A    between atoms: C_24  and  C_25
REMARK   10  A    between atoms: C_24  and  C_26
REMARK                            x       y       z     vdW  Elec       q    Type
REMARK                         _______ _______ _______ _____ _____    ______ ____
ROOT
ATOM      1  C   UNL     1      -1.905  -2.493   5.585  0.00  0.00    +0.215 A 
ATOM      2  N   UNL     1      -1.766  -1.209   5.835  0.00  0.00    -0.101 NA
ATOM      3  N   UNL     1      -2.454  -0.875   6.867  0.00  0.00    -0.022 NA
ATOM      4  N   UNL     1      -3.073  -1.899   7.346  0.00  0.00    -0.038 NA
ATOM      5  N   UNL     1      -2.744  -2.994   6.527  0.00  0.00    -0.187 N 
ENDROOT
BRANCH   5   6
ATOM      6  C   UNL     1      -3.186  -4.318   6.657  0.00  0.00    +0.070 A 
ATOM      7  C   UNL     1      -3.411  -5.090   5.526  0.00  0.00    +0.028 A 
ATOM      8  C   UNL     1      -3.846  -6.394   5.657  0.00  0.00    +0.006 A 
ATOM      9  C   UNL     1      -4.059  -6.931   6.913  0.00  0.00    -0.045 A 
ATOM     10  C   UNL     1      -3.836  -6.164   8.042  0.00  0.00    +0.006 A 
ATOM     11  C   UNL     1      -3.395  -4.861   7.918  0.00  0.00    +0.028 A 
BRANCH   9  12
ATOM     12  C   UNL     1      -4.534  -8.354   7.053  0.00  0.00    +0.013 C 
ATOM     13  C   UNL     1      -3.507  -9.159   7.851  0.00  0.00    +0.012 C 
ATOM     14  C   UNL     1      -5.878  -8.373   7.785  0.00  0.00    +0.012 C 
ENDBRANCH   9  12
ENDBRANCH   5   6
BRANCH   1  15
ATOM     15  S   UNL     1      -1.150  -3.392   4.271  0.00  0.00    -0.072 S 
BRANCH  15  16
ATOM     16  C   UNL     1      -0.166  -2.145   3.395  0.00  0.00    +0.137 C 
ATOM     17  C   UNL     1       0.946  -1.636   4.313  0.00  0.00    +0.029 C 
BRANCH  16  25
ATOM     18  C   UNL     1      -0.019   1.526   0.010  0.00  0.00    +0.009 C 
ATOM     19  C   UNL     1       0.002  -0.004   0.002  0.00  0.00    +0.004 C 
ATOM     20  C   UNL     1       0.722  -0.498  -1.255  0.00  0.00    +0.009 C 
ATOM     21  C   UNL     1       0.714  -2.028  -1.281  0.00  0.00    +0.004 C 
ATOM     22  C   UNL     1       1.463  -2.559  -0.054  0.00  0.00    +0.111 C 
ATOM     23  N   UNL     1       0.867  -1.974   1.154  0.00  0.00    -0.300 N 
ATOM     24  C   UNL     1       0.743  -0.512   1.243  0.00  0.00    +0.111 C 
ATOM     25  C   UNL     1       0.443  -2.761   2.162  0.00  0.00    +0.229 C 
ATOM     26  O   UNL     1       0.551  -3.966   2.076  0.00  0.00    -0.274 OA
ATOM     27  C   UNL     1       1.405  -2.521  -2.554  0.00  0.00    +0.009 C 
ENDBRANCH  16  25
ENDBRANCH  15  16
ENDBRANCH   1  15
TORSDOF 5
