REMARK  Name = ZINC28519222
REMARK  10 active torsions:
REMARK  status: ('A' for Active; 'I' for Inactive)
REMARK    1  A    between atoms: C_1  and  C_2
REMARK    2  A    between atoms: C_4  and  N_25
REMARK    3  A    between atoms: C_7  and  N_8
REMARK    4  A    between atoms: C_9  and  C_11
REMARK    5  A    between atoms: C_11  and  C_13
REMARK    6  A    between atoms: C_11  and  S_14
REMARK    7  A    between atoms: S_14  and  C_15
REMARK    8  A    between atoms: C_17  and  C_24
REMARK    9  A    between atoms: C_18  and  C_20
REMARK   10  A    between atoms: C_20  and  C_21
REMARK                            x       y       z     vdW  Elec       q    Type
REMARK                         _______ _______ _______ _____ _____    ______ ____
ROOT
ATOM      1  C   UNL     1      -0.169   0.052   4.882  0.00  0.00    +0.136 C 
ATOM      2  C   UNL     1      -1.636   0.395   5.149  0.00  0.00    +0.029 C 
ENDROOT
BRANCH   1   4
ATOM      3  N   UNL     1       0.025  -0.015   2.417  0.00  0.00    -0.284 N 
ATOM      4  C   UNL     1      -0.057  -0.694   3.578  0.00  0.00    +0.230 C 
ATOM      5  O   UNL     1      -0.040  -1.907   3.573  0.00  0.00    -0.274 OA
ATOM      6  H   UNL     1       0.077   0.954   2.425  0.00  0.00    +0.155 HD
BRANCH   3  13
ATOM      7  C   UNL     1      -1.265   1.183   0.181  0.00  0.00    +0.046 C 
ATOM      8  C   UNL     1      -0.584  -0.158   0.084  0.00  0.00    -0.027 A 
ATOM      9  C   UNL     1      -0.569  -0.841  -1.117  0.00  0.00    +0.038 A 
ATOM     10  C   UNL     1       0.056  -2.071  -1.206  0.00  0.00    +0.127 A 
ATOM     11  C   UNL     1       0.667  -2.622  -0.095  0.00  0.00    +0.034 A 
ATOM     12  C   UNL     1       0.656  -1.944   1.109  0.00  0.00    +0.026 A 
ATOM     13  C   UNL     1       0.034  -0.706   1.201  0.00  0.00    +0.036 A 
BRANCH  10  14
ATOM     14  N   UNL     1       0.070  -2.800  -2.494  0.00  0.00    +0.056 N 
ATOM     15  O   UNL     1      -0.465  -2.320  -3.466  0.00  0.00    -0.126 OA
ATOM     16  O   UNL     1       0.615  -3.876  -2.574  0.00  0.00    -0.126 OA
ENDBRANCH  10  14
ENDBRANCH   3  13
ENDBRANCH   1   4
BRANCH   1  17
ATOM     17  S   UNL     1       0.465  -0.985   6.229  0.00  0.00    -0.086 S 
BRANCH  17  18
ATOM     18  C   UNL     1       0.406   0.068   7.641  0.00  0.00    +0.136 A 
ATOM     19  N   UNL     1      -0.007   1.316   7.715  0.00  0.00    -0.238 NA
ATOM     20  C   UNL     1       0.012   1.973   8.861  0.00  0.00    +0.050 A 
ATOM     21  C   UNL     1       0.473   1.307   9.946  0.00  0.00    +0.022 A 
ATOM     22  S   UNL     1       0.857  -0.281   9.225  0.00  0.00    -0.065 S 
ATOM     23  C   UNL     1      -0.458   3.402   8.956  0.00  0.00    +0.066 C 
BRANCH  21  24
ATOM     24  C   UNL     1       0.618   1.775  11.371  0.00  0.00    +0.139 C 
BRANCH  24  25
ATOM     25  C   UNL     1      -0.651   1.478  12.128  0.00  0.00    +0.215 C 
ATOM     26  O   UNL     1      -1.581   0.940  11.566  0.00  0.00    -0.276 OA
ATOM     27  N   UNL     1      -0.752   1.811  13.430  0.00  0.00    -0.329 N 
ATOM     28  H   UNL     1      -0.009   2.242  13.880  0.00  0.00    +0.145 HD
ATOM     29  H   UNL     1      -1.569   1.620  13.917  0.00  0.00    +0.145 HD
ENDBRANCH  24  25
ENDBRANCH  21  24
ENDBRANCH  17  18
ENDBRANCH   1  17
TORSDOF 7
