REMARK  Name = ZINC24013634
REMARK  4 active torsions:
REMARK  status: ('A' for Active; 'I' for Inactive)
REMARK    1  A    between atoms: C_1  and  C_2
REMARK    2  A    between atoms: C_11  and  S_13
REMARK    3  A    between atoms: S_13  and  N_16
REMARK    4  A    between atoms: N_20  and  C_22
REMARK                            x       y       z     vdW  Elec       q    Type
REMARK                         _______ _______ _______ _____ _____    ______ ____
ROOT
ATOM      1  C   UNL     1       5.160   8.505   1.535  0.00  0.00    +0.109 C 
ATOM      2  C   UNL     1       4.254   7.758   2.480  0.00  0.00    +0.217 C 
ATOM      3  O   UNL     1       3.750   8.335   3.420  0.00  0.00    -0.276 OA
ATOM      4  N   UNL     1       4.004   6.449   2.280  0.00  0.00    -0.271 N 
ATOM      5  C   UNL     1       4.552   5.647   1.184  0.00  0.00    +0.118 C 
ATOM      6  C   UNL     1       3.978   4.236   1.390  0.00  0.00    +0.056 C 
ATOM      7  C   UNL     1       3.120   4.351   2.630  0.00  0.00    -0.023 A 
ATOM      8  C   UNL     1       3.183   5.657   3.089  0.00  0.00    +0.040 A 
ATOM      9  C   UNL     1       2.465   6.008   4.234  0.00  0.00    +0.026 A 
ATOM     10  C   UNL     1       1.706   5.066   4.895  0.00  0.00    +0.030 A 
ATOM     11  C   UNL     1       1.650   3.766   4.428  0.00  0.00    +0.109 A 
ATOM     12  C   UNL     1       2.362   3.409   3.298  0.00  0.00    +0.034 A 
ENDROOT
BRANCH  11  13
ATOM     13  S   UNL     1       0.679   2.564   5.276  0.00  0.00    +0.074 S 
ATOM     14  O   UNL     1       0.550   3.018   6.616  0.00  0.00    -0.150 OA
ATOM     15  O   UNL     1       1.229   1.295   4.950  0.00  0.00    -0.150 OA
BRANCH  13  16
ATOM     16  N   UNL     1      -0.839   2.606   4.614  0.00  0.00    -0.198 N 
ATOM     17  C   UNL     1      -1.031   2.233   3.278  0.00  0.00    +0.160 A 
ATOM     18  C   UNL     1      -2.256   2.222   2.593  0.00  0.00    +0.066 A 
ATOM     19  C   UNL     1      -2.020   1.809   1.327  0.00  0.00    +0.110 A 
ATOM     20  N   UNL     1      -0.698   1.558   1.213  0.00  0.00    -0.273 N 
ATOM     21  N   UNL     1      -0.096   1.834   2.448  0.00  0.00    -0.155 NA
ATOM     22  C   UNL     1      -0.013   1.086   0.008  0.00  0.00    +0.172 C 
ATOM     23  H   UNL     1      -1.696   2.927   5.224  0.00  0.00    +0.175 HD
ENDBRANCH  13  16
ENDBRANCH  11  13
TORSDOF 2
