REMARK  Name = ZINC38659801
REMARK  14 active torsions:
REMARK  status: ('A' for Active; 'I' for Inactive)
REMARK    1  A    between atoms: C_1  and  O_2
REMARK    2  A    between atoms: O_2  and  C_3
REMARK    3  A    between atoms: C_6  and  O_9
REMARK    4  A    between atoms: O_9  and  C_10
REMARK    5  A    between atoms: C_10  and  C_11
REMARK    6  A    between atoms: C_11  and  O_13
REMARK    7  A    between atoms: O_13  and  C_14
REMARK    8  A    between atoms: C_21  and  N_37
REMARK    9  A    between atoms: C_22  and  C_35
REMARK   10  A    between atoms: C_23  and  C_25
REMARK   11  A    between atoms: C_27  and  O_33
REMARK   12  A    between atoms: C_30  and  O_31
REMARK   13  A    between atoms: O_31  and  C_32
REMARK   14  A    between atoms: O_33  and  C_34
REMARK                            x       y       z     vdW  Elec       q    Type
REMARK                         _______ _______ _______ _____ _____    ______ ____
ROOT
ATOM      1  C   UNL     1       4.099  -6.230   6.679  0.00  0.00    +0.135 A 
ATOM      2  C   UNL     1       4.600  -5.370   7.646  0.00  0.00    +0.047 A 
ATOM      3  C   UNL     1       5.289  -5.878   8.730  0.00  0.00    +0.012 A 
ATOM      4  C   UNL     1       5.483  -7.242   8.857  0.00  0.00    +0.008 A 
ATOM      5  C   UNL     1       4.984  -8.105   7.894  0.00  0.00    +0.138 A 
ATOM      6  C   UNL     1       4.286  -7.596   6.806  0.00  0.00    +0.093 A 
ATOM      7  O   UNL     1       5.164  -9.445   8.000  0.00  0.00    -0.441 OA
ATOM      8  C   UNL     1       6.128  -9.930   8.800  0.00  0.00    +0.199 C 
ATOM      9  C   UNL     1       6.679  -9.188   9.790  0.00  0.00    +0.098 C 
ATOM     10  C   UNL     1       6.236  -7.775  10.046  0.00  0.00    +0.102 C 
ENDROOT
BRANCH  10  11
ATOM     11  C   UNL     1       5.342  -7.744  11.259  0.00  0.00    +0.010 A 
ATOM     12  C   UNL     1       4.162  -8.463  11.265  0.00  0.00    +0.053 A 
ATOM     13  C   UNL     1       3.339  -8.435  12.381  0.00  0.00    +0.121 A 
ATOM     14  C   UNL     1       3.700  -7.685  13.491  0.00  0.00    +0.049 A 
ATOM     15  C   UNL     1       4.880  -6.967  13.485  0.00  0.00    +0.049 A 
ATOM     16  C   UNL     1       5.706  -6.999  12.370  0.00  0.00    +0.124 A 
BRANCH  16  17
ATOM     17  O   UNL     1       6.870  -6.296  12.366  0.00  0.00    -0.495 OA
ATOM     18  C   UNL     1       7.182  -5.551  13.545  0.00  0.00    +0.277 C 
ENDBRANCH  16  17
BRANCH  13  19
ATOM     19  O   UNL     1       2.177  -9.142  12.387  0.00  0.00    -0.495 OA
ATOM     20  C   UNL     1       1.379  -9.067  13.570  0.00  0.00    +0.277 C 
ENDBRANCH  13  19
ENDBRANCH  10  11
BRANCH   8  21
ATOM     21  N   UNL     1       6.567 -11.216   8.609  0.00  0.00    -0.328 N 
ATOM     22  H   UNL     1       6.182 -11.760   7.904  0.00  0.00    +0.145 HD
ATOM     23  H   UNL     1       7.263 -11.581   9.178  0.00  0.00    +0.145 HD
ENDBRANCH   8  21
BRANCH   9  24
ATOM     24  C   UNL     1       7.704  -9.762  10.610  0.00  0.00    +0.101 C 
ATOM     25  N   UNL     1       8.516 -10.217  11.260  0.00  0.00    -0.191 NA
ENDBRANCH   9  24
BRANCH   1  26
ATOM     26  O   UNL     1       3.421  -5.732   5.611  0.00  0.00    -0.423 OA
BRANCH  26  27
ATOM     27  C   UNL     1       4.131  -5.172   4.619  0.00  0.00    +0.350 C 
ATOM     28  O   UNL     1       5.327  -5.041   4.731  0.00  0.00    -0.247 OA
BRANCH  27  29
ATOM     29  C   UNL     1       3.437  -4.706   3.365  0.00  0.00    +0.349 C 
BRANCH  29  30
ATOM     30  O   UNL     1       4.399  -4.150   2.466  0.00  0.00    -0.481 OA
BRANCH  30  34
ATOM     31  C   UNL     1       2.987  -2.724  -1.141  0.00  0.00    +0.120 A 
ATOM     32  C   UNL     1       4.341  -2.650  -0.848  0.00  0.00    +0.049 A 
ATOM     33  C   UNL     1       4.813  -3.127   0.359  0.00  0.00    +0.049 A 
ATOM     34  C   UNL     1       3.933  -3.680   1.278  0.00  0.00    +0.122 A 
ATOM     35  C   UNL     1       2.580  -3.753   0.985  0.00  0.00    +0.049 A 
ATOM     36  C   UNL     1       2.107  -3.272  -0.220  0.00  0.00    +0.049 A 
BRANCH  31  38
ATOM     37  C   UNL     1       3.485  -1.703  -3.231  0.00  0.00    +0.277 C 
ATOM     38  O   UNL     1       2.522  -2.254  -2.330  0.00  0.00    -0.495 OA
ENDBRANCH  31  38
ENDBRANCH  30  34
ENDBRANCH  29  30
ENDBRANCH  27  29
ENDBRANCH  26  27
ENDBRANCH   1  26
TORSDOF 11
