REMARK  Name = ZINC59005675
REMARK  12 active torsions:
REMARK  status: ('A' for Active; 'I' for Inactive)
REMARK    1  A    between atoms: C_1  and  C_2
REMARK    2  A    between atoms: C_2  and  N_3
REMARK    3  A    between atoms: N_3  and  C_4
REMARK    4  A    between atoms: N_3  and  C_6
REMARK    5  A    between atoms: C_4  and  C_5
REMARK    6  A    between atoms: C_9  and  C_12
REMARK    7  A    between atoms: N_13  and  N_14
REMARK    8  A    between atoms: C_17  and  S_20
REMARK    9  A    between atoms: S_20  and  C_21
REMARK   10  A    between atoms: C_21  and  C_22
REMARK   11  A    between atoms: N_24  and  C_25
REMARK   12  A    between atoms: C_30  and  C_31
REMARK                            x       y       z     vdW  Elec       q    Type
REMARK                         _______ _______ _______ _____ _____    ______ ____
ROOT
ATOM      1  N   UNL     1      -5.853  -2.167   6.147  0.00  0.00    -0.205 N 
ATOM      2  C   UNL     1      -7.145  -2.658   6.156  0.00  0.00    +0.232 A 
ATOM      3  N   UNL     1      -7.874  -2.941   5.097  0.00  0.00    -0.186 NA
ATOM      4  C   UNL     1      -9.071  -3.395   5.482  0.00  0.00    +0.211 A 
ATOM      5  N   UNL     1      -9.120  -3.407   6.793  0.00  0.00    -0.144 NA
ATOM      6  N   UNL     1      -7.880  -2.938   7.254  0.00  0.00    -0.245 N 
ATOM      7  H   UNL     1      -5.394  -1.993   6.984  0.00  0.00    +0.177 HD
ATOM      8  H   UNL     1      -7.605  -2.835   8.178  0.00  0.00    +0.192 HD
ENDROOT
BRANCH   1  10
ATOM      9  C   UNL     1      -3.992  -1.459   4.920  0.00  0.00    +0.138 C 
ATOM     10  N   UNL     1      -5.206  -1.920   4.929  0.00  0.00    -0.188 NA
BRANCH   9  14
ATOM     11  C   UNL     1      -2.032  -0.712   1.228  0.00  0.00    +0.030 A 
ATOM     12  C   UNL     1      -1.373  -0.462   2.427  0.00  0.00    +0.024 A 
ATOM     13  C   UNL     1      -2.006  -0.703   3.627  0.00  0.00    +0.011 A 
ATOM     14  C   UNL     1      -3.312  -1.199   3.638  0.00  0.00    -0.005 A 
ATOM     15  C   UNL     1      -3.971  -1.450   2.432  0.00  0.00    +0.011 A 
ATOM     16  C   UNL     1      -3.334  -1.201   1.236  0.00  0.00    +0.024 A 
BRANCH  11  17
ATOM     17  N   UNL     1      -1.388  -0.467   0.015  0.00  0.00    -0.330 N 
BRANCH  17  19
ATOM     18  C   UNL     1      -0.046   1.578   0.005  0.00  0.00    +0.024 C 
ATOM     19  C   UNL     1      -0.017   0.048   0.005  0.00  0.00    +0.102 C 
ENDBRANCH  17  19
BRANCH  17  20
ATOM     20  C   UNL     1      -2.083  -0.724  -1.248  0.00  0.00    +0.102 C 
ATOM     21  C   UNL     1      -1.818  -2.164  -1.692  0.00  0.00    +0.024 C 
ENDBRANCH  17  20
ENDBRANCH  11  17
ENDBRANCH   9  14
ENDBRANCH   1  10
BRANCH   4  22
ATOM     22  S   UNL     1     -10.372  -3.894   4.404  0.00  0.00    -0.075 S 
BRANCH  22  23
ATOM     23  C   UNL     1     -11.704  -4.397   5.527  0.00  0.00    +0.173 C 
BRANCH  23  24
ATOM     24  C   UNL     1     -12.894  -4.853   4.723  0.00  0.00    +0.227 C 
ATOM     25  O   UNL     1     -12.848  -4.841   3.511  0.00  0.00    -0.275 OA
ATOM     26  N   UNL     1     -14.010  -5.275   5.350  0.00  0.00    -0.285 N 
ATOM     27  H   UNL     1     -14.020  -5.362   6.316  0.00  0.00    +0.155 HD
BRANCH  26  28
ATOM     28  C   UNL     1     -15.154  -5.589   4.608  0.00  0.00    +0.036 A 
ATOM     29  C   UNL     1     -15.353  -5.014   3.359  0.00  0.00    +0.024 A 
ATOM     30  C   UNL     1     -16.482  -5.326   2.628  0.00  0.00    +0.017 A 
ATOM     31  C   UNL     1     -17.416  -6.210   3.139  0.00  0.00    +0.018 A 
ATOM     32  C   UNL     1     -17.221  -6.784   4.383  0.00  0.00    +0.020 A 
ATOM     33  C   UNL     1     -16.090  -6.480   5.115  0.00  0.00    -0.028 A 
ATOM     34  C   UNL     1     -15.875  -7.111   6.467  0.00  0.00    +0.046 C 
ATOM     35 BR   UNL     1     -18.962  -6.634   2.136  0.00  0.00    -0.050 Br
ENDBRANCH  26  28
ENDBRANCH  23  24
ENDBRANCH  22  23
ENDBRANCH   4  22
TORSDOF 9
