REMARK  Name = ZINC43660948
REMARK  7 active torsions:
REMARK  status: ('A' for Active; 'I' for Inactive)
REMARK    1  A    between atoms: C_1  and  C_2
REMARK    2  A    between atoms: C_2  and  C_3
REMARK    3  A    between atoms: C_3  and  C_4
REMARK    4  A    between atoms: C_8  and  O_24
REMARK    5  A    between atoms: C_10  and  C_13
REMARK    6  A    between atoms: C_13  and  C_14
REMARK    7  A    between atoms: C_19  and  N_20
REMARK                            x       y       z     vdW  Elec       q    Type
REMARK                         _______ _______ _______ _____ _____    ______ ____
ROOT
ATOM      1  C   UNL     1      -1.547  -2.074   0.103  0.00  0.00    -0.011 C 
ATOM      2  C   UNL     1      -1.031  -2.593   1.447  0.00  0.00    +0.006 C 
ATOM      3  C   UNL     1      -1.008  -4.122   1.429  0.00  0.00    +0.032 C 
ATOM      4  C   UNL     1      -2.423  -4.651   1.188  0.00  0.00    +0.118 C 
ATOM      5  C   UNL     1      -2.939  -4.133  -0.155  0.00  0.00    +0.022 C 
ATOM      6  C   UNL     1      -2.963  -2.603  -0.137  0.00  0.00    +0.010 C 
ENDROOT
BRANCH   4   7
ATOM      7  O   UNL     1      -2.402  -6.080   1.171  0.00  0.00    -0.392 OA
ATOM      8  H   UNL     1      -2.084  -6.478   1.993  0.00  0.00    +0.210 HD
ENDBRANCH   4   7
BRANCH   1   9
ATOM      9  C   UNL     1      -1.571  -0.545   0.122  0.00  0.00    +0.003 C 
BRANCH   9  11
ATOM     10  C   UNL     1      -0.163   1.515   0.256  0.00  0.00    +0.004 C 
ATOM     11  C   UNL     1      -0.140  -0.014   0.237  0.00  0.00    -0.003 C 
ENDBRANCH   9  11
ENDBRANCH   1   9
BRANCH   5  12
ATOM     12  C   UNL     1      -2.017  -4.616  -1.277  0.00  0.00    +0.043 C 
BRANCH  12  13
ATOM     13  C   UNL     1      -2.089  -6.118  -1.374  0.00  0.00    -0.014 A 
ATOM     14  C   UNL     1      -1.056  -6.892  -0.882  0.00  0.00    +0.044 A 
ATOM     15  C   UNL     1      -1.122  -8.272  -0.972  0.00  0.00    +0.124 A 
ATOM     16  C   UNL     1      -2.224  -8.875  -1.555  0.00  0.00    +0.040 A 
ATOM     17  C   UNL     1      -3.255  -8.098  -2.047  0.00  0.00    +0.036 A 
ATOM     18  C   UNL     1      -3.191  -6.721  -1.952  0.00  0.00    +0.130 A 
ATOM     19  F   UNL     1      -0.112  -9.030  -0.491  0.00  0.00    -0.205 F 
BRANCH  18  20
ATOM     20  N   UNL     1      -4.299  -5.890  -2.473  0.00  0.00    +0.057 N 
ATOM     21  O   UNL     1      -5.307  -6.417  -2.885  0.00  0.00    -0.126 OA
ATOM     22  O   UNL     1      -4.198  -4.686  -2.487  0.00  0.00    -0.126 OA
ENDBRANCH  18  20
ENDBRANCH  12  13
ENDBRANCH   5  12
TORSDOF 6
