REMARK  Name = ZINC16856642
REMARK  12 active torsions:
REMARK  status: ('A' for Active; 'I' for Inactive)
REMARK    1  A    between atoms: C_1  and  C_2
REMARK    2  A    between atoms: C_2  and  C_3
REMARK    3  A    between atoms: C_3  and  C_4
REMARK    4  A    between atoms: C_4  and  C_5
REMARK    5  A    between atoms: C_5  and  O_6
REMARK    6  A    between atoms: O_6  and  C_7
REMARK    7  A    between atoms: C_7  and  C_9
REMARK    8  A    between atoms: C_12  and  N_15
REMARK    9  A    between atoms: C_18  and  C_20
REMARK   10  A    between atoms: C_21  and  C_29
REMARK   11  A    between atoms: C_23  and  C_27
REMARK   12  A    between atoms: C_24  and  N_26
REMARK                            x       y       z     vdW  Elec       q    Type
REMARK                         _______ _______ _______ _____ _____    ______ ____
ROOT
ATOM      1  N   UNL     1      -2.298  -1.472   2.408  0.00  0.00    -0.200 N 
ATOM      2  C   UNL     1      -1.945  -1.122   1.151  0.00  0.00    +0.230 A 
ATOM      3  C   UNL     1      -0.716  -0.529   1.219  0.00  0.00    +0.050 A 
ATOM      4  C   UNL     1      -0.314  -0.521   2.548  0.00  0.00    +0.068 A 
ATOM      5  N   UNL     1      -1.257  -1.085   3.266  0.00  0.00    -0.168 NA
ATOM      6  C   UNL     1       0.983   0.037   3.076  0.00  0.00    +0.068 C 
ATOM      7  C   UNL     1       0.002  -0.004   0.002  0.00  0.00    +0.101 C 
ATOM      8  C   UNL     1      -0.713  -0.516  -1.224  0.00  0.00    +0.098 C 
ATOM      9  C   UNL     1      -1.930  -1.101  -1.162  0.00  0.00    +0.200 C 
ATOM     10  O   UNL     1      -2.616  -1.287  -0.016  0.00  0.00    -0.423 OA
ENDROOT
BRANCH   1  14
ATOM     11  C   UNL     1      -5.841  -3.358   3.533  0.00  0.00    +0.059 A 
ATOM     12  C   UNL     1      -4.648  -3.650   4.202  0.00  0.00    +0.017 A 
ATOM     13  C   UNL     1      -3.480  -3.024   3.828  0.00  0.00    +0.029 A 
ATOM     14  C   UNL     1      -3.486  -2.104   2.785  0.00  0.00    +0.069 A 
ATOM     15  C   UNL     1      -4.671  -1.807   2.121  0.00  0.00    +0.029 A 
ATOM     16  C   UNL     1      -5.842  -2.433   2.486  0.00  0.00    +0.017 A 
BRANCH  11  17
ATOM     17  C   UNL     1      -7.094  -4.027   3.931  0.00  0.00    +0.339 C 
ATOM     18  O   UNL     1      -7.091  -4.832   4.841  0.00  0.00    -0.245 OA
BRANCH  17  19
ATOM     19  O   UNL     1      -8.242  -3.745   3.285  0.00  0.00    -0.461 OA
BRANCH  19  20
ATOM     20  C   UNL     1      -9.437  -4.440   3.730  0.00  0.00    +0.232 C 
BRANCH  20  21
ATOM     21  C   UNL     1     -10.632  -3.993   2.884  0.00  0.00    +0.041 C 
BRANCH  21  22
ATOM     22  C   UNL     1     -11.890  -4.726   3.353  0.00  0.00    +0.003 C 
BRANCH  22  24
ATOM     23  C   UNL     1     -14.344  -5.012   2.977  0.00  0.00    +0.004 C 
ATOM     24  C   UNL     1     -13.085  -4.279   2.508  0.00  0.00    -0.003 C 
ENDBRANCH  22  24
ENDBRANCH  21  22
ENDBRANCH  20  21
ENDBRANCH  19  20
ENDBRANCH  17  19
ENDBRANCH  11  17
ENDBRANCH   1  14
BRANCH   7  25
ATOM     25  C   UNL     1      -0.018   1.503   0.010  0.00  0.00    -0.035 A 
ATOM     26  C   UNL     1      -1.225   2.178   0.020  0.00  0.00    +0.004 A 
ATOM     27  C   UNL     1      -1.244   3.560   0.031  0.00  0.00    +0.000 A 
ATOM     28  C   UNL     1      -0.056   4.267   0.025  0.00  0.00    +0.000 A 
ATOM     29  C   UNL     1       1.151   3.592   0.010  0.00  0.00    +0.000 A 
ATOM     30  C   UNL     1       1.169   2.210   0.003  0.00  0.00    +0.004 A 
ENDBRANCH   7  25
BRANCH   9  31
ATOM     31  N   UNL     1      -2.500  -1.530  -2.334  0.00  0.00    -0.328 N 
ATOM     32  H   UNL     1      -2.031  -1.411  -3.175  0.00  0.00    +0.145 HD
ATOM     33  H   UNL     1      -3.373  -1.954  -2.322  0.00  0.00    +0.145 HD
ENDBRANCH   9  31
BRANCH   8  34
ATOM     34  C   UNL     1      -0.078  -0.378  -2.500  0.00  0.00    +0.101 C 
ATOM     35  N   UNL     1       0.426  -0.268  -3.512  0.00  0.00    -0.191 NA
ENDBRANCH   8  34
TORSDOF 10
