REMARK  Name = ZINC21538301
REMARK  11 active torsions:
REMARK  status: ('A' for Active; 'I' for Inactive)
REMARK    1  A    between atoms: C_1  and  C_2
REMARK    2  A    between atoms: C_5  and  C_37
REMARK    3  A    between atoms: N_6  and  C_7
REMARK    4  A    between atoms: C_7  and  C_8
REMARK    5  A    between atoms: C_8  and  N_9
REMARK    6  A    between atoms: N_12  and  C_15
REMARK    7  A    between atoms: C_17  and  C_30
REMARK    8  A    between atoms: N_21  and  C_22
REMARK    9  A    between atoms: C_25  and  O_28
REMARK   10  A    between atoms: O_28  and  C_29
REMARK   11  A    between atoms: C_30  and  C_31
REMARK                            x       y       z     vdW  Elec       q    Type
REMARK                         _______ _______ _______ _____ _____    ______ ____
ROOT
ATOM      1  C   UNL     1      -1.504   4.406   2.243  0.00  0.00    +0.167 A 
ATOM      2  N   UNL     1      -0.856   3.312   1.986  0.00  0.00    -0.329 N 
ATOM      3  C   UNL     1      -1.844   2.289   1.609  0.00  0.00    +0.088 A 
ATOM      4  H   UNL     1       0.215   3.061   2.007  0.00  0.00    +0.168 HD
ATOM      5  C   UNL     1      -3.175   3.010   1.702  0.00  0.00    +0.278 A 
ATOM      6  O   UNL     1      -4.277   2.555   1.479  0.00  0.00    -0.265 OA
ATOM      7  N   UNL     1      -2.863   4.269   2.086  0.00  0.00    -0.250 N 
ENDROOT
BRANCH   1  11
ATOM      8  N   UNL     1       0.850   7.747   2.571  0.00  0.00    -0.298 NA
ATOM      9  C   UNL     1      -0.234   7.677   1.583  0.00  0.00    +0.102 C 
ATOM     10  C   UNL     1      -1.404   6.878   2.169  0.00  0.00    +0.103 C 
ATOM     11  N   UNL     1      -0.897   5.577   2.630  0.00  0.00    -0.365 NA
ATOM     12  C   UNL     1       0.273   5.562   3.521  0.00  0.00    +0.103 C 
ATOM     13  C   UNL     1       1.380   6.412   2.877  0.00  0.00    +0.102 C 
ATOM     14  H   UNL     1      -1.351   4.638   2.282  0.00  0.00    +0.129 HD
BRANCH   8  15
ATOM     15  C   UNL     1       1.919   8.647   2.116  0.00  0.00    +0.106 C 
BRANCH  15  16
ATOM     16  C   UNL     1       3.131   8.505   3.039  0.00  0.00    +0.137 C 
BRANCH  16  22
ATOM     17  C   UNL     1       5.353   7.751   1.012  0.00  0.00    +0.063 C 
ATOM     18  C   UNL     1       5.179   9.083   1.695  0.00  0.00    +0.016 A 
ATOM     19  C   UNL     1       5.966  10.166   1.529  0.00  0.00    +0.023 A 
ATOM     20  C   UNL     1       5.457  11.188   2.354  0.00  0.00    +0.023 A 
ATOM     21  C   UNL     1       4.375  10.693   2.989  0.00  0.00    +0.016 A 
ATOM     22  N   UNL     1       4.197   9.402   2.586  0.00  0.00    -0.347 N 
ATOM     23  C   UNL     1       3.510  11.438   3.973  0.00  0.00    +0.063 C 
ENDBRANCH  16  22
ENDBRANCH  15  16
ENDBRANCH   8  15
ENDBRANCH   1  11
BRANCH   7  24
ATOM     24  C   UNL     1      -3.798   5.294   2.296  0.00  0.00    +0.053 A 
ATOM     25  C   UNL     1      -4.012   5.787   3.576  0.00  0.00    +0.030 A 
ATOM     26  C   UNL     1      -4.928   6.799   3.781  0.00  0.00    +0.047 A 
ATOM     27  C   UNL     1      -5.644   7.316   2.711  0.00  0.00    +0.120 A 
ATOM     28  C   UNL     1      -5.435   6.819   1.432  0.00  0.00    +0.047 A 
ATOM     29  C   UNL     1      -4.514   5.810   1.225  0.00  0.00    +0.030 A 
BRANCH  27  30
ATOM     30  O   UNL     1      -6.549   8.309   2.914  0.00  0.00    -0.495 OA
ATOM     31  C   UNL     1      -6.713   8.773   4.256  0.00  0.00    +0.277 C 
ENDBRANCH  27  30
ENDBRANCH   7  24
BRANCH   3  32
ATOM     32  C   UNL     1      -1.596   1.802   0.179  0.00  0.00    +0.094 C 
BRANCH  32  33
ATOM     33  C   UNL     1      -0.305   1.026   0.130  0.00  0.00    -0.041 A 
ATOM     34  C   UNL     1       0.884   1.678  -0.138  0.00  0.00    +0.004 A 
ATOM     35  C   UNL     1       2.067   0.965  -0.190  0.00  0.00    +0.000 A 
ATOM     36  C   UNL     1       2.061  -0.400   0.027  0.00  0.00    +0.000 A 
ATOM     37  C   UNL     1       0.872  -1.052   0.296  0.00  0.00    +0.000 A 
ATOM     38  C   UNL     1      -0.311  -0.339   0.347  0.00  0.00    +0.004 A 
ENDBRANCH  32  33
ENDBRANCH   3  32
TORSDOF 8
