REMARK  Name = ZINC64450923
REMARK  6 active torsions:
REMARK  status: ('A' for Active; 'I' for Inactive)
REMARK    1  A    between atoms: C_1  and  C_2
REMARK    2  A    between atoms: C_2  and  C_3
REMARK    3  A    between atoms: C_2  and  N_4
REMARK    4  A    between atoms: C_16  and  N_28
REMARK    5  A    between atoms: C_17  and  C_21
REMARK    6  A    between atoms: N_28  and  C_29
REMARK                            x       y       z     vdW  Elec       q    Type
REMARK                         _______ _______ _______ _____ _____    ______ ____
ROOT
ATOM      1  N   UNL     1      -1.371  -0.513   0.016  0.00  0.00    -0.297 N 
ATOM      2  C   UNL     1      -1.643  -1.734  -0.485  0.00  0.00    +0.302 C 
ATOM      3  O   UNL     1      -0.766  -2.378  -1.028  0.00  0.00    -0.253 OA
ATOM      4  N   UNL     1      -2.888  -2.242  -0.385  0.00  0.00    -0.283 N 
ATOM      5  C   UNL     1      -3.985  -1.430   0.160  0.00  0.00    +0.128 C 
ATOM      6  C   UNL     1      -5.125  -1.396  -0.866  0.00  0.00    +0.126 C 
ATOM      7  N   UNL     1      -5.408  -2.771  -1.300  0.00  0.00    -0.305 N 
ATOM      8  C   UNL     1      -4.311  -3.583  -1.844  0.00  0.00    +0.126 C 
ATOM      9  C   UNL     1      -3.172  -3.616  -0.823  0.00  0.00    +0.128 C 
ATOM     10  C   UNL     1      -6.688  -3.293  -1.196  0.00  0.00    +0.184 A 
ATOM     11  N   UNL     1      -7.117  -4.482  -1.523  0.00  0.00    -0.140 NA
ATOM     12  N   UNL     1      -8.449  -4.843  -1.350  0.00  0.00    -0.190 N 
ATOM     13  C   UNL     1      -9.259  -5.949  -1.561  0.00  0.00    +0.150 A 
ATOM     14  C   UNL     1     -10.519  -5.619  -1.158  0.00  0.00    +0.114 A 
ATOM     15  N   UNL     1     -10.489  -4.338  -0.708  0.00  0.00    -0.218 NA
ATOM     16  C   UNL     1      -9.277  -3.884  -0.820  0.00  0.00    +0.199 A 
ATOM     17  S   UNL     1      -8.170  -2.515  -0.575  0.00  0.00    -0.013 S 
ATOM     18  H   UNL     1      -2.086   0.030   0.384  0.00  0.00    +0.150 HD
ENDROOT
BRANCH  14  19
ATOM     19  C   UNL     1     -11.708  -6.501  -1.204  0.00  0.00    +0.004 A 
ATOM     20  C   UNL     1     -11.859  -7.418  -2.244  0.00  0.00    +0.013 A 
ATOM     21  C   UNL     1     -12.969  -8.237  -2.283  0.00  0.00    +0.039 A 
ATOM     22  C   UNL     1     -13.932  -8.149  -1.291  0.00  0.00    +0.123 A 
ATOM     23  C   UNL     1     -13.787  -7.240  -0.256  0.00  0.00    +0.039 A 
ATOM     24  C   UNL     1     -12.678  -6.421  -0.205  0.00  0.00    +0.013 A 
ATOM     25  F   UNL     1     -15.017  -8.953  -1.333  0.00  0.00    -0.205 F 
ENDBRANCH  14  19
BRANCH   1  27
ATOM     26  C   UNL     1      -0.017   1.524   0.020  0.00  0.00    +0.027 C 
ATOM     27  C   UNL     1       0.003  -0.006   0.006  0.00  0.00    +0.068 C 
ATOM     28  C   UNL     1       0.745  -0.518   1.242  0.00  0.00    +0.027 C 
ENDBRANCH   1  27
BRANCH  13  29
ATOM     29  N   UNL     1      -8.857  -7.178  -2.091  0.00  0.00    -0.324 N 
ATOM     30  H   UNL     1      -9.502  -7.894  -2.200  0.00  0.00    +0.148 HD
BRANCH  29  31
ATOM     31  C   UNL     1      -7.460  -7.385  -2.481  0.00  0.00    +0.072 C 
ATOM     32  C   UNL     1      -6.642  -7.885  -1.272  0.00  0.00    +0.022 C 
ATOM     33  C   UNL     1      -6.632  -9.426  -1.431  0.00  0.00    +0.002 C 
ATOM     34  C   UNL     1      -6.501  -9.611  -2.963  0.00  0.00    +0.002 C 
ATOM     35  C   UNL     1      -7.370  -8.482  -3.556  0.00  0.00    +0.022 C 
ENDBRANCH  29  31
ENDBRANCH  13  29
TORSDOF 4
