REMARK  Name = ZINC09310018
REMARK  10 active torsions:
REMARK  status: ('A' for Active; 'I' for Inactive)
REMARK    1  A    between atoms: C_1  and  C_2
REMARK    2  A    between atoms: C_2  and  C_4
REMARK    3  A    between atoms: C_4  and  C_5
REMARK    4  A    between atoms: C_5  and  C_6
REMARK    5  A    between atoms: C_5  and  C_7
REMARK    6  A    between atoms: C_5  and  N_8
REMARK    7  A    between atoms: C_13  and  C_15
REMARK    8  A    between atoms: C_15  and  O_17
REMARK    9  A    between atoms: O_17  and  C_18
REMARK   10  A    between atoms: N_21  and  C_24
REMARK                            x       y       z     vdW  Elec       q    Type
REMARK                         _______ _______ _______ _____ _____    ______ ____
ROOT
ATOM      1  N   UNL     1      -2.376  -2.753   0.058  0.00  0.00    -0.236 N 
ATOM      2  C   UNL     1      -2.810  -4.123   0.274  0.00  0.00    +0.197 C 
ATOM      3  C   UNL     1      -4.097  -3.758   1.109  0.00  0.00    +0.164 C 
ATOM      4  C   UNL     1      -4.552  -2.572   0.445  0.00  0.00    +0.157 C 
ATOM      5  N   UNL     1      -3.456  -2.027  -0.069  0.00  0.00    -0.180 NA
ATOM      6  C   UNL     1      -4.436  -5.015   1.709  0.00  0.00    +0.238 C 
ATOM      7  O   UNL     1      -5.544  -5.428   1.974  0.00  0.00    -0.274 OA
ATOM      8  N   UNL     1      -3.236  -5.652   1.920  0.00  0.00    -0.207 N 
ATOM      9  C   UNL     1      -2.171  -5.007   1.301  0.00  0.00    +0.249 C 
ATOM     10  O   UNL     1      -0.987  -5.129   1.529  0.00  0.00    -0.273 OA
ENDROOT
BRANCH   8  11
ATOM     11  C   UNL     1      -3.098  -6.826   2.673  0.00  0.00    +0.058 A 
ATOM     12  C   UNL     1      -3.198  -8.065   2.054  0.00  0.00    +0.025 A 
ATOM     13  C   UNL     1      -3.062  -9.220   2.799  0.00  0.00    +0.002 A 
ATOM     14  C   UNL     1      -2.825  -9.145   4.159  0.00  0.00    +0.001 A 
ATOM     15  C   UNL     1      -2.725  -7.913   4.779  0.00  0.00    +0.017 A 
ATOM     16  C   UNL     1      -2.856  -6.753   4.038  0.00  0.00    +0.040 A 
ATOM     17 BR   UNL     1      -2.711  -5.068   4.885  0.00  0.00    -0.048 Br
ENDBRANCH   8  11
BRANCH   1  18
ATOM     18  C   UNL     1      -0.993  -2.276  -0.001  0.00  0.00    +0.054 C 
ATOM     19  C   UNL     1      -0.214  -3.094  -1.032  0.00  0.00    +0.033 C 
ATOM     20  C   UNL     1      -0.340  -2.434   1.374  0.00  0.00    +0.033 C 
BRANCH  18  21
ATOM     21  C   UNL     1      -0.979  -0.800  -0.405  0.00  0.00    +0.101 C 
BRANCH  21  23
ATOM     22  C   UNL     1       0.733   1.122  -0.842  0.00  0.00    +0.086 C 
ATOM     23  C   UNL     1       0.444  -0.309  -0.465  0.00  0.00    +0.132 C 
ATOM     24  O   UNL     1       1.354  -1.061  -0.210  0.00  0.00    -0.298 OA
ENDBRANCH  21  23
ENDBRANCH  18  21
ENDBRANCH   1  18
BRANCH   4  25
ATOM     25  C   UNL     1      -5.921  -2.071   0.358  0.00  0.00    +0.356 C 
ATOM     26  O   UNL     1      -6.828  -2.684   0.888  0.00  0.00    -0.244 OA
BRANCH  25  27
ATOM     27  O   UNL     1      -6.180  -0.928  -0.311  0.00  0.00    -0.464 OA
ATOM     28  C   UNL     1      -7.542  -0.497  -0.356  0.00  0.00    +0.280 C 
ENDBRANCH  25  27
ENDBRANCH   4  25
TORSDOF 6
