REMARK  Name = ZINC39469187
REMARK  0 active torsions:
REMARK  status: ('A' for Active; 'I' for Inactive)
REMARK                            x       y       z     vdW  Elec       q    Type
REMARK                         _______ _______ _______ _____ _____    ______ ____
ROOT
ATOM      1  C   UNL     1      -0.019   1.517   0.010  0.00  0.00    -0.003 C 
ATOM      2  C   UNL     1       1.405   2.092  -0.000  0.00  0.00    -0.020 C 
ATOM      3  C   UNL     1       1.308   3.453   0.705  0.00  0.00    +0.159 C 
ATOM      4  O   UNL     1       2.591   4.099   0.719  0.00  0.00    -0.297 OA
ATOM      5  P   UNL     1       3.855   3.233   1.268  0.00  0.00    +0.421 P 
ATOM      6  O   UNL     1       5.182   3.827   0.745  0.00  0.00    -0.239 OA
ATOM      7  N   UNL     1       3.626   1.719   0.659  0.00  0.00    -0.267 NA
ATOM      8  N   UNL     1       2.346   1.202   0.669  0.00  0.00    +0.399 N 
ATOM      9  C   UNL     1       2.487  -0.087  -0.027  0.00  0.00    -0.046 C 
ATOM     10  C   UNL     1       1.220  -0.488  -0.763  0.00  0.00    +0.007 C 
ATOM     11  C   UNL     1       0.002  -0.004   0.002  0.00  0.00    +0.017 C 
ATOM     12  C   UNL     1      -1.257  -0.543  -0.623  0.00  0.00    -0.006 C 
ATOM     13  C   UNL     1      -1.259  -1.755  -1.170  0.00  0.00    +0.045 C 
ATOM     14  C   UNL     1      -0.028  -2.567  -1.150  0.00  0.00    +0.132 C 
ATOM     15  C   UNL     1       1.147  -1.984  -0.911  0.00  0.00    +0.015 C 
ATOM     16  F   UNL     1      -0.096  -3.907  -1.305  0.00  0.00    -0.205 F 
ATOM     17  I   UNL     1      -3.002  -2.508  -2.054  0.00  0.00    -0.041 I 
ATOM     18  O   UNL     1       3.855   3.201   2.813  0.00  0.00    -0.128 OA
ATOM     19  H   UNL     1       4.373   1.207   0.312  0.00  0.00    +0.113 HD
ATOM     20  H   UNL     1       2.042   1.042   1.618  0.00  0.00    -0.055 HD
ENDROOT
TORSDOF 0
