REMARK  Name = ZINC10107916
REMARK  12 active torsions:
REMARK  status: ('A' for Active; 'I' for Inactive)
REMARK    1  A    between atoms: C_1  and  C_2
REMARK    2  A    between atoms: N_9  and  C_10
REMARK    3  A    between atoms: C_14  and  O_16
REMARK    4  A    between atoms: O_16  and  C_17
REMARK    5  A    between atoms: N_18  and  C_38
REMARK    6  A    between atoms: N_21  and  C_24
REMARK    7  A    between atoms: C_24  and  C_25
REMARK    8  A    between atoms: C_25  and  C_27
REMARK    9  A    between atoms: C_25  and  C_28
REMARK   10  A    between atoms: C_28  and  N_72
REMARK   11  A    between atoms: C_29  and  C_37
REMARK   12  A    between atoms: C_34  and  C_36
REMARK                            x       y       z     vdW  Elec       q    Type
REMARK                         _______ _______ _______ _____ _____    ______ ____
ROOT
ATOM      1  C   UNL     1       1.622   7.146   4.017  0.00  0.00    +0.065 C 
ATOM      2  C   UNL     1       1.150   7.220   2.588  0.00  0.00    +0.040 A 
ATOM      3  C   UNL     1       0.736   8.316   1.959  0.00  0.00    +0.116 A 
ATOM      4  N   UNL     1       0.382   7.970   0.666  0.00  0.00    -0.277 N 
ATOM      5  C   UNL     1      -0.105   8.446  -0.542  0.00  0.00    +0.157 A 
ATOM      6  C   UNL     1      -0.169   7.348  -1.398  0.00  0.00    +0.170 A 
ATOM      7  N   UNL     1       0.260   6.287  -0.721  0.00  0.00    -0.193 NA
ATOM      8  C   UNL     1       0.592   6.642   0.512  0.00  0.00    +0.223 A 
ATOM      9  N   UNL     1       1.075   6.160   1.702  0.00  0.00    -0.283 N 
ATOM     10  N   UNL     1      -0.629   7.537  -2.693  0.00  0.00    -0.279 N 
ATOM     11  C   UNL     1      -1.004   8.764  -3.102  0.00  0.00    +0.333 A 
ATOM     12  O   UNL     1      -1.405   8.913  -4.240  0.00  0.00    -0.246 OA
ATOM     13  N   UNL     1      -0.945   9.828  -2.283  0.00  0.00    -0.259 N 
ATOM     14  C   UNL     1      -0.507   9.707  -1.014  0.00  0.00    +0.283 A 
ATOM     15  O   UNL     1      -0.459  10.681  -0.283  0.00  0.00    -0.265 OA
ATOM     16  C   UNL     1      -0.707   6.402  -3.615  0.00  0.00    +0.155 C 
ENDROOT
BRANCH   9  17
ATOM     17  C   UNL     1       1.424   4.832   1.974  0.00  0.00    +0.053 A 
ATOM     18  C   UNL     1       0.450   3.841   1.968  0.00  0.00    +0.026 A 
ATOM     19  C   UNL     1       0.795   2.530   2.231  0.00  0.00    +0.006 A 
ATOM     20  C   UNL     1       2.108   2.201   2.511  0.00  0.00    +0.046 A 
ATOM     21  C   UNL     1       3.086   3.186   2.519  0.00  0.00    +0.122 A 
ATOM     22  C   UNL     1       2.744   4.503   2.250  0.00  0.00    +0.071 A 
BRANCH  21  23
ATOM     23  O   UNL     1       4.377   2.861   2.789  0.00  0.00    -0.495 OA
ATOM     24  C   UNL     1       4.657   1.485   3.057  0.00  0.00    +0.277 C 
ENDBRANCH  21  23
ENDBRANCH   9  17
BRANCH  13  25
ATOM     25  C   UNL     1      -1.364  11.142  -2.778  0.00  0.00    +0.131 C 
BRANCH  25  26
ATOM     26  C   UNL     1      -0.162  11.863  -3.391  0.00  0.00    -0.011 C 
ATOM     27  C   UNL     1       0.316  11.099  -4.627  0.00  0.00    +0.007 C 
BRANCH  26  28
ATOM     28  C   UNL     1      -0.570  13.282  -3.795  0.00  0.00    -0.073 C 
BRANCH  28  36
ATOM     29  C   UNL     1       0.498  15.449  -3.939  0.00  0.00    -0.071 C 
ATOM     30  C   UNL     1       1.805  16.160  -4.298  0.00  0.00    -0.016 C 
ATOM     31  C   UNL     1       2.091  15.969  -5.790  0.00  0.00    -0.003 C 
ATOM     32  C   UNL     1       2.159  14.471  -6.101  0.00  0.00    -0.016 C 
ATOM     33  C   UNL     1       0.842  13.809  -5.689  0.00  0.00    -0.071 C 
ATOM     34  C   UNL     1      -0.310  14.428  -6.484  0.00  0.00    -0.013 C 
ATOM     35  C   UNL     1       0.219  15.621  -2.444  0.00  0.00    -0.013 C 
ATOM     36  N   UNL     1       0.637  14.008  -4.239  0.00  0.00    +0.383 N 
ATOM     37  H   UNL     1       1.452  13.640  -3.734  0.00  0.00    -0.081 HD
ENDBRANCH  28  36
ENDBRANCH  26  28
ENDBRANCH  25  26
ENDBRANCH  13  25
TORSDOF 6
