REMARK  Name = ZINC48998264
REMARK  7 active torsions:
REMARK  status: ('A' for Active; 'I' for Inactive)
REMARK    1  A    between atoms: C_6  and  N_7
REMARK    2  A    between atoms: N_7  and  C_8
REMARK    3  A    between atoms: N_15  and  C1*_16
REMARK    4  A    between atoms: C2*_18  and  O2*_28
REMARK    5  A    between atoms: C3*_20  and  O3*_27
REMARK    6  A    between atoms: C4*_22  and  C5*_25
REMARK    7  A    between atoms: C5*_25  and  O5*_26
REMARK                            x       y       z     vdW  Elec       q    Type
REMARK                         _______ _______ _______ _____ _____    ______ ____
ROOT
ATOM      1  C   UNL     1      -0.017   1.386   0.010  0.00  0.00    +0.045 A 
ATOM      2  C   UNL     1       1.178   2.082   0.002  0.00  0.00    +0.115 A 
ATOM      3  N   UNL     1       2.338   1.457  -0.013  0.00  0.00    -0.236 NA
ATOM      4  C   UNL     1       2.417   0.134  -0.021  0.00  0.00    +0.164 A 
ATOM      5  C   UNL     1       1.252  -0.647  -0.013  0.00  0.00    +0.129 A 
ATOM      6  C   UNL     1       0.002  -0.004   0.002  0.00  0.00    +0.058 A 
ATOM      7  N   UNL     1       1.639  -1.948  -0.024  0.00  0.00    -0.232 NA
ATOM      8  C   UNL     1       2.938  -2.013  -0.037  0.00  0.00    +0.203 A 
ATOM      9  N   UNL     1       3.468  -0.758  -0.036  0.00  0.00    -0.286 N 
ENDROOT
BRANCH   9  10
ATOM     10  C1* UNL     1       4.893  -0.418  -0.049  0.00  0.00    +0.253 C 
ATOM     11  C2* UNL     1       5.359  -0.171  -1.499  0.00  0.00    +0.195 C 
ATOM     12  C3* UNL     1       6.768  -0.824  -1.508  0.00  0.00    +0.178 C 
ATOM     13  C4* UNL     1       6.548  -2.012  -0.539  0.00  0.00    +0.177 C 
ATOM     14  O4* UNL     1       5.658  -1.511   0.473  0.00  0.00    -0.346 OA
BRANCH  12  15
ATOM     15  O3* UNL     1       7.115  -1.282  -2.817  0.00  0.00    -0.386 OA
ATOM     16  H3* UNL     1       7.987  -1.697  -2.870  0.00  0.00    +0.210 HD
ENDBRANCH  12  15
BRANCH  11  17
ATOM     17  O2* UNL     1       4.489  -0.817  -2.431  0.00  0.00    -0.385 OA
ATOM     18  H2* UNL     1       4.740  -0.691  -3.356  0.00  0.00    +0.210 HD
ENDBRANCH  11  17
BRANCH  13  19
ATOM     19  C5* UNL     1       7.877  -2.440   0.086  0.00  0.00    +0.190 C 
BRANCH  19  20
ATOM     20  O5* UNL     1       7.673  -3.607   0.885  0.00  0.00    -0.392 OA
ATOM     21  H5* UNL     1       8.476  -3.936   1.314  0.00  0.00    +0.210 HD
ENDBRANCH  19  20
ENDBRANCH  13  19
ENDBRANCH   9  10
BRANCH   6  22
ATOM     22  N   UNL     1      -1.180  -0.736   0.010  0.00  0.00    -0.339 N 
ATOM     23  H   UNL     1      -1.151  -1.706   0.004  0.00  0.00    +0.146 HD
BRANCH  22  24
ATOM     24  C   UNL     1      -2.471  -0.043   0.026  0.00  0.00    +0.070 C 
ATOM     25  C   UNL     1      -2.896   0.247   1.480  0.00  0.00    +0.022 C 
ATOM     26  C   UNL     1      -4.431   0.042   1.476  0.00  0.00    +0.002 C 
ATOM     27  C   UNL     1      -4.611  -1.171   0.529  0.00  0.00    +0.002 C 
ATOM     28  C   UNL     1      -3.561  -0.945  -0.579  0.00  0.00    +0.022 C 
ENDBRANCH  22  24
ENDBRANCH   6  22
TORSDOF 7
