REMARK  Name = ZINC39509393
REMARK  9 active torsions:
REMARK  status: ('A' for Active; 'I' for Inactive)
REMARK    1  A    between atoms: C_1  and  C_2
REMARK    2  A    between atoms: C_2  and  C_3
REMARK    3  A    between atoms: C_2  and  S_4
REMARK    4  A    between atoms: S_4  and  N_7
REMARK    5  A    between atoms: C_9  and  S_27
REMARK    6  A    between atoms: C_15  and  S_18
REMARK    7  A    between atoms: S_18  and  C_21
REMARK    8  A    between atoms: S_27  and  O_30
REMARK    9  A    between atoms: O_30  and  C_31
REMARK                            x       y       z     vdW  Elec       q    Type
REMARK                         _______ _______ _______ _____ _____    ______ ____
ROOT
ATOM      1  N   UNL     1      -0.265   0.174   2.554  0.00  0.00    -0.173 NA
ATOM      2  C   UNL     1       0.080   1.390   3.319  0.00  0.00    +0.139 C 
ATOM      3  C   UNL     1      -0.396   1.098   4.765  0.00  0.00    +0.189 C 
ATOM      4  C   UNL     1      -1.698   0.289   4.511  0.00  0.00    +0.055 C 
ATOM      5  C   UNL     1      -1.361  -0.502   3.241  0.00  0.00    +0.046 C 
ATOM      6  C   UNL     1      -2.596  -0.636   2.333  0.00  0.00    +0.026 C 
ATOM      7  C   UNL     1      -2.311  -1.901   1.493  0.00  0.00    +0.028 C 
ATOM      8  C   UNL     1      -1.294  -2.739   2.289  0.00  0.00    +0.138 C 
ATOM      9  C   UNL     1      -0.995  -1.956   3.586  0.00  0.00    +0.050 C 
ENDROOT
BRANCH   1  10
ATOM     10  S   UNL     1       0.462  -0.330   1.154  0.00  0.00    +0.035 S 
ATOM     11  O   UNL     1       0.472   0.818   0.317  0.00  0.00    -0.158 OA
ATOM     12  O   UNL     1      -0.254  -1.497   0.774  0.00  0.00    -0.158 OA
BRANCH  10  14
ATOM     13  C   UNL     1       2.115  -1.878   2.688  0.00  0.00    +0.033 C 
ATOM     14  C   UNL     1       2.155  -0.766   1.638  0.00  0.00    +0.142 C 
ATOM     15  C   UNL     1       2.928  -1.250   0.410  0.00  0.00    +0.033 C 
ENDBRANCH  10  14
ENDBRANCH   1  10
BRANCH   8  16
ATOM     16  S   UNL     1      -2.003  -4.360   2.689  0.00  0.00    -0.000 S 
ATOM     17  O   UNL     1      -1.021  -5.188   3.295  0.00  0.00    -0.169 OA
ATOM     18  O   UNL     1      -3.284  -4.200   3.284  0.00  0.00    -0.169 OA
BRANCH  16  19
ATOM     19  C   UNL     1      -2.324  -5.112   1.128  0.00  0.00    +0.088 A 
ATOM     20  C   UNL     1      -3.545  -4.923   0.508  0.00  0.00    +0.027 A 
ATOM     21  C   UNL     1      -3.796  -5.513  -0.717  0.00  0.00    +0.002 A 
ATOM     22  C   UNL     1      -2.827  -6.291  -1.321  0.00  0.00    +0.000 A 
ATOM     23  C   UNL     1      -1.606  -6.479  -0.702  0.00  0.00    +0.002 A 
ATOM     24  C   UNL     1      -1.353  -5.885   0.521  0.00  0.00    +0.027 A 
ENDBRANCH  16  19
ENDBRANCH   8  16
BRANCH   3  25
ATOM     25  S   UNL     1      -0.751   2.638   5.655  0.00  0.00    +0.125 S 
ATOM     26  O   UNL     1      -1.722   3.399   4.950  0.00  0.00    -0.136 OA
ATOM     27  O   UNL     1      -0.904   2.377   7.044  0.00  0.00    -0.136 OA
BRANCH  25  28
ATOM     28  O   UNL     1       0.530   3.453   5.553  0.00  0.00    -0.346 OA
BRANCH  28  29
ATOM     29  C   UNL     1       1.529   3.019   6.367  0.00  0.00    +0.156 A 
ATOM     30  C   UNL     1       1.699   3.587   7.621  0.00  0.00    +0.048 A 
ATOM     31  C   UNL     1       2.714   3.143   8.446  0.00  0.00    +0.004 A 
ATOM     32  C   UNL     1       3.560   2.135   8.023  0.00  0.00    +0.000 A 
ATOM     33  C   UNL     1       3.392   1.567   6.773  0.00  0.00    +0.004 A 
ATOM     34  C   UNL     1       2.375   2.003   5.947  0.00  0.00    +0.048 A 
ENDBRANCH  28  29
ENDBRANCH  25  28
ENDBRANCH   3  25
TORSDOF 7
