REMARK  Name = ZINC61823744
REMARK  7 active torsions:
REMARK  status: ('A' for Active; 'I' for Inactive)
REMARK    1  A    between atoms: CG2_1  and  CB_2
REMARK    2  A    between atoms: CB_2  and  CA_4
REMARK    3  A    between atoms: CB_2  and  OG1_20
REMARK    4  A    between atoms: CA_4  and  C_6
REMARK    5  A    between atoms: CA_4  and  N_9
REMARK    6  A    between atoms: C_15  and  C_18
REMARK    7  A    between atoms: C_15  and  C_19
REMARK                            x       y       z     vdW  Elec       q    Type
REMARK                         _______ _______ _______ _____ _____    ______ ____
ROOT
ATOM      1  N   THR A   1       2.091   0.014  -1.268  0.00  0.00    -0.284 N 
ATOM      2  C   UNK A   0       2.749   0.154  -2.436  0.00  0.00    +0.303 C 
ATOM      3  O   UNK A   0       2.237  -0.226  -3.471  0.00  0.00    -0.253 OA
ATOM      4  N   UNK A   0       3.975   0.714  -2.455  0.00  0.00    -0.286 N 
ATOM      5  C   UNK A   0       4.657   1.067  -1.203  0.00  0.00    +0.110 C 
ATOM      6  C   UNK A   0       6.044   0.417  -1.197  0.00  0.00    +0.025 C 
ATOM      7  C   UNK A   0       6.801   0.828  -2.462  0.00  0.00    -0.032 C 
ATOM      8  C   UNK A   0       6.042   0.335  -3.696  0.00  0.00    +0.025 C 
ATOM      9  C   UNK A   0       4.657   0.978  -3.730  0.00  0.00    +0.110 C 
ATOM     10  C   UNK A   0       6.919   2.353  -2.513  0.00  0.00    +0.011 C 
ATOM     11  C   UNK A   0       8.200   0.209  -2.443  0.00  0.00    +0.011 C 
ATOM     12  H   THR A   1       2.527   0.249  -0.434  0.00  0.00    +0.151 HD
ENDROOT
BRANCH   1  13
ATOM     13  CA  THR A   1       0.716  -0.494  -1.258  0.00  0.00    +0.216 C 
BRANCH  13  14
ATOM     14  C   THR A   1       0.738  -2.001  -1.260  0.00  0.00    +0.378 C 
ATOM     15  O   THR A   1      -0.172  -2.622  -1.782  0.00  0.00    -0.244 OA
ATOM     16  OXT THR A   1       1.664  -2.598  -0.740  0.00  0.00    -0.244 OA
ENDBRANCH  13  14
BRANCH  13  18
ATOM     17  CG2 THR A   1      -0.024   1.534   0.000  0.00  0.00    +0.040 C 
ATOM     18  CB  THR A   1      -0.002   0.004  -0.002  0.00  0.00    +0.143 C 
BRANCH  18  19
ATOM     19  OG1 THR A   1      -1.343  -0.491   0.008  0.00  0.00    -0.390 OA
ATOM     20  HG1 THR A   1      -1.859  -0.214   0.777  0.00  0.00    +0.210 HD
ENDBRANCH  18  19
ENDBRANCH  13  18
ENDBRANCH   1  13
TORSDOF 4
