REMARK  Name = ZINC08849339
REMARK  4 active torsions:
REMARK  status: ('A' for Active; 'I' for Inactive)
REMARK    1  A    between atoms: C_3  and  S_8
REMARK    2  A    between atoms: S_8  and  N_11
REMARK    3  A    between atoms: C_15  and  C_17
REMARK    4  A    between atoms: C_24  and  N_56
REMARK                            x       y       z     vdW  Elec       q    Type
REMARK                         _______ _______ _______ _____ _____    ______ ____
ROOT
ATOM      1  C   UNL     1       2.700   2.144   2.080  0.00  0.00    +0.234 C 
ATOM      2  O   UNL     1       3.360   1.637   2.962  0.00  0.00    -0.274 OA
ATOM      3  N   UNL     1       2.080   1.366   1.170  0.00  0.00    -0.304 N 
ATOM      4  C   UNL     1       1.363   1.960   0.032  0.00  0.00    +0.089 C 
ATOM      5  C   UNL     1      -0.046   1.360  -0.024  0.00  0.00    -0.059 C 
ATOM      6  C   UNL     1       0.664  -0.619   1.185  0.00  0.00    -0.059 C 
ATOM      7  C   UNL     1       2.102  -0.100   1.290  0.00  0.00    +0.089 C 
ATOM      8  N   UNL     1       0.068  -0.114  -0.071  0.00  0.00    +0.385 N 
ATOM      9  H   UNL     1       0.674  -0.376  -0.857  0.00  0.00    -0.081 HD
ENDROOT
BRANCH   8  10
ATOM     10  C   UNL     1      -1.266  -0.716  -0.273  0.00  0.00    -0.046 C 
ATOM     11  C   UNL     1      -1.111  -2.236  -0.448  0.00  0.00    +0.009 C 
ATOM     12  C   UNL     1      -2.425  -2.841  -0.998  0.00  0.00    +0.164 C 
ATOM     13  S   UNL     1      -3.149  -1.440  -1.945  0.00  0.00    -0.033 S 
ATOM     14  O   UNL     1      -4.386  -1.071  -1.352  0.00  0.00    -0.174 OA
ATOM     15  O   UNL     1      -3.101  -1.745  -3.332  0.00  0.00    -0.174 OA
ATOM     16  C   UNL     1      -1.896  -0.141  -1.574  0.00  0.00    +0.151 C 
ENDBRANCH   8  10
BRANCH   1  21
ATOM     17  N   UNL     1       3.705   4.278   2.690  0.00  0.00    -0.165 NA
ATOM     18  C   UNL     1       3.181   5.082   3.813  0.00  0.00    +0.110 C 
ATOM     19  C   UNL     1       1.720   5.412   3.417  0.00  0.00    +0.019 C 
ATOM     20  C   UNL     1       1.283   4.099   2.715  0.00  0.00    +0.031 C 
ATOM     21  C   UNL     1       2.573   3.643   2.001  0.00  0.00    +0.166 C 
BRANCH  17  22
ATOM     22  S   UNL     1       5.301   4.117   2.276  0.00  0.00    +0.062 S 
ATOM     23  O   UNL     1       6.054   4.389   3.449  0.00  0.00    -0.153 OA
ATOM     24  O   UNL     1       5.414   2.891   1.565  0.00  0.00    -0.153 OA
BRANCH  22  27
ATOM     25  C   UNL     1       6.421   7.632   0.685  0.00  0.00    +0.040 A 
ATOM     26  C   UNL     1       6.128   6.624   1.584  0.00  0.00    +0.031 A 
ATOM     27  C   UNL     1       5.674   5.401   1.128  0.00  0.00    +0.106 A 
ATOM     28  C   UNL     1       5.517   5.182  -0.228  0.00  0.00    +0.031 A 
ATOM     29  C   UNL     1       5.805   6.189  -1.129  0.00  0.00    +0.040 A 
ATOM     30  C   UNL     1       6.260   7.415  -0.673  0.00  0.00    +0.124 A 
ATOM     31  F   UNL     1       6.546   8.400  -1.553  0.00  0.00    -0.205 F 
ENDBRANCH  22  27
ENDBRANCH  17  22
ENDBRANCH   1  21
TORSDOF 4
