REMARK  Name = ZINC16993574
REMARK  8 active torsions:
REMARK  status: ('A' for Active; 'I' for Inactive)
REMARK    1  A    between atoms: C_1  and  C_2
REMARK    2  A    between atoms: C_5  and  C_16
REMARK    3  A    between atoms: N_8  and  C_9
REMARK    4  A    between atoms: C_9  and  C_10
REMARK    5  A    between atoms: C_16  and  C_18
REMARK    6  A    between atoms: C_16  and  N_26
REMARK    7  A    between atoms: C_22  and  O_24
REMARK    8  A    between atoms: O_24  and  C_25
REMARK                            x       y       z     vdW  Elec       q    Type
REMARK                         _______ _______ _______ _____ _____    ______ ____
ROOT
ATOM      1  C   UNL     1       2.146  -1.550   1.334  0.00  0.00    +0.127 C 
ENDROOT
BRANCH   1   2
ATOM      2  N   UNL     1       2.613  -0.163   1.466  0.00  0.00    -0.288 NA
ATOM      3  C   UNL     1       1.837   0.560   2.482  0.00  0.00    +0.104 C 
ATOM      4  C   UNL     1       2.405   1.972   2.646  0.00  0.00    +0.122 C 
ATOM      5  N   UNL     1       2.354   2.670   1.353  0.00  0.00    -0.314 N 
ATOM      6  C   UNL     1       3.131   1.947   0.337  0.00  0.00    +0.122 C 
ATOM      7  C   UNL     1       2.563   0.535   0.173  0.00  0.00    +0.104 C 
ATOM      8  C   UNL     1       2.797   3.982   1.478  0.00  0.00    +0.099 A 
ATOM      9  C   UNL     1       2.824   4.809   0.360  0.00  0.00    +0.042 A 
ATOM     10  C   UNL     1       3.267   6.112   0.499  0.00  0.00    +0.005 A 
ATOM     11  C   UNL     1       3.668   6.546   1.756  0.00  0.00    +0.018 A 
ATOM     12  C   UNL     1       3.615   5.670   2.822  0.00  0.00    +0.084 A 
ATOM     13  N   UNL     1       3.183   4.434   2.661  0.00  0.00    -0.350 N 
ATOM     14  H   UNL     1       3.148   3.774   3.540  0.00  0.00    +0.166 HD
ENDBRANCH   1   2
BRANCH   1  19
ATOM     15  C   UNL     1       2.370  -4.113   6.492  0.00  0.00    +0.064 C 
ATOM     16  C   UNL     1       2.297  -3.447   5.142  0.00  0.00    +0.023 A 
ATOM     17  C   UNL     1       1.142  -3.482   4.444  0.00  0.00    +0.072 A 
ATOM     18  C   UNL     1       1.067  -2.861   3.181  0.00  0.00    +0.191 A 
ATOM     19  C   UNL     1       2.188  -2.224   2.680  0.00  0.00    +0.085 A 
ATOM     20  C   UNL     1       3.365  -2.221   3.439  0.00  0.00    +0.260 A 
ATOM     21  O   UNL     1       4.365  -1.668   3.009  0.00  0.00    -0.267 OA
ATOM     22  N   UNL     1       3.395  -2.821   4.643  0.00  0.00    -0.308 N 
ATOM     23  O   UNL     1      -0.084  -2.886   2.469  0.00  0.00    -0.287 OA
BRANCH  22  24
ATOM     24  C   UNL     1       4.632  -2.803   5.427  0.00  0.00    +0.160 C 
BRANCH  24  25
ATOM     25  C   UNL     1       5.519  -3.941   4.991  0.00  0.00    -0.028 A 
ATOM     26  C   UNL     1       5.514  -5.130   5.696  0.00  0.00    +0.005 A 
ATOM     27  C   UNL     1       6.324  -6.175   5.293  0.00  0.00    +0.000 A 
ATOM     28  C   UNL     1       7.147  -6.028   4.192  0.00  0.00    +0.000 A 
ATOM     29  C   UNL     1       7.156  -4.837   3.491  0.00  0.00    +0.000 A 
ATOM     30  C   UNL     1       6.342  -3.793   3.890  0.00  0.00    +0.005 A 
ENDBRANCH  24  25
ENDBRANCH  22  24
ENDBRANCH   1  19
BRANCH   1  31
ATOM     31  C   UNL     1       3.038  -2.291   0.372  0.00  0.00    -0.022 A 
ATOM     32  C   UNL     1       4.376  -1.956   0.272  0.00  0.00    +0.006 A 
ATOM     33  C   UNL     1       5.198  -2.638  -0.606  0.00  0.00    +0.004 A 
ATOM     34  C   UNL     1       4.683  -3.649  -1.393  0.00  0.00    +0.045 A 
ATOM     35  C   UNL     1       3.340  -3.984  -1.298  0.00  0.00    +0.120 A 
ATOM     36  C   UNL     1       2.518  -3.301  -0.413  0.00  0.00    +0.051 A 
BRANCH  35  37
ATOM     37  O   UNL     1       2.830  -4.978  -2.072  0.00  0.00    -0.495 OA
ATOM     38  C   UNL     1       3.735  -5.637  -2.961  0.00  0.00    +0.277 C 
ENDBRANCH  35  37
ENDBRANCH   1  31
TORSDOF 6
