REMARK  Name = ZINC25396208
REMARK  10 active torsions:
REMARK  status: ('A' for Active; 'I' for Inactive)
REMARK    1  A    between atoms: C_1  and  C_2
REMARK    2  A    between atoms: C_2  and  O_3
REMARK    3  A    between atoms: O_3  and  C_4
REMARK    4  A    between atoms: C_7  and  N_13
REMARK    5  A    between atoms: C_8  and  N_10
REMARK    6  A    between atoms: C_14  and  C_16
REMARK    7  A    between atoms: C_16  and  N_17
REMARK    8  A    between atoms: N_17  and  C_18
REMARK    9  A    between atoms: C_18  and  C_20
REMARK   10  A    between atoms: C_18  and  C_21
REMARK                            x       y       z     vdW  Elec       q    Type
REMARK                         _______ _______ _______ _____ _____    ______ ____
ROOT
ATOM      1  N   UNL     1       4.835   3.952  -0.004  0.00  0.00    -0.285 N 
ATOM      2  C   UNL     1       5.955   3.208  -0.100  0.00  0.00    +0.200 C 
ATOM      3  O   UNL     1       5.875   2.011  -0.275  0.00  0.00    -0.278 OA
ATOM      4  H   UNL     1       4.906   5.047   0.068  0.00  0.00    +0.155 HD
ENDROOT
BRANCH   1   8
ATOM      5  C   UNL     1       1.099   2.099   0.017  0.00  0.00    +0.123 A 
ATOM      6  C   UNL     1       2.182   1.483   0.627  0.00  0.00    +0.047 A 
ATOM      7  C   UNL     1       3.420   2.093   0.616  0.00  0.00    +0.029 A 
ATOM      8  C   UNL     1       3.579   3.329   0.003  0.00  0.00    +0.064 A 
ATOM      9  C   UNL     1       2.494   3.947  -0.603  0.00  0.00    +0.151 A 
ATOM     10  C   UNL     1       1.257   3.333  -0.596  0.00  0.00    +0.080 A 
BRANCH   9  11
ATOM     11  N   UNL     1       2.663   5.264  -1.257  0.00  0.00    +0.058 N 
ATOM     12  O   UNL     1       1.735   5.765  -1.867  0.00  0.00    -0.126 OA
ATOM     13  O   UNL     1       3.730   5.848  -1.186  0.00  0.00    -0.126 OA
ENDBRANCH   9  11
BRANCH   5  14
ATOM     14  O   UNL     1      -0.119   1.495   0.024  0.00  0.00    -0.492 OA
BRANCH  14  16
ATOM     15  C   UNL     1      -1.646  -0.294   0.580  0.00  0.00    +0.048 C 
ATOM     16  C   UNL     1      -0.210   0.225   0.673  0.00  0.00    +0.225 C 
ENDBRANCH  14  16
ENDBRANCH   5  14
ENDBRANCH   1   8
BRANCH   2  17
ATOM     17  C   UNL     1       7.307   3.865   0.012  0.00  0.00    +0.016 C 
BRANCH  17  18
ATOM     18  N   UNL     1       8.358   2.848  -0.124  0.00  0.00    +0.389 N 
ATOM     19  H   UNL     1       8.248   2.098   0.673  0.00  0.00    -0.084 HD
ATOM     20  H   UNL     1       8.268   2.357  -1.105  0.00  0.00    -0.084 HD
BRANCH  18  21
ATOM     21  C   UNL     1       9.693   3.453  -0.020  0.00  0.00    -0.042 C 
ATOM     22  C   UNL     1      10.120   3.984  -1.390  0.00  0.00    -0.009 C 
BRANCH  21  23
ATOM     23  C   UNL     1      10.680   2.415   0.447  0.00  0.00    -0.043 A 
ATOM     24  C   UNL     1      10.433   1.074   0.217  0.00  0.00    +0.003 A 
ATOM     25  C   UNL     1      11.339   0.121   0.646  0.00  0.00    +0.000 A 
ATOM     26  C   UNL     1      12.492   0.509   1.303  0.00  0.00    +0.001 A 
ATOM     27  C   UNL     1      12.739   1.849   1.532  0.00  0.00    +0.020 A 
ATOM     28  C   UNL     1      11.836   2.804   1.099  0.00  0.00    +0.043 A 
ATOM     29 CL   UNL     1      12.150   4.488   1.380  0.00  0.00    -0.083 Cl
ENDBRANCH  21  23
ENDBRANCH  18  21
ENDBRANCH  17  18
ENDBRANCH   2  17
TORSDOF 8
