REMARK  Name = ZINC14457245
REMARK  9 active torsions:
REMARK  status: ('A' for Active; 'I' for Inactive)
REMARK    1  A    between atoms: C_1  and  C_2
REMARK    2  A    between atoms: C_2  and  C_3
REMARK    3  A    between atoms: C_3  and  N_4
REMARK    4  A    between atoms: N_4  and  S_5
REMARK    5  A    between atoms: S_5  and  C_8
REMARK    6  A    between atoms: C_21  and  C_24
REMARK    7  A    between atoms: C_27  and  O_31
REMARK    8  A    between atoms: C_28  and  O_30
REMARK    9  A    between atoms: O_31  and  C_32
REMARK                            x       y       z     vdW  Elec       q    Type
REMARK                         _______ _______ _______ _____ _____    ______ ____
ROOT
ATOM      1  C   UNL     1       8.502   3.946   0.846  0.00  0.00    +0.106 A 
ATOM      2  C   UNL     1       7.895   5.132   1.217  0.00  0.00    +0.030 A 
ATOM      3  C   UNL     1       6.606   5.127   1.710  0.00  0.00    +0.025 A 
ATOM      4  C   UNL     1       5.908   3.932   1.837  0.00  0.00    +0.031 A 
ATOM      5  C   UNL     1       6.524   2.737   1.446  0.00  0.00    -0.018 A 
ATOM      6  C   UNL     1       7.814   2.752   0.963  0.00  0.00    +0.034 A 
ATOM      7  C   UNL     1       5.731   1.493   1.555  0.00  0.00    +0.049 C 
ATOM      8  C   UNL     1       6.371   0.167   1.750  0.00  0.00    -0.023 C 
ATOM      9  C   UNL     1       5.548  -0.601   2.453  0.00  0.00    -0.030 C 
ATOM     10  C   UNL     1       4.285   0.181   2.817  0.00  0.00    +0.033 C 
ATOM     11  C   UNL     1       4.819   1.615   2.813  0.00  0.00    +0.029 C 
ATOM     12  C   UNL     1       3.817   2.706   2.483  0.00  0.00    +0.105 C 
ATOM     13  N   UNL     1       4.608   3.950   2.356  0.00  0.00    -0.336 N 
ATOM     14  H   UNL     1       4.219   4.793   2.637  0.00  0.00    +0.147 HD
ENDROOT
BRANCH  12  15
ATOM     15  C   UNL     1       3.120   2.397   1.183  0.00  0.00    -0.023 A 
ATOM     16  C   UNL     1       3.648   2.858  -0.009  0.00  0.00    +0.009 A 
ATOM     17  C   UNL     1       3.013   2.578  -1.204  0.00  0.00    +0.050 A 
ATOM     18  C   UNL     1       1.845   1.832  -1.210  0.00  0.00    +0.161 A 
ATOM     19  C   UNL     1       1.314   1.368  -0.011  0.00  0.00    +0.159 A 
ATOM     20  C   UNL     1       1.953   1.657   1.185  0.00  0.00    +0.054 A 
BRANCH  19  21
ATOM     21  O   UNL     1       0.168   0.635  -0.011  0.00  0.00    -0.503 OA
ATOM     22  H   UNL     1       0.310  -0.318  -0.088  0.00  0.00    +0.292 HD
ENDBRANCH  19  21
BRANCH  18  23
ATOM     23  O   UNL     1       1.218   1.556  -2.385  0.00  0.00    -0.491 OA
ATOM     24  C   UNL     1       1.820   2.065  -3.577  0.00  0.00    +0.277 C 
ENDBRANCH  18  23
ENDBRANCH  12  15
BRANCH   1  25
ATOM     25  S   UNL     1      10.152   3.955   0.226  0.00  0.00    +0.058 S 
ATOM     26  O   UNL     1      10.296   2.781  -0.561  0.00  0.00    -0.153 OA
ATOM     27  O   UNL     1      10.381   5.256  -0.297  0.00  0.00    -0.153 OA
BRANCH  25  28
ATOM     28  N   UNL     1      11.164   3.782   1.525  0.00  0.00    -0.190 NA
ATOM     29  H   UNL     1      11.767   4.501   1.770  0.00  0.00    +0.148 HD
BRANCH  28  30
ATOM     30  C   UNL     1      11.148   2.542   2.306  0.00  0.00    +0.105 C 
BRANCH  30  32
ATOM     31  C   UNL     1      12.381   1.184   4.002  0.00  0.00    +0.005 C 
ATOM     32  C   UNL     1      12.397   2.479   3.188  0.00  0.00    +0.013 C 
ENDBRANCH  30  32
ENDBRANCH  28  30
ENDBRANCH  25  28
ENDBRANCH   1  25
TORSDOF 7
