REMARK  Name = ZINC39686709
REMARK  9 active torsions:
REMARK  status: ('A' for Active; 'I' for Inactive)
REMARK    1  A    between atoms: C_1  and  C_2
REMARK    2  A    between atoms: C_2  and  C_4
REMARK    3  A    between atoms: C_2  and  N_13
REMARK    4  A    between atoms: C_4  and  C_5
REMARK    5  A    between atoms: C_10  and  O_11
REMARK    6  A    between atoms: O_11  and  C_12
REMARK    7  A    between atoms: C_14  and  C_16
REMARK    8  A    between atoms: C_27  and  C_29
REMARK    9  A    between atoms: C_32  and  C_34
REMARK                            x       y       z     vdW  Elec       q    Type
REMARK                         _______ _______ _______ _____ _____    ______ ____
ROOT
ATOM      1  C   UNL     1       2.673  -1.207   1.772  0.00  0.00    +0.100 C 
ATOM      2  C   UNL     1       2.451  -2.721   1.987  0.00  0.00    +0.121 C 
ATOM      3  N   UNL     1       3.735  -3.348   1.595  0.00  0.00    -0.294 N 
ATOM      4  C   UNL     1       4.770  -2.424   2.116  0.00  0.00    +0.115 C 
ATOM      5  C   UNL     1       4.197  -1.016   1.860  0.00  0.00    -0.004 C 
ATOM      6  C   UNL     1       4.736  -0.458   0.547  0.00  0.00    -0.010 C 
ATOM      7  C   UNL     1       6.244  -0.223   0.679  0.00  0.00    -0.082 C 
ATOM      8  N   UNL     1       6.500   0.719   1.775  0.00  0.00    +0.379 N 
ATOM      9  C   UNL     1       6.061   0.136   3.049  0.00  0.00    -0.082 C 
ATOM     10  C   UNL     1       4.546  -0.085   3.017  0.00  0.00    -0.010 C 
ATOM     11  C   UNL     1       3.920  -4.499   0.919  0.00  0.00    +0.282 C 
ATOM     12  O   UNL     1       5.045  -4.928   0.744  0.00  0.00    -0.267 OA
ATOM     13  H   UNL     1       7.487   0.919   1.821  0.00  0.00    -0.086 HD
ATOM     14  H   UNL     1       5.993   1.575   1.607  0.00  0.00    -0.086 HD
ENDROOT
BRANCH  11  15
ATOM     15  C   UNL     1       2.766  -5.233   0.394  0.00  0.00    +0.190 A 
ATOM     16  C   UNL     1       2.804  -6.465  -0.223  0.00  0.00    +0.055 A 
ATOM     17  C   UNL     1       1.486  -6.787  -0.561  0.00  0.00    +0.051 A 
ATOM     18  C   UNL     1       0.699  -5.752  -0.142  0.00  0.00    +0.139 A 
ATOM     19  O   UNL     1       1.480  -4.824   0.436  0.00  0.00    -0.450 OA
BRANCH  18  20
ATOM     20  C   UNL     1      -0.767  -5.669  -0.295  0.00  0.00    +0.052 A 
ATOM     21  C   UNL     1      -1.352  -5.834  -1.552  0.00  0.00    +0.014 A 
ATOM     22  C   UNL     1      -2.722  -5.755  -1.688  0.00  0.00    +0.001 A 
ATOM     23  C   UNL     1      -3.519  -5.513  -0.582  0.00  0.00    +0.003 A 
ATOM     24  C   UNL     1      -2.949  -5.348   0.667  0.00  0.00    +0.039 A 
ATOM     25  C   UNL     1      -1.577  -5.430   0.820  0.00  0.00    +0.134 A 
ATOM     26  F   UNL     1      -1.021  -5.275   2.041  0.00  0.00    -0.205 F 
ENDBRANCH  18  20
ENDBRANCH  11  15
BRANCH   1  28
ATOM     27  N   UNL     1       1.833   0.493   0.184  0.00  0.00    -0.312 N 
ATOM     28  C   UNL     1       2.170  -0.791   0.413  0.00  0.00    +0.218 C 
ATOM     29  O   UNL     1       2.069  -1.612  -0.473  0.00  0.00    -0.275 OA
ATOM     30  H   UNL     1       1.982   1.164   0.869  0.00  0.00    +0.149 HD
BRANCH  27  32
ATOM     31  C   UNL     1       2.352   1.143  -2.116  0.00  0.00    +0.028 C 
ATOM     32  C   UNL     1       1.240   0.877  -1.099  0.00  0.00    +0.074 C 
BRANCH  32  33
ATOM     33  C   UNL     1       0.403   2.145  -0.916  0.00  0.00    +0.060 C 
BRANCH  33  34
ATOM     34  C   UNL     1      -0.786   1.840  -0.042  0.00  0.00    -0.004 A 
ATOM     35  C   UNL     1      -1.984   1.455  -0.615  0.00  0.00    +0.007 A 
ATOM     36  C   UNL     1      -3.075   1.176   0.186  0.00  0.00    +0.000 A 
ATOM     37  C   UNL     1      -2.972   1.280   1.561  0.00  0.00    +0.004 A 
ATOM     38  C   UNL     1      -1.777   1.663   2.138  0.00  0.00    +0.046 A 
ATOM     39  C   UNL     1      -0.678   1.939   1.337  0.00  0.00    +0.123 A 
BRANCH  39  40
ATOM     40  O   UNL     1       0.500   2.312   1.902  0.00  0.00    -0.495 OA
ATOM     41  C   UNL     1       0.506   2.511   3.317  0.00  0.00    +0.277 C 
ENDBRANCH  39  40
ENDBRANCH  33  34
ENDBRANCH  32  33
ENDBRANCH  27  32
ENDBRANCH   1  28
TORSDOF 7
