REMARK  Name = ZINC03418593
REMARK  6 active torsions:
REMARK  status: ('A' for Active; 'I' for Inactive)
REMARK    1  A    between atoms: C_1  and  N_2
REMARK    2  A    between atoms: N_2  and  C_3
REMARK    3  A    between atoms: N_2  and  C_4
REMARK    4  A    between atoms: C_7  and  C_10
REMARK    5  A    between atoms: C_13  and  C_25
REMARK    6  A    between atoms: C_29  and  N_31
REMARK                            x       y       z     vdW  Elec       q    Type
REMARK                         _______ _______ _______ _____ _____    ______ ____
ROOT
ATOM      1  C   UNL     1       0.511   6.462   0.024  0.00  0.00    +0.034 C 
ATOM      2  C   UNL     1      -0.339   7.682  -0.357  0.00  0.00    -0.068 C 
ATOM      3  C   UNL     1      -2.492   6.632   0.062  0.00  0.00    +0.007 C 
ATOM      4  C   UNL     1      -1.736   5.323   0.046  0.00  0.00    +0.011 A 
ATOM      5  C   UNL     1      -0.390   5.253   0.032  0.00  0.00    -0.015 A 
ATOM      6  C   UNL     1      -0.025   3.843   0.022  0.00  0.00    +0.004 A 
ATOM      7  C   UNL     1       1.186   3.146   0.008  0.00  0.00    +0.010 A 
ATOM      8  C   UNL     1       1.184   1.780   0.000  0.00  0.00    +0.001 A 
ATOM      9  C   UNL     1      -0.013   1.076   0.008  0.00  0.00    +0.002 A 
ATOM     10  C   UNL     1      -1.218   1.742   0.017  0.00  0.00    +0.026 A 
ATOM     11  C   UNL     1      -1.241   3.132   0.030  0.00  0.00    +0.047 A 
ATOM     12  N   UNL     1      -2.259   4.062   0.045  0.00  0.00    -0.359 N 
ATOM     13  H   UNL     1      -3.206   3.852   0.054  0.00  0.00    +0.166 HD
ATOM     14  N   UNL     1      -1.563   7.710   0.470  0.00  0.00    +0.388 N 
ATOM     15  H   UNL     1      -2.028   8.617   0.354  0.00  0.00    -0.084 HD
ATOM     16  H   UNL     1      -1.308   7.580   1.456  0.00  0.00    -0.084 HD
ENDROOT
BRANCH   3  17
ATOM     17  C   UNL     1      -3.626   6.551   1.052  0.00  0.00    -0.054 A 
ATOM     18  C   UNL     1      -3.377   6.714   2.402  0.00  0.00    +0.004 A 
ATOM     19  C   UNL     1      -4.418   6.645   3.309  0.00  0.00    +0.022 A 
ATOM     20  C   UNL     1      -5.706   6.403   2.867  0.00  0.00    +0.071 A 
ATOM     21  C   UNL     1      -5.953   6.234   1.516  0.00  0.00    +0.145 A 
ATOM     22  C   UNL     1      -4.912   6.309   0.609  0.00  0.00    +0.036 A 
ATOM     23 CL   UNL     1      -7.013   6.310   4.006  0.00  0.00    -0.081 Cl
BRANCH  21  24
ATOM     24  N   UNL     1      -7.331   5.975   1.042  0.00  0.00    +0.058 N 
ATOM     25  O   UNL     1      -7.548   5.828  -0.147  0.00  0.00    -0.126 OA
ATOM     26  O   UNL     1      -8.248   5.910   1.841  0.00  0.00    -0.126 OA
ENDBRANCH  21  24
ENDBRANCH   3  17
BRANCH   1  30
ATOM     27  C   UNL     1       3.634   5.923  -2.844  0.00  0.00    +0.029 A 
ATOM     28  C   UNL     1       3.946   6.142  -1.508  0.00  0.00    +0.023 A 
ATOM     29  C   UNL     1       2.935   6.316  -0.584  0.00  0.00    +0.006 A 
ATOM     30  C   UNL     1       1.613   6.272  -0.987  0.00  0.00    -0.042 A 
ATOM     31  C   UNL     1       1.298   6.048  -2.315  0.00  0.00    +0.006 A 
ATOM     32  C   UNL     1       2.305   5.879  -3.245  0.00  0.00    +0.023 A 
BRANCH  27  34
ATOM     33  C   UNL     1       6.056   5.795  -3.356  0.00  0.00    +0.129 C 
ATOM     34  N   UNL     1       4.654   5.747  -3.781  0.00  0.00    -0.336 N 
ATOM     35  C   UNL     1       4.324   5.516  -5.190  0.00  0.00    +0.129 C 
ENDBRANCH  27  34
ENDBRANCH   1  30
TORSDOF 4
