REMARK  Name = ZINC38936221
REMARK  4 active torsions:
REMARK  status: ('A' for Active; 'I' for Inactive)
REMARK    1  A    between atoms: C_4  and  C_23
REMARK    2  A    between atoms: C_5  and  C_7
REMARK    3  A    between atoms: N_8  and  N_9
REMARK    4  A    between atoms: C_10  and  C_16
REMARK                            x       y       z     vdW  Elec       q    Type
REMARK                         _______ _______ _______ _____ _____    ______ ____
ROOT
ATOM      1  N   UNL     1       2.872  -5.411  -0.325  0.00  0.00    -0.172 N 
ATOM      2  C   UNL     1       4.072  -6.042  -0.905  0.00  0.00    +0.264 C 
ATOM      3  N   UNL     1       3.594  -7.354  -1.365  0.00  0.00    -0.189 NA
ATOM      4  N   UNL     1       2.392  -7.439  -1.100  0.00  0.00    -0.219 N 
ATOM      5  C   UNL     1       1.896  -6.333  -0.481  0.00  0.00    +0.174 C 
ATOM      6  S   UNL     1       0.272  -6.137   0.023  0.00  0.00    -0.015 S 
ATOM      7  H   UNL     1       1.853  -8.218  -1.309  0.00  0.00    +0.176 HD
ENDROOT
BRANCH   2   8
ATOM      8  C   UNL     1       5.144  -6.203   0.142  0.00  0.00    -0.002 A 
ATOM      9  C   UNL     1       5.322  -5.226   1.104  0.00  0.00    +0.009 A 
ATOM     10  C   UNL     1       6.305  -5.374   2.065  0.00  0.00    +0.020 A 
ATOM     11  C   UNL     1       7.109  -6.499   2.064  0.00  0.00    +0.041 A 
ATOM     12  C   UNL     1       6.930  -7.476   1.101  0.00  0.00    +0.020 A 
ATOM     13  C   UNL     1       5.944  -7.330   0.144  0.00  0.00    +0.009 A 
ATOM     14 CL   UNL     1       8.344  -6.684   3.270  0.00  0.00    -0.084 Cl
ENDBRANCH   2   8
BRANCH   1  16
ATOM     15  C   UNL     1       2.326  -4.025   1.477  0.00  0.00    +0.139 C 
ATOM     16  N   UNL     1       2.768  -4.144   0.262  0.00  0.00    -0.183 NA
BRANCH  15  21
ATOM     17  C   UNL     1       1.527  -1.296   3.926  0.00  0.00    +0.001 A 
ATOM     18  C   UNL     1       1.690  -0.171   3.137  0.00  0.00    +0.001 A 
ATOM     19  C   UNL     1       2.059  -0.297   1.810  0.00  0.00    +0.013 A 
ATOM     20  C   UNL     1       2.267  -1.546   1.263  0.00  0.00    +0.063 A 
ATOM     21  C   UNL     1       2.105  -2.686   2.054  0.00  0.00    +0.006 A 
ATOM     22  C   UNL     1       1.732  -2.552   3.394  0.00  0.00    +0.010 A 
BRANCH  20  23
ATOM     23  C   UNL     1       2.668  -1.680  -0.183  0.00  0.00    +0.418 C 
ATOM     24  F   UNL     1       2.713  -0.413  -0.774  0.00  0.00    -0.166 F 
ATOM     25  F   UNL     1       3.931  -2.277  -0.263  0.00  0.00    -0.166 F 
ATOM     26  F   UNL     1       1.734  -2.476  -0.854  0.00  0.00    -0.166 F 
ENDBRANCH  20  23
ENDBRANCH  15  21
ENDBRANCH   1  16
TORSDOF 4
