REMARK  Name = ZINC24784482
REMARK  9 active torsions:
REMARK  status: ('A' for Active; 'I' for Inactive)
REMARK    1  A    between atoms: C_1  and  C_2
REMARK    2  A    between atoms: C_2  and  C_3
REMARK    3  A    between atoms: C_2  and  C_4
REMARK    4  A    between atoms: C_4  and  N_5
REMARK    5  A    between atoms: C_6  and  N_29
REMARK    6  A    between atoms: C_7  and  C_14
REMARK    7  A    between atoms: C_14  and  C_16
REMARK    8  A    between atoms: C_16  and  S_17
REMARK    9  A    between atoms: S_17  and  C_18
REMARK                            x       y       z     vdW  Elec       q    Type
REMARK                         _______ _______ _______ _____ _____    ______ ____
ROOT
ATOM      1  N   UNL     1       3.583   2.014   0.074  0.00  0.00    -0.281 N 
ATOM      2  C   UNL     1       2.436   1.273   0.091  0.00  0.00    +0.116 A 
ATOM      3  C   UNL     1       1.198   1.933   0.002  0.00  0.00    +0.120 A 
ATOM      4  C   UNL     1       1.207   3.398  -0.093  0.00  0.00    +0.266 A 
ATOM      5  O   UNL     1       0.164   4.022  -0.168  0.00  0.00    -0.267 OA
ATOM      6  N   UNL     1       2.394   4.038  -0.097  0.00  0.00    -0.274 N 
ATOM      7  H   UNL     1       2.427   5.136  -0.169  0.00  0.00    +0.173 HD
ATOM      8  C   UNL     1       3.546   3.353  -0.015  0.00  0.00    +0.331 A 
ATOM      9  O   UNL     1       4.595   3.968  -0.022  0.00  0.00    -0.246 OA
ENDROOT
BRANCH   2  10
ATOM     10  N   UNL     1       2.491  -0.083   0.187  0.00  0.00    -0.344 N 
ATOM     11  H   UNL     1       1.562  -0.672   0.200  0.00  0.00    +0.144 HD
ATOM     12  H   UNL     1       3.465  -0.591   0.252  0.00  0.00    +0.144 HD
ENDBRANCH   2  10
BRANCH   3  13
ATOM     13  C   UNL     1      -0.015   1.211   0.011  0.00  0.00    +0.182 C 
ATOM     14  O   UNL     1       0.002  -0.004  -0.009  0.00  0.00    -0.291 OA
BRANCH  13  15
ATOM     15  C   UNL     1      -1.329   1.946   0.040  0.00  0.00    +0.154 C 
BRANCH  15  16
ATOM     16  S   UNL     1      -2.692   0.749   0.037  0.00  0.00    -0.117 S 
BRANCH  16  17
ATOM     17  C   UNL     1      -4.141   1.752   0.072  0.00  0.00    +0.012 A 
ATOM     18  C   UNL     1      -4.026   3.136   0.100  0.00  0.00    +0.018 A 
ATOM     19  C   UNL     1      -5.160   3.926   0.121  0.00  0.00    +0.050 A 
ATOM     20  C   UNL     1      -6.412   3.334   0.127  0.00  0.00    +0.162 A 
ATOM     21  C   UNL     1      -6.530   1.952   0.105  0.00  0.00    +0.163 A 
ATOM     22  C   UNL     1      -5.397   1.157   0.078  0.00  0.00    +0.064 A 
ATOM     23  O   UNL     1      -7.770   1.381   0.110  0.00  0.00    -0.488 OA
ATOM     24  C   UNL     1      -8.522   1.530   1.315  0.00  0.00    +0.232 C 
ATOM     25  C   UNL     1      -9.259   2.861   1.330  0.00  0.00    +0.082 C 
ATOM     26  C   UNL     1      -8.308   4.048   1.355  0.00  0.00    +0.232 C 
ATOM     27  O   UNL     1      -7.538   4.106   0.153  0.00  0.00    -0.488 OA
ENDBRANCH  16  17
ENDBRANCH  15  16
ENDBRANCH  13  15
ENDBRANCH   3  13
BRANCH   1  28
ATOM     28  C   UNL     1       4.878   1.336   0.160  0.00  0.00    +0.131 C 
BRANCH  28  30
ATOM     29  C   UNL     1       4.293   0.271   2.343  0.00  0.00    +0.009 C 
ATOM     30  C   UNL     1       5.282   1.194   1.629  0.00  0.00    +0.003 C 
ATOM     31  C   UNL     1       6.689   0.599   1.716  0.00  0.00    +0.009 C 
ENDBRANCH  28  30
ENDBRANCH   1  28
TORSDOF 7
