REMARK  Name = ZINC20206253
REMARK  6 active torsions:
REMARK  status: ('A' for Active; 'I' for Inactive)
REMARK    1  A    between atoms: C_1  and  S_2
REMARK    2  A    between atoms: S_2  and  C_5
REMARK    3  A    between atoms: C_13  and  C_14
REMARK    4  A    between atoms: C_17  and  O_21
REMARK    5  A    between atoms: O_21  and  C_22
REMARK    6  A    between atoms: C_22  and  C_24
REMARK                            x       y       z     vdW  Elec       q    Type
REMARK                         _______ _______ _______ _____ _____    ______ ____
ROOT
ATOM      1  C   UNL     1      -4.529   1.997  -0.210  0.00  0.00    +0.257 C 
ATOM      2  N   UNL     1      -5.279   2.896   0.349  0.00  0.00    -0.174 NA
ATOM      3  S   UNL     1      -5.187   4.211  -0.687  0.00  0.00    +0.049 S 
ATOM      4  C   UNL     1      -4.212   3.557  -1.870  0.00  0.00    +0.183 C 
ATOM      5  N   UNL     1      -3.799   4.070  -3.007  0.00  0.00    -0.152 NA
ATOM      6  C   UNL     1      -3.059   3.318  -3.844  0.00  0.00    +0.273 C 
ATOM      7  O   UNL     1      -2.553   3.806  -4.841  0.00  0.00    -0.268 OA
ATOM      8  C   UNL     1      -2.875   1.880  -3.523  0.00  0.00    +0.078 C 
ATOM      9  C   UNL     1      -2.608   0.946  -4.498  0.00  0.00    +0.024 C 
ATOM     10  C   UNL     1      -2.994   1.505  -2.084  0.00  0.00    +0.117 C 
ATOM     11  N   UNL     1      -2.316   0.533  -1.537  0.00  0.00    -0.386 N 
ATOM     12  N   UNL     1      -3.907   2.307  -1.372  0.00  0.00    -0.203 N 
ATOM     13  H   UNL     1      -1.765  -0.045  -2.088  0.00  0.00    +0.157 HD
ATOM     14  H   UNL     1      -2.362   0.389  -0.579  0.00  0.00    +0.157 HD
ENDROOT
BRANCH   9  15
ATOM     15  C   UNL     1      -2.674   1.325  -5.912  0.00  0.00    -0.023 A 
ATOM     16  C   UNL     1      -1.727   0.827  -6.818  0.00  0.00    +0.011 A 
ATOM     17  C   UNL     1      -1.794   1.185  -8.145  0.00  0.00    +0.048 A 
ATOM     18  C   UNL     1      -2.798   2.039  -8.588  0.00  0.00    +0.150 A 
ATOM     19  C   UNL     1      -3.741   2.537  -7.694  0.00  0.00    +0.084 A 
ATOM     20  C   UNL     1      -3.688   2.180  -6.365  0.00  0.00    +0.031 A 
ATOM     21 CL   UNL     1      -4.990   3.603  -8.256  0.00  0.00    -0.080 Cl
BRANCH  18  22
ATOM     22  O   UNL     1      -2.858   2.389  -9.899  0.00  0.00    -0.421 OA
BRANCH  22  23
ATOM     23  C   UNL     1      -2.340   3.580 -10.260  0.00  0.00    +0.344 C 
ATOM     24  O   UNL     1      -1.754   4.261  -9.442  0.00  0.00    -0.245 OA
BRANCH  23  25
ATOM     25  C   UNL     1      -2.485   4.056 -11.649  0.00  0.00    +0.060 A 
ATOM     26  C   UNL     1      -3.163   3.278 -12.591  0.00  0.00    +0.018 A 
ATOM     27  C   UNL     1      -3.295   3.728 -13.886  0.00  0.00    +0.039 A 
ATOM     28  C   UNL     1      -2.756   4.950 -14.257  0.00  0.00    +0.123 A 
ATOM     29  C   UNL     1      -2.082   5.727 -13.327  0.00  0.00    +0.039 A 
ATOM     30  C   UNL     1      -1.949   5.290 -12.027  0.00  0.00    +0.018 A 
ATOM     31  F   UNL     1      -2.888   5.386 -15.529  0.00  0.00    -0.205 F 
ENDBRANCH  23  25
ENDBRANCH  22  23
ENDBRANCH  18  22
ENDBRANCH   9  15
BRANCH   1  33
ATOM     32  C   UNL     1      -2.805   0.554   1.516  0.00  0.00    +0.203 C 
ATOM     33  S   UNL     1      -4.320   0.412   0.529  0.00  0.00    +0.026 S 
ATOM     34  O   UNL     1      -4.111  -0.473  -0.563  0.00  0.00    -0.167 OA
ATOM     35  O   UNL     1      -5.447   0.257   1.381  0.00  0.00    -0.167 OA
ENDBRANCH   1  33
TORSDOF 5
