REMARK  Name = ZINC20636130
REMARK  6 active torsions:
REMARK  status: ('A' for Active; 'I' for Inactive)
REMARK    1  A    between atoms: C_1  and  C_2
REMARK    2  A    between atoms: C_2  and  C_3
REMARK    3  A    between atoms: C_3  and  C_4
REMARK    4  A    between atoms: C_5  and  C_16
REMARK    5  A    between atoms: C_9  and  C_14
REMARK    6  A    between atoms: C_10  and  N_13
REMARK                            x       y       z     vdW  Elec       q    Type
REMARK                         _______ _______ _______ _____ _____    ______ ____
ROOT
ATOM      1  C   UNL     1       2.764   3.534  -0.005  0.00  0.00    +0.073 A 
ATOM      2  C   UNL     1       1.372   3.372   0.007  0.00  0.00    +0.051 A 
ATOM      3  C   UNL     1       1.114   1.999   0.002  0.00  0.00    +0.187 A 
ATOM      4  N   UNL     1      -0.015   1.282   0.009  0.00  0.00    -0.128 NA
ATOM      5  N   UNL     1       0.002  -0.004   0.002  0.00  0.00    -0.133 NA
ATOM      6  C   UNL     1       1.155  -0.690  -0.013  0.00  0.00    +0.202 A 
ATOM      7  C   UNL     1       2.369   0.000  -0.021  0.00  0.00    +0.158 A 
ATOM      8  N   UNL     1       2.334   1.369  -0.013  0.00  0.00    -0.195 N 
ATOM      9  N   UNL     1       3.328   2.351  -0.017  0.00  0.00    -0.168 NA
ENDROOT
BRANCH   2  10
ATOM     10  C   UNL     1       0.362   4.456   0.022  0.00  0.00    -0.012 A 
ATOM     11  C   UNL     1       0.252   5.325  -1.064  0.00  0.00    +0.010 A 
ATOM     12  C   UNL     1      -0.694   6.329  -1.047  0.00  0.00    +0.020 A 
ATOM     13  C   UNL     1      -1.525   6.483   0.050  0.00  0.00    +0.041 A 
ATOM     14  C   UNL     1      -1.416   5.626   1.132  0.00  0.00    +0.020 A 
ATOM     15  C   UNL     1      -0.478   4.615   1.124  0.00  0.00    +0.010 A 
ATOM     16 CL   UNL     1      -2.708   7.753   0.067  0.00  0.00    -0.084 Cl
ENDBRANCH   2  10
BRANCH   7  17
ATOM     17  N   UNL     1       3.563  -0.673  -0.036  0.00  0.00    -0.341 N 
ATOM     18  H   UNL     1       4.510  -0.114  -0.042  0.00  0.00    +0.144 HD
ATOM     19  H   UNL     1       3.573  -1.773  -0.042  0.00  0.00    +0.144 HD
ENDBRANCH   7  17
BRANCH   6  20
ATOM     20  C   UNL     1       1.141  -2.122  -0.020  0.00  0.00    +0.124 C 
ATOM     21  N   UNL     1       1.129  -3.258  -0.025  0.00  0.00    -0.189 NA
ENDBRANCH   6  20
BRANCH   1  22
ATOM     22  C   UNL     1       3.494   4.852  -0.005  0.00  0.00    +0.058 C 
BRANCH  22  24
ATOM     23  C   UNL     1       4.495   6.629   1.438  0.00  0.00    +0.004 C 
ATOM     24  C   UNL     1       3.754   5.290   1.438  0.00  0.00    +0.003 C 
ENDBRANCH  22  24
ENDBRANCH   1  22
TORSDOF 5
