REMARK  Name = ZINC41307219
REMARK  5 active torsions:
REMARK  status: ('A' for Active; 'I' for Inactive)
REMARK    1  A    between atoms: C_6  and  C_7
REMARK    2  A    between atoms: C_7  and  C_9
REMARK    3  A    between atoms: C_7  and  C_12
REMARK    4  A    between atoms: N_17  and  C_20
REMARK    5  A    between atoms: C_23  and  N_26
REMARK                            x       y       z     vdW  Elec       q    Type
REMARK                         _______ _______ _______ _____ _____    ______ ____
ROOT
ATOM      1  C   UNL     1      -1.295  -1.599  -1.300  0.00  0.00    +0.223 C 
ATOM      2  O   UNL     1      -0.324  -1.641  -2.025  0.00  0.00    -0.275 OA
ATOM      3  N   UNL     1      -2.378  -2.352  -1.580  0.00  0.00    -0.298 N 
ATOM      4  C   UNL     1      -3.604  -2.225  -0.780  0.00  0.00    +0.126 C 
ATOM      5  C   UNL     1      -4.774  -1.915  -1.722  0.00  0.00    +0.124 C 
ATOM      6  N   UNL     1      -4.749  -2.877  -2.833  0.00  0.00    -0.327 N 
ATOM      7  C   UNL     1      -3.523  -3.004  -3.633  0.00  0.00    +0.124 C 
ATOM      8  C   UNL     1      -2.355  -3.310  -2.694  0.00  0.00    +0.126 C 
ENDROOT
BRANCH   6   9
ATOM      9  C   UNL     1      -5.871  -3.657  -3.123  0.00  0.00    +0.030 A 
ATOM     10  C   UNL     1      -6.982  -3.615  -2.290  0.00  0.00    +0.025 A 
ATOM     11  C   UNL     1      -8.090  -4.387  -2.580  0.00  0.00    +0.034 A 
ATOM     12  C   UNL     1      -8.094  -5.201  -3.698  0.00  0.00    +0.126 A 
ATOM     13  C   UNL     1      -6.990  -5.245  -4.529  0.00  0.00    +0.034 A 
ATOM     14  C   UNL     1      -5.881  -4.471  -4.248  0.00  0.00    +0.025 A 
BRANCH  12  15
ATOM     15  N   UNL     1      -9.283  -6.027  -4.005  0.00  0.00    +0.056 N 
ATOM     16  O   UNL     1     -10.249  -5.990  -3.279  0.00  0.00    -0.126 OA
ATOM     17  O   UNL     1      -9.288  -6.739  -4.982  0.00  0.00    -0.126 OA
ENDBRANCH  12  15
ENDBRANCH   6   9
BRANCH   1  18
ATOM     18  C   UNL     1      -1.291  -0.706  -0.086  0.00  0.00    +0.108 C 
BRANCH  18  24
ATOM     19  C   UNL     1      -3.056   1.037   0.247  0.00  0.00    +0.007 A 
ATOM     20  C   UNL     1      -3.641   2.248  -0.070  0.00  0.00    +0.038 A 
ATOM     21  C   UNL     1      -3.097   3.039  -1.068  0.00  0.00    +0.123 A 
ATOM     22  C   UNL     1      -1.968   2.615  -1.748  0.00  0.00    +0.038 A 
ATOM     23  C   UNL     1      -1.385   1.403  -1.429  0.00  0.00    +0.007 A 
ATOM     24  C   UNL     1      -1.928   0.615  -0.432  0.00  0.00    -0.035 A 
ATOM     25  F   UNL     1      -3.668   4.223  -1.379  0.00  0.00    -0.205 F 
ENDBRANCH  18  24
BRANCH  18  26
ATOM     26  C   UNL     1       0.150  -0.473   0.371  0.00  0.00    +0.005 C 
ATOM     27  C   UNL     1       0.548  -1.004   1.750  0.00  0.00    +0.005 C 
ATOM     28  C   UNL     1       0.375   0.500   1.530  0.00  0.00    +0.005 C 
ENDBRANCH  18  26
ENDBRANCH   1  18
TORSDOF 5
