REMARK  Name = ZINC07057286
REMARK  6 active torsions:
REMARK  status: ('A' for Active; 'I' for Inactive)
REMARK    1  A    between atoms: C_1  and  C_2
REMARK    2  A    between atoms: C_2  and  C_4
REMARK    3  A    between atoms: C_2  and  O_17
REMARK    4  A    between atoms: N_6  and  C_7
REMARK    5  A    between atoms: O_17  and  C_18
REMARK    6  A    between atoms: C_18  and  C_20
REMARK                            x       y       z     vdW  Elec       q    Type
REMARK                         _______ _______ _______ _____ _____    ______ ____
ROOT
ATOM      1  C   UNL     1      -0.019   1.526   0.010  0.00  0.00    +0.062 C 
ATOM      2  C   UNL     1       0.002  -0.004   0.002  0.00  0.00    +0.259 C 
ENDROOT
BRANCH   2   3
ATOM      3  C   UNL     1      -1.412  -0.526   0.013  0.00  0.00    +0.254 C 
ATOM      4  O   UNL     1      -1.818  -1.157   0.965  0.00  0.00    -0.272 OA
ATOM      5  N   UNL     1      -2.225  -0.290  -1.036  0.00  0.00    -0.307 N 
ATOM      6  H   UNL     1      -1.900   0.215  -1.798  0.00  0.00    +0.149 HD
BRANCH   5   7
ATOM      7  C   UNL     1      -3.599  -0.798  -1.026  0.00  0.00    +0.035 C 
ATOM      8  C   UNL     1      -4.353  -0.204   0.166  0.00  0.00    +0.029 C 
ATOM      9  C   UNL     1      -5.788  -0.734   0.177  0.00  0.00    -0.008 C 
ATOM     10  C   UNL     1      -6.490  -0.331  -1.121  0.00  0.00    +0.007 C 
ATOM     11  C   UNL     1      -5.737  -0.925  -2.313  0.00  0.00    -0.008 C 
ATOM     12  C   UNL     1      -4.301  -0.395  -2.324  0.00  0.00    +0.029 C 
ATOM     13  C   UNL     1      -5.716  -2.450  -2.196  0.00  0.00    +0.007 C 
ATOM     14  C   UNL     1      -5.014  -2.853  -0.898  0.00  0.00    -0.008 C 
ATOM     15  C   UNL     1      -5.768  -2.259   0.294  0.00  0.00    +0.007 C 
ATOM     16  C   UNL     1      -3.579  -2.323  -0.908  0.00  0.00    +0.029 C 
ENDBRANCH   5   7
ENDBRANCH   2   3
BRANCH   2  17
ATOM     17  O   UNL     1       0.693  -0.477   1.160  0.00  0.00    -0.449 OA
BRANCH  17  18
ATOM     18  C   UNL     1       2.023  -0.663   1.045  0.00  0.00    +0.340 C 
ATOM     19  O   UNL     1       2.581  -0.429  -0.009  0.00  0.00    -0.245 OA
BRANCH  18  20
ATOM     20  C   UNL     1       2.801  -1.149   2.198  0.00  0.00    +0.060 A 
ATOM     21  C   UNL     1       2.168  -1.428   3.418  0.00  0.00    +0.017 A 
ATOM     22  C   UNL     1       2.865  -1.876   4.490  0.00  0.00    +0.030 A 
ATOM     23  C   UNL     1       4.265  -2.080   4.419  0.00  0.00    +0.080 A 
ATOM     24  C   UNL     1       4.882  -1.792   3.177  0.00  0.00    +0.042 A 
ATOM     25  C   UNL     1       4.183  -1.345   2.091  0.00  0.00    +0.032 A 
ATOM     26  S   UNL     1       6.588  -2.169   3.504  0.00  0.00    -0.053 S 
ATOM     27  C   UNL     1       6.383  -2.669   5.208  0.00  0.00    +0.157 A 
ATOM     28  N   UNL     1       5.089  -2.517   5.392  0.00  0.00    -0.225 NA
ATOM     29  N   UNL     1       7.338  -3.103   6.102  0.00  0.00    -0.337 N 
ATOM     30  H   UNL     1       8.266  -3.167   5.827  0.00  0.00    +0.144 HD
ATOM     31  H   UNL     1       7.082  -3.344   7.006  0.00  0.00    +0.144 HD
ENDBRANCH  18  20
ENDBRANCH  17  18
ENDBRANCH   2  17
TORSDOF 5
