REMARK  Name = ZINC12814225
REMARK  5 active torsions:
REMARK  status: ('A' for Active; 'I' for Inactive)
REMARK    1  A    between atoms: C_1  and  N_2
REMARK    2  A    between atoms: C_3  and  C_20
REMARK    3  A    between atoms: N_5  and  C_8
REMARK    4  A    between atoms: C_8  and  N_47
REMARK    5  A    between atoms: C_12  and  C_14
REMARK                            x       y       z     vdW  Elec       q    Type
REMARK                         _______ _______ _______ _____ _____    ______ ____
ROOT
ATOM      1  C   UNL     1      -4.778   2.318   6.260  0.00  0.00    +0.153 C 
ATOM      2  N   UNL     1      -4.467   2.815   4.917  0.00  0.00    -0.306 N 
ATOM      3  C   UNL     1      -5.087   3.873   4.283  0.00  0.00    +0.163 A 
ATOM      4  N   UNL     1      -4.545   4.027   3.107  0.00  0.00    -0.152 NA
ATOM      5  N   UNL     1      -3.554   3.047   2.954  0.00  0.00    -0.257 N 
ATOM      6  C   UNL     1      -3.528   2.317   4.088  0.00  0.00    +0.176 A 
ATOM      7  S   UNL     1      -2.489   0.996   4.416  0.00  0.00    -0.011 S 
ENDROOT
BRANCH   3   8
ATOM      8  C   UNL     1      -6.178   4.699   4.846  0.00  0.00    +0.019 A 
ATOM      9  C   UNL     1      -6.977   5.473   4.003  0.00  0.00    +0.013 A 
ATOM     10  C   UNL     1      -7.997   6.236   4.532  0.00  0.00    +0.021 A 
ATOM     11  C   UNL     1      -8.221   6.244   5.899  0.00  0.00    +0.041 A 
ATOM     12  C   UNL     1      -7.428   5.483   6.740  0.00  0.00    +0.021 A 
ATOM     13  C   UNL     1      -6.409   4.711   6.221  0.00  0.00    +0.013 A 
ATOM     14 CL   UNL     1      -9.501   7.213   6.559  0.00  0.00    -0.084 Cl
ENDBRANCH   3   8
BRANCH   5  15
ATOM     15  C   UNL     1      -2.700   2.855   1.780  0.00  0.00    +0.072 C 
BRANCH  15  20
ATOM     16  C   UNL     1      -4.471   2.574   0.141  0.00  0.00    -0.075 C 
ATOM     17  C   UNL     1      -4.479   1.927  -1.266  0.00  0.00    -0.020 C 
ATOM     18  C   UNL     1      -2.962   1.760  -1.543  0.00  0.00    -0.012 C 
ATOM     19  C   UNL     1      -2.389   1.420  -0.151  0.00  0.00    -0.035 C 
ATOM     20  N   UNL     1      -3.358   1.905   0.845  0.00  0.00    +0.397 N 
ATOM     21  H   UNL     1      -3.724   1.108   1.380  0.00  0.00    -0.078 HD
BRANCH  19  22
ATOM     22  C   UNL     1      -1.056   2.096   0.034  0.00  0.00    -0.061 A 
ATOM     23  C   UNL     1      -0.936   3.457  -0.175  0.00  0.00    +0.002 A 
ATOM     24  C   UNL     1       0.287   4.078   0.001  0.00  0.00    +0.000 A 
ATOM     25  C   UNL     1       1.391   3.337   0.379  0.00  0.00    +0.000 A 
ATOM     26  C   UNL     1       1.272   1.975   0.583  0.00  0.00    +0.000 A 
ATOM     27  C   UNL     1       0.049   1.354   0.408  0.00  0.00    +0.002 A 
ENDBRANCH  19  22
ENDBRANCH  15  20
ENDBRANCH   5  15
TORSDOF 4
