REMARK  Name = ZINC43021487
REMARK  14 active torsions:
REMARK  status: ('A' for Active; 'I' for Inactive)
REMARK    1  A    between atoms: C_1  and  C_2
REMARK    2  A    between atoms: C_2  and  C_3
REMARK    3  A    between atoms: C_3  and  C_5
REMARK    4  A    between atoms: C_3  and  N_23
REMARK    5  A    between atoms: C_5  and  C_7
REMARK    6  A    between atoms: C_5  and  N_14
REMARK    7  A    between atoms: N_14  and  C_15
REMARK    8  A    between atoms: N_14  and  C_19
REMARK    9  A    between atoms: C_15  and  C_16
REMARK   10  A    between atoms: C_16  and  O_17
REMARK   11  A    between atoms: O_17  and  C_18
REMARK   12  A    between atoms: C_19  and  C_20
REMARK   13  A    between atoms: C_20  and  C_21
REMARK   14  A    between atoms: C_20  and  C_22
REMARK                            x       y       z     vdW  Elec       q    Type
REMARK                         _______ _______ _______ _____ _____    ______ ____
ROOT
ATOM      1  C   UNL     1       0.775  -1.848  -0.899  0.00  0.00    -0.052 C 
ENDROOT
BRANCH   1   2
ATOM      2  C   UNL     1       1.252  -0.419  -0.894  0.00  0.00    -0.061 A 
ATOM      3  C   UNL     1       1.500   0.223   0.305  0.00  0.00    +0.002 A 
ATOM      4  C   UNL     1       1.938   1.534   0.310  0.00  0.00    +0.001 A 
ATOM      5  C   UNL     1       2.129   2.204  -0.884  0.00  0.00    +0.015 A 
ATOM      6  C   UNL     1       1.882   1.562  -2.084  0.00  0.00    +0.018 A 
ATOM      7  C   UNL     1       1.448   0.248  -2.088  0.00  0.00    +0.017 A 
ATOM      8 BR   UNL     1       2.142   2.478  -3.718  0.00  0.00    -0.050 Br
ENDBRANCH   1   2
BRANCH   1   9
ATOM      9  N   UNL     1       1.283  -2.538   0.295  0.00  0.00    +0.385 N 
ATOM     10  H   UNL     1       2.178  -2.150   0.552  0.00  0.00    -0.081 HD
BRANCH   9  11
ATOM     11  C   UNL     1       0.336  -2.360   1.403  0.00  0.00    -0.050 C 
BRANCH  11  12
ATOM     12  C   UNL     1       0.945  -2.922   2.690  0.00  0.00    +0.141 C 
BRANCH  12  13
ATOM     13  O   UNL     1       2.095  -2.153   3.048  0.00  0.00    -0.385 OA
ATOM     14  C   UNL     1       2.743  -2.597   4.242  0.00  0.00    +0.193 C 
ENDBRANCH  12  13
ENDBRANCH  11  12
ENDBRANCH   9  11
BRANCH   9  15
ATOM     15  C   UNL     1       1.434  -3.970   0.005  0.00  0.00    -0.075 C 
BRANCH  15  16
ATOM     16  C   UNL     1       2.558  -4.168  -1.015  0.00  0.00    -0.034 C 
ATOM     17  C   UNL     1       3.890  -3.742  -0.395  0.00  0.00    +0.005 C 
ATOM     18  C   UNL     1       2.630  -5.644  -1.414  0.00  0.00    +0.005 C 
ENDBRANCH  15  16
ENDBRANCH   9  15
ENDBRANCH   1   9
BRANCH   1  19
ATOM     19  C   UNL     1      -0.755  -1.875  -0.891  0.00  0.00    -0.085 C 
BRANCH  19  20
ATOM     20  N   UNL     1      -1.264  -1.103  -2.032  0.00  0.00    +0.379 N 
ATOM     21  H   UNL     1      -0.925  -1.509  -2.891  0.00  0.00    -0.090 HD
ATOM     22  H   UNL     1      -2.273  -1.120  -2.027  0.00  0.00    -0.090 HD
ATOM     23  H   UNL     1      -0.944  -0.148  -1.962  0.00  0.00    -0.090 HD
ENDBRANCH  19  20
BRANCH  19  25
ATOM     24  C   UNL     1      -2.768  -3.354  -0.921  0.00  0.00    +0.002 C 
ATOM     25  C   UNL     1      -1.240  -3.322  -0.997  0.00  0.00    -0.021 C 
ENDBRANCH  19  25
ENDBRANCH   1  19
TORSDOF 10
