REMARK  Name = ZINC09157769
REMARK  7 active torsions:
REMARK  status: ('A' for Active; 'I' for Inactive)
REMARK    1  A    between atoms: C_1  and  C_2
REMARK    2  A    between atoms: C_7  and  S_21
REMARK    3  A    between atoms: N_11  and  C_12
REMARK    4  A    between atoms: C_12  and  C_13
REMARK    5  A    between atoms: C_18  and  O_19
REMARK    6  A    between atoms: O_19  and  C_20
REMARK    7  A    between atoms: S_21  and  N_24
REMARK                            x       y       z     vdW  Elec       q    Type
REMARK                         _______ _______ _______ _____ _____    ______ ____
ROOT
ATOM      1  C   UNL     1      -0.603   0.854   0.890  0.00  0.00    +0.028 C 
ATOM      2  C   UNL     1      -0.371   0.183  -0.465  0.00  0.00    +0.075 C 
ATOM      3  C   UNL     1       1.140   0.083  -0.777  0.00  0.00    +0.059 C 
ATOM      4  C   UNL     1       1.403   1.346  -1.572  0.00  0.00    -0.023 A 
ATOM      5  C   UNL     1       2.577   1.994  -1.899  0.00  0.00    +0.034 A 
ATOM      6  C   UNL     1       2.542   3.157  -2.646  0.00  0.00    +0.105 A 
ATOM      7  C   UNL     1       1.328   3.670  -3.066  0.00  0.00    +0.030 A 
ATOM      8  C   UNL     1       0.152   3.025  -2.745  0.00  0.00    +0.025 A 
ATOM      9  C   UNL     1       0.179   1.851  -1.994  0.00  0.00    +0.034 A 
ATOM     10  N   UNL     1      -0.874   1.031  -1.568  0.00  0.00    -0.322 N 
ENDROOT
BRANCH   6  11
ATOM     11  S   UNL     1       4.041   3.984  -3.062  0.00  0.00    +0.056 S 
ATOM     12  O   UNL     1       3.702   5.343  -3.302  0.00  0.00    -0.153 OA
ATOM     13  O   UNL     1       5.001   3.598  -2.088  0.00  0.00    -0.153 OA
BRANCH  11  14
ATOM     14  N   UNL     1       4.557   3.363  -4.508  0.00  0.00    -0.204 NA
ATOM     15  H   UNL     1       5.067   3.917  -5.119  0.00  0.00    +0.144 HD
ATOM     16  H   UNL     1       4.350   2.445  -4.743  0.00  0.00    +0.144 HD
ENDBRANCH  11  14
ENDBRANCH   6  11
BRANCH  10  17
ATOM     17  C   UNL     1      -2.023   1.835  -1.132  0.00  0.00    +0.144 C 
BRANCH  17  18
ATOM     18  C   UNL     1      -2.497   2.696  -2.275  0.00  0.00    +0.011 A 
ATOM     19  C   UNL     1      -2.604   4.064  -2.112  0.00  0.00    +0.009 A 
ATOM     20  C   UNL     1      -3.037   4.854  -3.160  0.00  0.00    +0.001 A 
ATOM     21  C   UNL     1      -3.365   4.278  -4.374  0.00  0.00    +0.004 A 
ATOM     22  C   UNL     1      -3.259   2.911  -4.542  0.00  0.00    +0.046 A 
ATOM     23  C   UNL     1      -2.819   2.116  -3.493  0.00  0.00    +0.125 A 
BRANCH  23  24
ATOM     24  O   UNL     1      -2.709   0.772  -3.658  0.00  0.00    -0.495 OA
ATOM     25  C   UNL     1      -3.059   0.244  -4.939  0.00  0.00    +0.277 C 
ENDBRANCH  23  24
ENDBRANCH  17  18
ENDBRANCH  10  17
TORSDOF 5
