REMARK  Name = ZINC57882169
REMARK  9 active torsions:
REMARK  status: ('A' for Active; 'I' for Inactive)
REMARK    1  A    between atoms: C_1  and  C_2
REMARK    2  A    between atoms: C_2  and  C_3
REMARK    3  A    between atoms: C_2  and  C_4
REMARK    4  A    between atoms: C_2  and  O_5
REMARK    5  A    between atoms: O_5  and  C_6
REMARK    6  A    between atoms: N_8  and  C_9
REMARK    7  A    between atoms: C_9  and  C_10
REMARK    8  A    between atoms: C_10  and  C_11
REMARK    9  A    between atoms: N_13  and  C_14
REMARK                            x       y       z     vdW  Elec       q    Type
REMARK                         _______ _______ _______ _____ _____    ______ ____
ROOT
ATOM      1  C   UNL     1       6.015  -0.236  -4.085  0.00  0.00    +0.219 C 
ATOM      2  O   UNL     1       6.549   0.469  -3.256  0.00  0.00    -0.275 OA
ATOM      3  N   UNL     1       6.701  -0.632  -5.176  0.00  0.00    -0.285 N 
ATOM      4  H   UNL     1       6.297  -1.248  -5.806  0.00  0.00    +0.155 HD
ENDROOT
BRANCH   3   5
ATOM      5  C   UNL     1       7.998  -0.153  -5.399  0.00  0.00    +0.048 A 
ATOM      6  C   UNL     1       8.845   0.087  -4.325  0.00  0.00    +0.025 A 
ATOM      7  C   UNL     1      10.123   0.560  -4.548  0.00  0.00    +0.017 A 
ATOM      8  C   UNL     1      10.561   0.794  -5.840  0.00  0.00    +0.019 A 
ATOM      9  C   UNL     1       9.719   0.557  -6.912  0.00  0.00    +0.032 A 
ATOM     10  C   UNL     1       8.441   0.078  -6.695  0.00  0.00    +0.040 A 
ATOM     11 BR   UNL     1       7.294  -0.255  -8.161  0.00  0.00    -0.048 Br
ATOM     12 BR   UNL     1      12.312   1.442  -6.140  0.00  0.00    -0.050 Br
ENDBRANCH   3   5
BRANCH   1  13
ATOM     13  C   UNL     1       4.584  -0.671  -3.897  0.00  0.00    +0.115 C 
BRANCH  13  14
ATOM     14  C   UNL     1       4.043  -0.089  -2.590  0.00  0.00    +0.116 C 
BRANCH  14  17
ATOM     15  C   UNL     1       1.966  -0.116  -1.316  0.00  0.00    +0.401 C 
ATOM     16  O   UNL     1       2.501   0.591  -0.485  0.00  0.00    -0.226 OA
ATOM     17  N   UNL     1       2.652  -0.511  -2.406  0.00  0.00    -0.281 N 
ATOM     18  H   UNL     1       2.225  -1.076  -3.070  0.00  0.00    +0.152 HD
BRANCH  15  19
ATOM     19  O   UNL     1       0.688  -0.504  -1.147  0.00  0.00    -0.445 OA
BRANCH  19  21
ATOM     20  C   UNL     1      -0.009   1.482   0.040  0.00  0.00    +0.055 C 
ATOM     21  C   UNL     1       0.021  -0.048   0.031  0.00  0.00    +0.107 C 
ATOM     22  C   UNL     1       0.769  -0.550   1.268  0.00  0.00    +0.055 C 
ATOM     23  C   UNL     1      -1.411  -0.586   0.048  0.00  0.00    +0.055 C 
ENDBRANCH  19  21
ENDBRANCH  15  19
ENDBRANCH  14  17
ENDBRANCH  13  14
ENDBRANCH   1  13
TORSDOF 6
