REMARK  Name = ZINC61639218
REMARK  4 active torsions:
REMARK  status: ('A' for Active; 'I' for Inactive)
REMARK    1  A    between atoms: N_9  and  C_12
REMARK    2  A    between atoms: C_12  and  C_13
REMARK    3  A    between atoms: C_17  and  N_19
REMARK    4  A    between atoms: N_19  and  N_20
REMARK                            x       y       z     vdW  Elec       q    Type
REMARK                         _______ _______ _______ _____ _____    ______ ____
ROOT
ATOM      1  C   UNL     1       3.709  -3.428  -0.053  0.00  0.00    +0.174 C 
ENDROOT
BRANCH   1  10
ATOM      2  C   UNL     1      -0.017   1.382   0.010  0.00  0.00    +0.001 A 
ATOM      3  C   UNL     1       1.165   2.099   0.002  0.00  0.00    +0.001 A 
ATOM      4  C   UNL     1       2.385   1.442  -0.013  0.00  0.00    +0.014 A 
ATOM      5  C   UNL     1       2.420   0.056  -0.021  0.00  0.00    +0.049 A 
ATOM      6  C   UNL     1       1.215  -0.675  -0.013  0.00  0.00    +0.049 A 
ATOM      7  C   UNL     1       0.002  -0.004   0.002  0.00  0.00    +0.014 A 
ATOM      8  C   UNL     1       1.606  -2.100  -0.025  0.00  0.00    +0.254 C 
ATOM      9  O   UNL     1       0.843  -3.045  -0.023  0.00  0.00    -0.270 OA
ATOM     10  N   UNL     1       2.949  -2.175  -0.039  0.00  0.00    -0.228 N 
ATOM     11  C   UNL     1       3.503  -0.949  -0.038  0.00  0.00    +0.254 C 
ATOM     12  O   UNL     1       4.693  -0.709  -0.049  0.00  0.00    -0.270 OA
ENDBRANCH   1  10
BRANCH   1  13
ATOM     13  C   UNL     1       3.955  -3.850  -1.479  0.00  0.00    +0.079 A 
ATOM     14  C   UNL     1       3.036  -4.660  -2.119  0.00  0.00    +0.064 A 
ATOM     15  C   UNL     1       3.269  -5.045  -3.433  0.00  0.00    +0.025 A 
ATOM     16  C   UNL     1       4.421  -4.601  -4.057  0.00  0.00    +0.046 A 
ATOM     17  C   UNL     1       5.302  -3.788  -3.352  0.00  0.00    +0.132 A 
ATOM     18  N   UNL     1       5.043  -3.437  -2.102  0.00  0.00    -0.233 NA
ATOM     19 CL   UNL     1       1.607  -5.190  -1.289  0.00  0.00    -0.082 Cl
BRANCH  17  20
ATOM     20  N   UNL     1       6.464  -3.335  -3.967  0.00  0.00    -0.268 N 
ATOM     21  H   UNL     1       6.657  -3.586  -4.884  0.00  0.00    +0.167 HD
BRANCH  20  22
ATOM     22  N   UNL     1       7.333  -2.536  -3.281  0.00  0.00    -0.255 NA
ATOM     23  H   UNL     1       7.631  -2.978  -2.424  0.00  0.00    +0.140 HD
ATOM     24  H   UNL     1       8.126  -2.288  -3.854  0.00  0.00    +0.140 HD
ENDBRANCH  20  22
ENDBRANCH  17  20
ENDBRANCH   1  13
TORSDOF 4
