REMARK  Name = ZINC32529551
REMARK  9 active torsions:
REMARK  status: ('A' for Active; 'I' for Inactive)
REMARK    1  A    between atoms: C_1  and  C_2
REMARK    2  A    between atoms: C_4  and  C_32
REMARK    3  A    between atoms: C_8  and  C_31
REMARK    4  A    between atoms: C_10  and  S_12
REMARK    5  A    between atoms: S_12  and  C_13
REMARK    6  A    between atoms: C_13  and  C_15
REMARK    7  A    between atoms: C_13  and  C_16
REMARK    8  A    between atoms: N_18  and  C_19
REMARK    9  A    between atoms: C_20  and  C_28
REMARK                            x       y       z     vdW  Elec       q    Type
REMARK                         _______ _______ _______ _____ _____    ______ ____
ROOT
ATOM      1  C   UNL     1       1.986   3.580   0.126  0.00  0.00    +0.231 C 
ATOM      2  O   UNL     1       1.094   4.357  -0.141  0.00  0.00    -0.274 OA
ATOM      3  N   UNL     1       3.183   4.043   0.538  0.00  0.00    -0.278 N 
ATOM      4  H   UNL     1       3.992   3.338   0.780  0.00  0.00    +0.155 HD
ENDROOT
BRANCH   3   5
ATOM      5  C   UNL     1       3.394   5.408   0.658  0.00  0.00    +0.084 A 
ATOM      6  C   UNL     1       4.543   6.070   1.067  0.00  0.00    +0.068 A 
ATOM      7  C   UNL     1       4.505   7.522   1.102  0.00  0.00    -0.023 A 
ATOM      8  C   UNL     1       3.330   8.076   0.734  0.00  0.00    -0.004 A 
ATOM      9  S   UNL     1       2.286   6.701   0.339  0.00  0.00    -0.077 S 
ATOM     10  C   UNL     1       2.997   9.535   0.678  0.00  0.00    +0.043 C 
ATOM     11  C   UNL     1       4.070  10.306   1.460  0.00  0.00    +0.005 C 
ATOM     12  C   UNL     1       5.451   9.816   1.017  0.00  0.00    +0.005 C 
ATOM     13  C   UNL     1       5.684   8.391   1.523  0.00  0.00    +0.037 C 
BRANCH   6  14
ATOM     14  C   UNL     1       5.752   5.332   1.447  0.00  0.00    +0.244 C 
ATOM     15  O   UNL     1       6.589   5.061   0.606  0.00  0.00    -0.270 OA
ATOM     16  N   UNL     1       5.936   4.952   2.727  0.00  0.00    -0.325 N 
ATOM     17  H   UNL     1       6.842   4.398   3.012  0.00  0.00    +0.145 HD
ATOM     18  H   UNL     1       5.179   5.197   3.487  0.00  0.00    +0.145 HD
ENDBRANCH   6  14
ENDBRANCH   3   5
BRANCH   1  19
ATOM     19  C   UNL     1       1.756   2.096  -0.004  0.00  0.00    +0.136 C 
ATOM     20  C   UNL     1       2.359   1.600  -1.319  0.00  0.00    +0.029 C 
BRANCH  19  21
ATOM     21  S   UNL     1      -0.022   1.758   0.012  0.00  0.00    -0.093 S 
BRANCH  21  31
ATOM     22  C   UNL     1       1.407  -6.248  -0.048  0.00  0.00    +0.044 C 
ATOM     23  C   UNL     1       1.328  -4.743  -0.038  0.00  0.00    -0.050 A 
ATOM     24  C   UNL     1       2.501  -3.993  -0.045  0.00  0.00    +0.008 A 
ATOM     25  C   UNL     1       2.464  -2.632  -0.037  0.00  0.00    -0.024 A 
ATOM     26  C   UNL     1       1.226  -1.968  -0.021  0.00  0.00    +0.075 A 
ATOM     27  C   UNL     1       0.034  -2.733  -0.014  0.00  0.00    +0.004 A 
ATOM     28  C   UNL     1       0.109  -4.135  -0.022  0.00  0.00    +0.013 A 
ATOM     29  C   UNL     1      -1.209  -2.068   0.002  0.00  0.00    -0.039 A 
ATOM     30  C   UNL     1      -1.212  -0.706   0.010  0.00  0.00    +0.038 A 
ATOM     31  C   UNL     1       0.002  -0.004   0.002  0.00  0.00    +0.099 A 
ATOM     32  N   UNL     1       1.161  -0.632  -0.018  0.00  0.00    -0.240 NA
ATOM     33  C   UNL     1      -2.501  -2.844   0.011  0.00  0.00    +0.044 C 
ATOM     34  C   UNL     1       3.747  -1.841  -0.045  0.00  0.00    +0.046 C 
ENDBRANCH  21  31
ENDBRANCH  19  21
ENDBRANCH   1  19
TORSDOF 5
