REMARK  Name = ZINC45640258
REMARK  9 active torsions:
REMARK  status: ('A' for Active; 'I' for Inactive)
REMARK    1  A    between atoms: C_1  and  C_2
REMARK    2  A    between atoms: C_5  and  C_9
REMARK    3  A    between atoms: N_11  and  C_12
REMARK    4  A    between atoms: C_12  and  C_13
REMARK    5  A    between atoms: C_13  and  N_14
REMARK    6  A    between atoms: N_17  and  C_18
REMARK    7  A    between atoms: N_17  and  C_19
REMARK    8  A    between atoms: C_19  and  C_21
REMARK    9  A    between atoms: C_19  and  C_22
REMARK                            x       y       z     vdW  Elec       q    Type
REMARK                         _______ _______ _______ _____ _____    ______ ____
ROOT
ATOM      1  N   UNL     1       0.081  -8.667   2.289  0.00  0.00    -0.298 N 
ATOM      2  C   UNL     1       0.123  -9.157   3.544  0.00  0.00    +0.302 C 
ATOM      3  O   UNL     1       0.160  -8.397   4.492  0.00  0.00    -0.253 OA
ATOM      4  N   UNL     1       0.124 -10.489   3.748  0.00  0.00    -0.282 N 
ATOM      5  C   UNL     1       0.080 -11.405   2.605  0.00  0.00    +0.134 C 
ATOM      6  H   UNL     1       0.051  -9.274   1.532  0.00  0.00    +0.150 HD
ENDROOT
BRANCH   4   7
ATOM      7  C   UNL     1       0.171 -11.022   5.112  0.00  0.00    +0.104 C 
ATOM      8  C   UNL     1       1.472 -11.801   5.311  0.00  0.00    +0.033 C 
BRANCH   7   9
ATOM      9  C   UNL     1      -1.004 -11.940   5.333  0.00  0.00    -0.027 A 
ATOM     10  C   UNL     1      -0.892 -13.006   6.205  0.00  0.00    +0.008 A 
ATOM     11  C   UNL     1      -1.969 -13.848   6.409  0.00  0.00    +0.038 A 
ATOM     12  C   UNL     1      -3.160 -13.623   5.739  0.00  0.00    +0.123 A 
ATOM     13  C   UNL     1      -3.271 -12.555   4.866  0.00  0.00    +0.038 A 
ATOM     14  C   UNL     1      -2.194 -11.711   4.667  0.00  0.00    +0.008 A 
ATOM     15  F   UNL     1      -4.213 -14.446   5.937  0.00  0.00    -0.205 F 
ENDBRANCH   7   9
ENDBRANCH   4   7
BRANCH   1  16
ATOM     16  C   UNL     1       0.079  -7.219   2.067  0.00  0.00    +0.124 C 
BRANCH  16  17
ATOM     17  C   UNL     1       0.027  -6.933   0.565  0.00  0.00    +0.123 C 
BRANCH  17  20
ATOM     18  C   UNL     1      -0.017  -4.995  -0.911  0.00  0.00    +0.244 C 
ATOM     19  O   UNL     1      -0.054  -5.755  -1.859  0.00  0.00    -0.270 OA
ATOM     20  N   UNL     1       0.025  -5.485   0.344  0.00  0.00    -0.310 N 
ATOM     21  H   UNL     1       0.055  -4.879   1.100  0.00  0.00    +0.149 HD
BRANCH  18  26
ATOM     22  C   UNL     1      -0.026   0.694  -1.787  0.00  0.00    +0.047 C 
ATOM     23  C   UNL     1      -0.024  -0.795  -1.557  0.00  0.00    -0.015 A 
ATOM     24  C   UNL     1      -0.065  -1.659  -2.637  0.00  0.00    +0.007 A 
ATOM     25  C   UNL     1      -0.063  -3.024  -2.434  0.00  0.00    +0.013 A 
ATOM     26  C   UNL     1      -0.019  -3.534  -1.135  0.00  0.00    +0.039 A 
ATOM     27  C   UNL     1       0.023  -2.659  -0.049  0.00  0.00    +0.051 A 
ATOM     28  C   UNL     1       0.026  -1.294  -0.265  0.00  0.00    +0.127 A 
ATOM     29  F   UNL     1       0.072  -0.445   0.784  0.00  0.00    -0.205 F 
ENDBRANCH  18  26
ENDBRANCH  17  20
ENDBRANCH  16  17
ENDBRANCH   1  16
TORSDOF 6
