REMARK  Name = ZINC13065594
REMARK  11 active torsions:
REMARK  status: ('A' for Active; 'I' for Inactive)
REMARK    1  A    between atoms: C_1  and  C_2
REMARK    2  A    between atoms: C_9  and  C_14
REMARK    3  A    between atoms: C_14  and  N_63
REMARK    4  A    between atoms: C_15  and  C_16
REMARK    5  A    between atoms: C_15  and  N_63
REMARK    6  A    between atoms: C_16  and  C_17
REMARK    7  A    between atoms: C_22  and  C_23
REMARK    8  A    between atoms: C_24  and  C_25
REMARK    9  A    between atoms: C_24  and  N_63
REMARK   10  A    between atoms: N_29  and  C_30
REMARK   11  A    between atoms: C_30  and  C_31
REMARK                            x       y       z     vdW  Elec       q    Type
REMARK                         _______ _______ _______ _____ _____    ______ ____
ROOT
ATOM      1  N   UNL     1       2.054   4.065   1.260  0.00  0.00    +0.387 N 
ATOM      2  H   UNL     1       2.635   3.598   1.966  0.00  0.00    -0.081 HD
ENDROOT
BRANCH   1   3
ATOM      3  C   UNL     1       2.611   5.409   0.994  0.00  0.00    -0.037 C 
BRANCH   3  12
ATOM      4  C   UNL     1       6.759   7.445   6.848  0.00  0.00    +0.044 C 
ATOM      5  C   UNL     1       5.453   7.455   6.095  0.00  0.00    -0.050 A 
ATOM      6  C   UNL     1       4.365   8.145   6.613  0.00  0.00    +0.005 A 
ATOM      7  C   UNL     1       3.162   8.167   5.942  0.00  0.00    +0.026 A 
ATOM      8  C   UNL     1       3.033   7.490   4.734  0.00  0.00    +0.049 A 
ATOM      9  C   UNL     1       4.138   6.792   4.212  0.00  0.00    -0.001 A 
ATOM     10  C   UNL     1       5.350   6.783   4.910  0.00  0.00    +0.013 A 
ATOM     11  C   UNL     1       3.993   6.083   2.939  0.00  0.00    +0.017 A 
ATOM     12  C   UNL     1       2.794   6.127   2.306  0.00  0.00    +0.001 A 
ATOM     13  C   UNL     1       1.719   6.847   2.870  0.00  0.00    +0.251 A 
ATOM     14  O   UNL     1       0.651   6.878   2.282  0.00  0.00    -0.268 OA
ATOM     15  N   UNL     1       1.841   7.496   4.041  0.00  0.00    -0.322 N 
ATOM     16  H   UNL     1       1.081   7.979   4.402  0.00  0.00    +0.169 HD
ENDBRANCH   3  12
ENDBRANCH   1   3
BRANCH   1  17
ATOM     17  C   UNL     1       0.674   4.183   1.775  0.00  0.00    -0.073 C 
BRANCH  17  18
ATOM     18  C   UNL     1       0.183   2.796   2.194  0.00  0.00    +0.017 C 
BRANCH  18  19
ATOM     19  C   UNL     1      -1.207   2.906   2.765  0.00  0.00    -0.046 A 
ATOM     20  C   UNL     1      -1.386   3.032   4.130  0.00  0.00    +0.004 A 
ATOM     21  C   UNL     1      -2.661   3.139   4.653  0.00  0.00    +0.000 A 
ATOM     22  C   UNL     1      -3.758   3.109   3.812  0.00  0.00    +0.000 A 
ATOM     23  C   UNL     1      -3.579   2.978   2.448  0.00  0.00    +0.003 A 
ATOM     24  C   UNL     1      -2.304   2.877   1.924  0.00  0.00    -0.047 A 
ATOM     25  C   UNL     1      -2.109   2.733   0.437  0.00  0.00    +0.044 C 
ENDBRANCH  18  19
ENDBRANCH  17  18
ENDBRANCH   1  17
BRANCH   1  26
ATOM     26  C   UNL     1       2.064   3.260   0.020  0.00  0.00    +0.001 C 
BRANCH  26  27
ATOM     27  C   UNL     1       3.494   3.004  -0.382  0.00  0.00    +0.136 A 
ATOM     28  N   UNL     1       4.254   3.785  -1.110  0.00  0.00    -0.115 NA
ATOM     29  N   UNL     1       5.405   3.218  -1.232  0.00  0.00    -0.023 NA
ATOM     30  N   UNL     1       5.398   2.095  -0.602  0.00  0.00    -0.044 NA
ATOM     31  N   UNL     1       4.237   1.927  -0.064  0.00  0.00    -0.224 N 
BRANCH  31  32
ATOM     32  C   UNL     1       3.807   0.779   0.737  0.00  0.00    +0.221 C 
BRANCH  32  33
ATOM     33  C   UNL     1       4.254   0.965   2.164  0.00  0.00    +0.126 A 
ATOM     34  C   UNL     1       3.513   1.488   3.158  0.00  0.00    +0.046 A 
ATOM     35  C   UNL     1       4.319   1.472   4.320  0.00  0.00    +0.041 A 
ATOM     36  C   UNL     1       5.506   0.949   3.964  0.00  0.00    +0.195 A 
ATOM     37  O   UNL     1       5.461   0.644   2.657  0.00  0.00    -0.466 OA
ENDBRANCH  32  33
ENDBRANCH  31  32
ENDBRANCH  26  27
ENDBRANCH   1  26
TORSDOF 9
