REMARK  Name = ZINC62048767
REMARK  10 active torsions:
REMARK  status: ('A' for Active; 'I' for Inactive)
REMARK    1  A    between atoms: C_1  and  N_2
REMARK    2  A    between atoms: N_2  and  C_3
REMARK    3  A    between atoms: N_2  and  C_4
REMARK    4  A    between atoms: C_4  and  C_6
REMARK    5  A    between atoms: C_4  and  C_23
REMARK    6  A    between atoms: C_6  and  N_7
REMARK    7  A    between atoms: C_15  and  S_17
REMARK    8  A    between atoms: S_17  and  C_18
REMARK    9  A    between atoms: C_26  and  O_29
REMARK   10  A    between atoms: O_29  and  C_30
REMARK                            x       y       z     vdW  Elec       q    Type
REMARK                         _______ _______ _______ _____ _____    ______ ____
ROOT
ATOM      1  N   UNL     1      -1.766   1.531  -1.169  0.00  0.00    -0.330 N 
ATOM      2  C   UNL     1      -2.273   2.282  -2.214  0.00  0.00    +0.132 A 
ATOM      3  C   UNL     1      -1.921   3.655  -2.351  0.00  0.00    +0.051 A 
ATOM      4  C   UNL     1      -1.046   4.464  -1.500  0.00  0.00    -0.025 A 
ATOM      5  C   UNL     1      -0.875   5.754  -1.851  0.00  0.00    -0.004 A 
ATOM      6  S   UNL     1      -1.853   5.970  -3.313  0.00  0.00    -0.073 S 
ATOM      7  C   UNL     1      -2.494   4.322  -3.452  0.00  0.00    +0.115 A 
ATOM      8  N   UNL     1      -3.302   3.703  -4.291  0.00  0.00    -0.215 NA
ATOM      9  C   UNL     1      -3.595   2.422  -4.115  0.00  0.00    +0.191 A 
ATOM     10  N   UNL     1      -3.085   1.732  -3.101  0.00  0.00    -0.206 NA
ATOM     11  C   UNL     1      -0.038   6.782  -1.151  0.00  0.00    +0.043 C 
ATOM     12  C   UNL     1       0.311   6.253   0.247  0.00  0.00    +0.005 C 
ATOM     13  C   UNL     1       0.811   4.811   0.115  0.00  0.00    +0.005 C 
ATOM     14  C   UNL     1      -0.350   3.892  -0.268  0.00  0.00    +0.037 C 
ATOM     15  H   UNL     1      -1.234   1.957  -0.480  0.00  0.00    +0.147 HD
ENDROOT
BRANCH   9  16
ATOM     16  S   UNL     1      -4.677   1.618  -5.250  0.00  0.00    -0.089 S 
ATOM     17  C   UNL     1      -5.107   2.917  -6.440  0.00  0.00    +0.093 C 
ENDBRANCH   9  16
BRANCH   1  18
ATOM     18  C   UNL     1      -2.034   0.092  -1.105  0.00  0.00    +0.092 C 
BRANCH  18  19
ATOM     19  C   UNL     1      -1.264  -0.517   0.070  0.00  0.00    -0.021 C 
BRANCH  19  20
ATOM     20  C   UNL     1      -1.805   0.035   1.364  0.00  0.00    -0.059 A 
ATOM     21  C   UNL     1      -2.966  -0.486   1.905  0.00  0.00    +0.005 A 
ATOM     22  C   UNL     1      -3.463   0.018   3.091  0.00  0.00    +0.046 A 
ATOM     23  C   UNL     1      -2.796   1.047   3.740  0.00  0.00    +0.120 A 
ATOM     24  C   UNL     1      -1.632   1.568   3.195  0.00  0.00    +0.046 A 
ATOM     25  C   UNL     1      -1.135   1.057   2.011  0.00  0.00    +0.005 A 
BRANCH  23  26
ATOM     26  O   UNL     1      -3.284   1.545   4.907  0.00  0.00    -0.495 OA
ATOM     27  C   UNL     1      -2.546   2.604   5.519  0.00  0.00    +0.277 C 
ENDBRANCH  23  26
ENDBRANCH  19  20
BRANCH  19  29
ATOM     28  C   UNL     1      -0.807  -2.525  -1.160  0.00  0.00    -0.096 C 
ATOM     29  N   UNL     1      -1.424  -1.977   0.055  0.00  0.00    +0.382 N 
ATOM     30  C   UNL     1      -0.771  -2.553   1.238  0.00  0.00    -0.096 C 
ATOM     31  H   UNL     1      -2.406  -2.208   0.067  0.00  0.00    -0.082 HD
ENDBRANCH  19  29
ENDBRANCH  18  19
ENDBRANCH   1  18
TORSDOF 6
