REMARK  Name = ZINC01825881
REMARK  17 active torsions:
REMARK  status: ('A' for Active; 'I' for Inactive)
REMARK    1  A    between atoms: C_1  and  C_2
REMARK    2  A    between atoms: C_2  and  C_3
REMARK    3  A    between atoms: C_3  and  O_4
REMARK    4  A    between atoms: O_4  and  C_5
REMARK    5  A    between atoms: C_8  and  C_14
REMARK    6  A    between atoms: C_10  and  O_11
REMARK    7  A    between atoms: O_11  and  C_12
REMARK    8  A    between atoms: C_12  and  C_13
REMARK    9  A    between atoms: C_23  and  C_31
REMARK   10  A    between atoms: C_24  and  N_30
REMARK   11  A    between atoms: C_25  and  C_26
REMARK   12  A    between atoms: C_25  and  C_28
REMARK   13  A    between atoms: C_33  and  O_35
REMARK   14  A    between atoms: O_35  and  C_36
REMARK   15  A    between atoms: C_36  and  C_37
REMARK   16  A    between atoms: C_36  and  C_38
REMARK   17  A    between atoms: C_36  and  C_39
REMARK                            x       y       z     vdW  Elec       q    Type
REMARK                         _______ _______ _______ _____ _____    ______ ____
ROOT
ATOM      1  C   UNL     1      -1.386   4.206   1.920  0.00  0.00    +0.068 C 
ATOM      2  C   UNL     1      -2.337   3.686   0.841  0.00  0.00    +0.048 C 
ATOM      3  C   UNL     1      -1.592   3.207  -0.384  0.00  0.00    +0.120 C 
ATOM      4  N   UNL     1      -1.552   1.742  -0.442  0.00  0.00    -0.263 N 
ATOM      5  C   UNL     1      -2.840   1.030  -0.346  0.00  0.00    +0.138 C 
ATOM      6  C   UNL     1      -3.496   1.480   0.940  0.00  0.00    -0.003 C 
ATOM      7  C   UNL     1      -3.242   2.664   1.461  0.00  0.00    -0.026 C 
ATOM      8  C   UNL     1      -3.843   3.013   2.776  0.00  0.00    +0.074 C 
ATOM      9  C   UNL     1      -3.337   4.054   3.483  0.00  0.00    +0.054 C 
ATOM     10  C   UNL     1      -2.204   4.909   3.004  0.00  0.00    +0.188 C 
ATOM     11  C   UNL     1      -0.390   1.076  -0.583  0.00  0.00    +0.404 C 
ATOM     12  O   UNL     1       0.663   1.683  -0.581  0.00  0.00    -0.226 OA
ENDROOT
BRANCH   1  16
ATOM     13  C   UNL     1       0.764   0.929   3.633  0.00  0.00    +0.162 A 
ATOM     14  C   UNL     1       1.327   1.670   2.606  0.00  0.00    +0.050 A 
ATOM     15  C   UNL     1       0.629   2.728   2.054  0.00  0.00    +0.008 A 
ATOM     16  C   UNL     1      -0.630   3.051   2.525  0.00  0.00    -0.037 A 
ATOM     17  C   UNL     1      -1.195   2.319   3.553  0.00  0.00    +0.053 A 
ATOM     18  C   UNL     1      -0.503   1.254   4.107  0.00  0.00    +0.162 A 
BRANCH  13  19
ATOM     19  O   UNL     1       1.448  -0.112   4.176  0.00  0.00    -0.488 OA
BRANCH  19  20
ATOM     20  C   UNL     1       2.787  -0.318   3.720  0.00  0.00    +0.229 C 
BRANCH  20  22
ATOM     21  C   UNL     1       4.782  -1.816   3.858  0.00  0.00    +0.007 C 
ATOM     22  C   UNL     1       3.349  -1.595   4.347  0.00  0.00    +0.038 C 
ENDBRANCH  20  22
ENDBRANCH  19  20
ENDBRANCH  13  19
BRANCH  18  23
ATOM     23  O   UNL     1      -1.060   0.530   5.115  0.00  0.00    -0.489 OA
BRANCH  23  24
ATOM     24  C   UNL     1      -2.364   0.921   5.551  0.00  0.00    +0.226 C 
ATOM     25  C   UNL     1      -2.821  -0.002   6.682  0.00  0.00    +0.048 C 
ENDBRANCH  23  24
ENDBRANCH  18  23
ENDBRANCH   1  16
BRANCH   9  26
ATOM     26  N   UNL     1      -3.892   4.340   4.699  0.00  0.00    -0.358 N 
ATOM     27  H   UNL     1      -3.505   5.178   5.297  0.00  0.00    +0.142 HD
ATOM     28  H   UNL     1      -4.726   3.731   5.080  0.00  0.00    +0.142 HD
ENDBRANCH   9  26
BRANCH  10  29
ATOM     29  C   UNL     1      -1.324   5.224   4.141  0.00  0.00    +0.091 C 
ATOM     30  N   UNL     1      -0.646   5.466   5.019  0.00  0.00    -0.194 NA
ENDBRANCH  10  29
BRANCH  10  31
ATOM     31  C   UNL     1      -2.746   6.164   2.457  0.00  0.00    +0.091 C 
ATOM     32  N   UNL     1      -3.165   7.132   2.035  0.00  0.00    -0.194 NA
ENDBRANCH  10  31
BRANCH   8  33
ATOM     33  C   UNL     1      -4.944   2.256   3.292  0.00  0.00    +0.101 C 
ATOM     34  N   UNL     1      -5.817   1.655   3.701  0.00  0.00    -0.191 NA
ENDBRANCH   8  33
BRANCH  11  35
ATOM     35  O   UNL     1      -0.394  -0.262  -0.732  0.00  0.00    -0.445 OA
BRANCH  35  36
ATOM     36  C   UNL     1       0.879  -0.898  -1.020  0.00  0.00    +0.107 C 
ATOM     37  C   UNL     1       1.829  -0.697   0.163  0.00  0.00    +0.055 C 
ATOM     38  C   UNL     1       0.661  -2.395  -1.250  0.00  0.00    +0.055 C 
ATOM     39  C   UNL     1       1.489  -0.272  -2.276  0.00  0.00    +0.055 C 
ENDBRANCH  35  36
ENDBRANCH  11  35
TORSDOF 12
