REMARK  Name = ZINC40780416
REMARK  3 active torsions:
REMARK  status: ('A' for Active; 'I' for Inactive)
REMARK    1  A    between atoms: C_12  and  N_25
REMARK    2  A    between atoms: C_13  and  N_17
REMARK    3  A    between atoms: N_17  and  C_18
REMARK                            x       y       z     vdW  Elec       q    Type
REMARK                         _______ _______ _______ _____ _____    ______ ____
ROOT
ATOM      1  C   UNL     1       2.419   0.628   4.889  0.00  0.00    +0.000 A 
ATOM      2  C   UNL     1       3.695   0.982   4.488  0.00  0.00    +0.002 A 
ATOM      3  C   UNL     1       4.116   0.702   3.204  0.00  0.00    +0.024 A 
ATOM      4  C   UNL     1       3.258   0.064   2.314  0.00  0.00    +0.038 A 
ATOM      5  C   UNL     1       1.981  -0.293   2.717  0.00  0.00    -0.026 A 
ATOM      6  C   UNL     1       1.566  -0.007   4.007  0.00  0.00    +0.005 A 
ATOM      7  C   UNL     1       1.029  -0.995   1.784  0.00  0.00    +0.038 C 
ATOM      8  C   UNL     1       1.444  -0.773   0.330  0.00  0.00    +0.024 C 
ATOM      9  C   UNL     1       2.928  -1.133   0.177  0.00  0.00    +0.113 C 
ATOM     10  N   UNL     1       3.703  -0.206   1.014  0.00  0.00    -0.285 N 
ATOM     11  C   UNL     1       4.858   0.392   0.524  0.00  0.00    +0.129 A 
ATOM     12  C   UNL     1       4.793   1.611  -0.153  0.00  0.00    +0.104 A 
ATOM     13  C   UNL     1       5.983   2.168  -0.625  0.00  0.00    +0.149 A 
ATOM     14  N   UNL     1       7.126   1.520  -0.413  0.00  0.00    -0.221 NA
ATOM     15  C   UNL     1       7.144   0.370   0.230  0.00  0.00    +0.200 A 
ATOM     16  N   UNL     1       6.044  -0.186   0.697  0.00  0.00    -0.332 N 
ATOM     17  H   UNL     1       6.100  -1.032   1.169  0.00  0.00    +0.168 HD
ENDROOT
BRANCH  12  18
ATOM     18  N   UNL     1       3.564   2.260  -0.354  0.00  0.00    -0.353 N 
ATOM     19  H   UNL     1       2.758   1.910   0.057  0.00  0.00    +0.143 HD
ATOM     20  H   UNL     1       3.521   3.058  -0.904  0.00  0.00    +0.143 HD
ENDBRANCH  12  18
BRANCH  13  21
ATOM     21  N   UNL     1       5.974   3.380  -1.306  0.00  0.00    -0.295 N 
ATOM     22  H   UNL     1       5.131   3.802  -1.535  0.00  0.00    +0.154 HD
BRANCH  21  23
ATOM     23  C   UNL     1       7.181   3.992  -1.660  0.00  0.00    +0.070 A 
ATOM     24  C   UNL     1       8.370   3.620  -1.040  0.00  0.00    +0.028 A 
ATOM     25  C   UNL     1       9.540   4.255  -1.425  0.00  0.00    +0.022 A 
ATOM     26  C   UNL     1       9.490   5.228  -2.405  0.00  0.00    +0.112 A 
ATOM     27  N   UNL     1       8.347   5.559  -2.974  0.00  0.00    -0.242 NA
ATOM     28  C   UNL     1       7.211   4.977  -2.641  0.00  0.00    +0.150 A 
ATOM     29 CL   UNL     1       5.739   5.449  -3.432  0.00  0.00    -0.060 Cl
ENDBRANCH  21  23
ENDBRANCH  13  21
TORSDOF 3
