REMARK  Name = ZINC46355160
REMARK  10 active torsions:
REMARK  status: ('A' for Active; 'I' for Inactive)
REMARK    1  A    between atoms: C_1  and  C_2
REMARK    2  A    between atoms: C_2  and  C_4
REMARK    3  A    between atoms: C_2  and  N_18
REMARK    4  A    between atoms: N_6  and  C_7
REMARK    5  A    between atoms: C_12  and  N_13
REMARK    6  A    between atoms: C_19  and  O_21
REMARK    7  A    between atoms: O_21  and  C_22
REMARK    8  A    between atoms: C_22  and  C_23
REMARK    9  A    between atoms: C_22  and  C_24
REMARK   10  A    between atoms: C_22  and  C_25
REMARK                            x       y       z     vdW  Elec       q    Type
REMARK                         _______ _______ _______ _____ _____    ______ ____
ROOT
ATOM      1  C   UNL     1       0.731  -0.502   1.223  0.00  0.00    +0.237 C 
ATOM      2  O   UNL     1       1.731  -1.177   1.099  0.00  0.00    -0.273 OA
ATOM      3  N   UNL     1       0.277  -0.191   2.453  0.00  0.00    -0.282 N 
ATOM      4  H   UNL     1      -0.475   0.413   2.554  0.00  0.00    +0.155 HD
ENDROOT
BRANCH   3   5
ATOM      5  C   UNL     1       0.891  -0.739   3.585  0.00  0.00    +0.059 A 
ATOM      6  C   UNL     1       1.575  -1.943   3.492  0.00  0.00    +0.025 A 
ATOM      7  C   UNL     1       2.180  -2.482   4.611  0.00  0.00    +0.002 A 
ATOM      8  C   UNL     1       2.108  -1.825   5.826  0.00  0.00    +0.002 A 
ATOM      9  C   UNL     1       1.429  -0.625   5.928  0.00  0.00    +0.030 A 
ATOM     10  C   UNL     1       0.823  -0.074   4.809  0.00  0.00    +0.088 A 
BRANCH  10  11
ATOM     11  N   UNL     1       0.139   1.146   4.909  0.00  0.00    -0.218 N 
ATOM     12  C   UNL     1       0.071   1.948   5.989  0.00  0.00    +0.225 A 
ATOM     13  N   UNL     1      -0.661   2.987   5.678  0.00  0.00    -0.222 NA
ATOM     14  C   UNL     1      -1.076   2.885   4.415  0.00  0.00    +0.245 A 
ATOM     15  N   UNL     1      -0.607   1.778   3.901  0.00  0.00    -0.153 NA
ENDBRANCH  10  11
ENDBRANCH   3   5
BRANCH   1  17
ATOM     16  C   UNL     1      -0.039   1.517   0.007  0.00  0.00    +0.038 C 
ATOM     17  C   UNL     1      -0.004  -0.013   0.002  0.00  0.00    +0.159 C 
BRANCH  17  18
ATOM     18  N   UNL     1       0.684  -0.482  -1.203  0.00  0.00    -0.270 N 
ATOM     19  C   UNL     1       0.001  -0.622  -2.357  0.00  0.00    +0.401 C 
ATOM     20  O   UNL     1      -1.184  -0.360  -2.397  0.00  0.00    -0.226 OA
ATOM     21  H   UNL     1       1.630  -0.691  -1.171  0.00  0.00    +0.153 HD
BRANCH  19  22
ATOM     22  O   UNL     1       0.634  -1.053  -3.465  0.00  0.00    -0.445 OA
BRANCH  22  23
ATOM     23  C   UNL     1      -0.151  -1.179  -4.652  0.00  0.00    +0.107 C 
ATOM     24  C   UNL     1      -0.742   0.184  -5.020  0.00  0.00    +0.055 C 
ATOM     25  C   UNL     1       0.733  -1.677  -5.797  0.00  0.00    +0.055 C 
ATOM     26  C   UNL     1      -1.285  -2.177  -4.411  0.00  0.00    +0.055 C 
ENDBRANCH  22  23
ENDBRANCH  19  22
ENDBRANCH  17  18
ENDBRANCH   1  17
TORSDOF 6
