REMARK  Name = ZINC16875112
REMARK  11 active torsions:
REMARK  status: ('A' for Active; 'I' for Inactive)
REMARK    1  A    between atoms: C_1  and  C_2
REMARK    2  A    between atoms: C_2  and  O_3
REMARK    3  A    between atoms: O_3  and  C_4
REMARK    4  A    between atoms: C_9  and  O_10
REMARK    5  A    between atoms: O_10  and  C_11
REMARK    6  A    between atoms: C_11  and  C_12
REMARK    7  A    between atoms: C_16  and  N_17
REMARK    8  A    between atoms: C_16  and  N_64
REMARK    9  A    between atoms: N_20  and  C_32
REMARK   10  A    between atoms: C_21  and  C_23
REMARK   11  A    between atoms: C_23  and  C_24
REMARK                            x       y       z     vdW  Elec       q    Type
REMARK                         _______ _______ _______ _____ _____    ______ ____
ROOT
ATOM      1  C   UNL     1       3.366   4.031   6.160  0.00  0.00    +0.162 A 
ATOM      2  C   UNL     1       3.017   4.931   5.169  0.00  0.00    +0.053 A 
ATOM      3  C   UNL     1       2.770   4.492   3.877  0.00  0.00    -0.044 A 
ATOM      4  C   UNL     1       2.876   3.151   3.574  0.00  0.00    -0.057 A 
ATOM      5  C   UNL     1       3.224   2.244   4.565  0.00  0.00    +0.051 A 
ATOM      6  C   UNL     1       3.470   2.677   5.856  0.00  0.00    +0.162 A 
ATOM      7  C   UNL     1       2.628   2.628   2.183  0.00  0.00    -0.040 C 
ATOM      8  C   UNL     1       2.569   4.919   1.435  0.00  0.00    -0.071 C 
ATOM      9  C   UNL     1       2.389   5.510   2.833  0.00  0.00    +0.017 C 
ATOM     10  N   UNL     1       1.869   3.619   1.401  0.00  0.00    +0.396 N 
ATOM     11  H   UNL     1       0.936   3.729   1.816  0.00  0.00    -0.079 HD
ENDROOT
BRANCH   1  12
ATOM     12  O   UNL     1       3.608   4.468   7.425  0.00  0.00    -0.489 OA
BRANCH  12  14
ATOM     13  C   UNL     1       3.789   6.170   9.131  0.00  0.00    +0.048 C 
ATOM     14  C   UNL     1       3.482   5.871   7.662  0.00  0.00    +0.226 C 
ENDBRANCH  12  14
ENDBRANCH   1  12
BRANCH   6  15
ATOM     15  O   UNL     1       3.811   1.784   6.822  0.00  0.00    -0.489 OA
BRANCH  15  16
ATOM     16  C   UNL     1       3.898   0.411   6.436  0.00  0.00    +0.226 C 
ATOM     17  C   UNL     1       4.291  -0.436   7.648  0.00  0.00    +0.048 C 
ENDBRANCH  15  16
ENDBRANCH   6  15
BRANCH  10  18
ATOM     18  C   UNL     1       1.723   3.157   0.003  0.00  0.00    +0.072 C 
BRANCH  18  19
ATOM     19  N   UNL     1       1.266   1.765  -0.001  0.00  0.00    -0.257 N 
ATOM     20  C   UNL     1      -0.016   1.344   0.009  0.00  0.00    +0.176 A 
ATOM     21  S   UNL     1      -1.409   2.339   0.022  0.00  0.00    -0.011 S 
ATOM     22  N   UNL     1       0.002  -0.004   0.002  0.00  0.00    -0.310 N 
ATOM     23  C   UNL     1       1.311  -0.418  -0.013  0.00  0.00    +0.132 A 
ATOM     24  N   UNL     1       2.079   0.623  -0.014  0.00  0.00    -0.158 NA
ATOM     25  C   UNL     1      -1.174  -0.878   0.009  0.00  0.00    +0.152 C 
BRANCH  23  26
ATOM     26  C   UNL     1       1.777  -1.851  -0.025  0.00  0.00    +0.081 C 
BRANCH  26  27
ATOM     27  C   UNL     1       1.921  -2.329  -1.471  0.00  0.00    +0.019 C 
ATOM     28  C   UNL     1       2.275  -3.825  -1.482  0.00  0.00    +0.028 C 
ATOM     29  C   UNL     1       2.720  -4.207  -2.923  0.00  0.00    +0.166 C 
ATOM     30  S   UNL     1       3.732  -2.732  -3.365  0.00  0.00    -0.031 S 
ATOM     31  O   UNL     1       5.090  -2.985  -3.031  0.00  0.00    -0.174 OA
ATOM     32  O   UNL     1       3.401  -2.323  -4.686  0.00  0.00    -0.174 OA
ATOM     33  C   UNL     1       3.038  -1.517  -2.171  0.00  0.00    +0.170 C 
ENDBRANCH  26  27
ENDBRANCH  23  26
ENDBRANCH  18  19
ENDBRANCH  10  18
TORSDOF 8
