REMARK  Name = ZINC37384609
REMARK  7 active torsions:
REMARK  status: ('A' for Active; 'I' for Inactive)
REMARK    1  A    between atoms: C_6  and  C_7
REMARK    2  A    between atoms: C_7  and  O_8
REMARK    3  A    between atoms: O_8  and  C_9
REMARK    4  A    between atoms: C_11  and  C_21
REMARK    5  A    between atoms: N_12  and  C_14
REMARK    6  A    between atoms: C_17  and  N_20
REMARK    7  A    between atoms: C_24  and  C_27
REMARK                            x       y       z     vdW  Elec       q    Type
REMARK                         _______ _______ _______ _____ _____    ______ ____
ROOT
ATOM      1  C   UNL     1      -3.049  -1.490  -1.440  0.00  0.00    +0.338 A 
ATOM      2  N   UNL     1      -3.652  -1.689  -2.612  0.00  0.00    -0.174 NA
ATOM      3  C   UNL     1      -4.516  -2.680  -2.506  0.00  0.00    +0.167 A 
ATOM      4  N   UNL     1      -4.472  -3.134  -1.230  0.00  0.00    -0.209 N 
ATOM      5  N   UNL     1      -3.513  -2.352  -0.566  0.00  0.00    -0.108 NA
ENDROOT
BRANCH   4   6
ATOM      6  C   UNL     1      -5.228  -4.180  -0.684  0.00  0.00    +0.068 A 
ATOM      7  C   UNL     1      -5.384  -5.366  -1.389  0.00  0.00    +0.029 A 
ATOM      8  C   UNL     1      -6.129  -6.396  -0.852  0.00  0.00    +0.025 A 
ATOM      9  C   UNL     1      -6.722  -6.247   0.396  0.00  0.00    +0.025 A 
ATOM     10  C   UNL     1      -6.566  -5.060   1.101  0.00  0.00    +0.025 A 
ATOM     11  C   UNL     1      -5.817  -4.032   0.565  0.00  0.00    +0.029 A 
BRANCH   9  12
ATOM     12  N   UNL     1      -7.477  -7.290   0.940  0.00  0.00    -0.358 N 
ATOM     13  H   UNL     1      -7.586  -8.118   0.448  0.00  0.00    +0.142 HD
ATOM     14  H   UNL     1      -7.891  -7.185   1.811  0.00  0.00    +0.142 HD
ENDBRANCH   9  12
ENDBRANCH   4   6
BRANCH   3  15
ATOM     15  C   UNL     1      -5.380  -3.202  -3.587  0.00  0.00    +0.019 A 
ATOM     16  C   UNL     1      -6.637  -3.727  -3.287  0.00  0.00    +0.012 A 
ATOM     17  C   UNL     1      -7.438  -4.213  -4.300  0.00  0.00    +0.013 A 
ATOM     18  C   UNL     1      -6.997  -4.180  -5.610  0.00  0.00    +0.055 A 
ATOM     19  C   UNL     1      -5.752  -3.660  -5.914  0.00  0.00    +0.013 A 
ATOM     20  C   UNL     1      -4.944  -3.166  -4.911  0.00  0.00    +0.012 A 
BRANCH  18  21
ATOM     21  C   UNL     1      -7.877  -4.712  -6.712  0.00  0.00    +0.417 C 
ATOM     22  F   UNL     1      -8.685  -3.681  -7.203  0.00  0.00    -0.166 F 
ATOM     23  F   UNL     1      -7.079  -5.212  -7.746  0.00  0.00    -0.166 F 
ATOM     24  F   UNL     1      -8.685  -5.738  -6.209  0.00  0.00    -0.166 F 
ENDBRANCH  18  21
ENDBRANCH   3  15
BRANCH   1  25
ATOM     25  O   UNL     1      -2.102  -0.549  -1.191  0.00  0.00    -0.457 OA
BRANCH  25  26
ATOM     26  C   UNL     1      -1.571  -0.497   0.134  0.00  0.00    +0.268 C 
BRANCH  26  32
ATOM     27  C   UNL     1      -0.925   1.880   0.573  0.00  0.00    +0.010 A 
ATOM     28  C   UNL     1       0.018   2.887   0.653  0.00  0.00    +0.039 A 
ATOM     29  C   UNL     1       1.348   2.613   0.379  0.00  0.00    +0.123 A 
ATOM     30  C   UNL     1       1.730   1.331   0.026  0.00  0.00    +0.039 A 
ATOM     31  C   UNL     1       0.786   0.325  -0.053  0.00  0.00    +0.010 A 
ATOM     32  C   UNL     1      -0.541   0.600   0.221  0.00  0.00    -0.010 A 
ATOM     33  F   UNL     1       2.270   3.597   0.456  0.00  0.00    -0.205 F 
ENDBRANCH  26  32
ENDBRANCH  25  26
ENDBRANCH   1  25
TORSDOF 7
