REMARK  Name = ZINC06320948
REMARK  3 active torsions:
REMARK  status: ('A' for Active; 'I' for Inactive)
REMARK    1  A    between atoms: C_3  and  N_10
REMARK    2  A    between atoms: C_4  and  C_8
REMARK    3  A    between atoms: C_11  and  C_13
REMARK                            x       y       z     vdW  Elec       q    Type
REMARK                         _______ _______ _______ _____ _____    ______ ____
ROOT
ATOM      1  C   UNL     1       3.659   7.971   0.181  0.00  0.00    +0.017 A 
ATOM      2  C   UNL     1       2.945   6.794   0.086  0.00  0.00    +0.025 A 
ATOM      3  C   UNL     1       1.556   6.819   0.105  0.00  0.00    +0.048 A 
ATOM      4  C   UNL     1       0.885   8.046   0.214  0.00  0.00    +0.085 A 
ATOM      5  C   UNL     1       1.621   9.229   0.315  0.00  0.00    +0.032 A 
ATOM      6  C   UNL     1       2.999   9.185   0.295  0.00  0.00    +0.019 A 
ATOM      7 BR   UNL     1       3.994  10.788   0.424  0.00  0.00    -0.050 Br
ENDROOT
BRANCH   3   8
ATOM      8  N   UNL     1       0.835   5.633   0.009  0.00  0.00    -0.278 N 
ATOM      9  C   UNL     1       1.308   4.508   0.581  0.00  0.00    +0.284 C 
ATOM     10  O   UNL     1       2.404   4.509   1.110  0.00  0.00    -0.266 OA
ATOM     11  H   UNL     1      -0.009   5.616  -0.469  0.00  0.00    +0.155 HD
BRANCH   9  12
ATOM     12  C   UNL     1       0.503   3.284   0.566  0.00  0.00    +0.191 A 
ATOM     13  C   UNL     1       0.861   2.081   1.106  0.00  0.00    +0.056 A 
ATOM     14  C   UNL     1      -0.201   1.197   0.863  0.00  0.00    +0.058 A 
ATOM     15  C   UNL     1      -1.149   1.889   0.188  0.00  0.00    +0.171 A 
ATOM     16  O   UNL     1      -0.722   3.147   0.016  0.00  0.00    -0.444 OA
ATOM     17 BR   UNL     1      -2.803   1.195  -0.409  0.00  0.00    -0.008 Br
ENDBRANCH   9  12
ENDBRANCH   3   8
BRANCH   4  18
ATOM     18  C   UNL     1      -0.588   8.087   0.229  0.00  0.00    +0.388 C 
ATOM     19  O   UNL     1      -1.224   7.052   0.243  0.00  0.00    -0.241 OA
ATOM     20  O   UNL     1      -1.230   9.272   0.226  0.00  0.00    -0.241 OA
ENDBRANCH   4  18
TORSDOF 3
