REMARK  Name = ZINC39687296
REMARK  6 active torsions:
REMARK  status: ('A' for Active; 'I' for Inactive)
REMARK    1  A    between atoms: C_4  and  C_7
REMARK    2  A    between atoms: C_7  and  C_8
REMARK    3  A    between atoms: C_8  and  C_10
REMARK    4  A    between atoms: C_8  and  N_18
REMARK    5  A    between atoms: C_19  and  C_21
REMARK    6  A    between atoms: C_32  and  C_34
REMARK                            x       y       z     vdW  Elec       q    Type
REMARK                         _______ _______ _______ _____ _____    ______ ____
ROOT
ATOM      1  N   UNL     1       2.832  -0.630   2.482  0.00  0.00    -0.303 N 
ATOM      2  C   UNL     1       3.034   0.557   1.877  0.00  0.00    +0.219 C 
ATOM      3  O   UNL     1       3.243   0.602   0.683  0.00  0.00    -0.275 OA
ATOM      4  H   UNL     1       2.724  -0.671   3.445  0.00  0.00    +0.149 HD
ENDROOT
BRANCH   2   5
ATOM      5  C   UNL     1       2.999   1.830   2.684  0.00  0.00    +0.100 C 
ATOM      6  C   UNL     1       3.802   1.659   3.993  0.00  0.00    +0.121 C 
ATOM      7  N   UNL     1       3.030   2.414   5.007  0.00  0.00    -0.300 N 
ATOM      8  C   UNL     1       1.612   2.128   4.679  0.00  0.00    +0.115 C 
ATOM      9  C   UNL     1       1.563   2.137   3.139  0.00  0.00    -0.004 C 
ATOM     10  C   UNL     1       0.607   1.059   2.636  0.00  0.00    -0.010 C 
ATOM     11  C   UNL     1      -0.823   1.416   3.050  0.00  0.00    -0.082 C 
ATOM     12  N   UNL     1      -1.186   2.722   2.486  0.00  0.00    +0.379 N 
ATOM     13  C   UNL     1      -0.321   3.767   3.047  0.00  0.00    -0.082 C 
ATOM     14  C   UNL     1       1.130   3.509   2.632  0.00  0.00    -0.010 C 
ATOM     15  C   UNL     1       3.507   3.187   6.002  0.00  0.00    +0.219 C 
ATOM     16  O   UNL     1       4.697   3.409   6.080  0.00  0.00    -0.275 OA
ATOM     17  H   UNL     1      -1.074   2.696   1.484  0.00  0.00    -0.086 HD
ATOM     18  H   UNL     1      -2.148   2.927   2.710  0.00  0.00    -0.086 HD
BRANCH  15  19
ATOM     19  C   UNL     1       2.563   3.776   7.019  0.00  0.00    +0.079 C 
ATOM     20  C   UNL     1       3.308   4.805   7.878  0.00  0.00    +0.017 C 
ATOM     21  C   UNL     1       2.290   5.512   8.777  0.00  0.00    +0.027 C 
ATOM     22  C   UNL     1       1.427   4.502   9.474  0.00  0.00    -0.031 C 
ATOM     23  C   UNL     1       1.315   3.267   9.106  0.00  0.00    -0.030 C 
ATOM     24  C   UNL     1       2.035   2.668   7.932  0.00  0.00    +0.039 C 
ENDBRANCH  15  19
ENDBRANCH   2   5
BRANCH   1  25
ATOM     25  C   UNL     1       2.776  -1.858   1.685  0.00  0.00    +0.163 C 
BRANCH  25  26
ATOM     26  C   UNL     1       1.970  -2.897   2.421  0.00  0.00    +0.236 C 
ATOM     27  O   UNL     1       1.869  -2.845   3.628  0.00  0.00    -0.274 OA
ATOM     28  N   UNL     1       1.360  -3.885   1.736  0.00  0.00    -0.300 N 
ATOM     29  C   UNL     1       1.560  -4.026   0.287  0.00  0.00    +0.108 C 
ATOM     30  C   UNL     1       2.020  -5.457  -0.010  0.00  0.00    +0.019 C 
ATOM     31  C   UNL     1       1.015  -6.446   0.585  0.00  0.00    +0.003 C 
ATOM     32  C   UNL     1       0.955  -6.264   2.103  0.00  0.00    +0.019 C 
ATOM     33  C   UNL     1       0.488  -4.846   2.426  0.00  0.00    +0.108 C 
ENDBRANCH  25  26
BRANCH  25  34
ATOM     34  C   UNL     1       4.195  -2.382   1.456  0.00  0.00    +0.067 C 
BRANCH  34  38
ATOM     35  C   UNL     1       6.391   0.430  -0.893  0.00  0.00    +0.000 A 
ATOM     36  C   UNL     1       6.399   0.525   0.486  0.00  0.00    +0.000 A 
ATOM     37  C   UNL     1       5.689  -0.385   1.246  0.00  0.00    +0.004 A 
ATOM     38  C   UNL     1       4.969  -1.389   0.627  0.00  0.00    -0.045 A 
ATOM     39  C   UNL     1       4.960  -1.484  -0.752  0.00  0.00    +0.004 A 
ATOM     40  C   UNL     1       5.671  -0.575  -1.512  0.00  0.00    +0.000 A 
ENDBRANCH  34  38
ENDBRANCH  25  34
ENDBRANCH   1  25
TORSDOF 6
