REMARK  Name = ZINC01085006
REMARK  7 active torsions:
REMARK  status: ('A' for Active; 'I' for Inactive)
REMARK    1  A    between atoms: C_1  and  C_2
REMARK    2  A    between atoms: C_2  and  C_26
REMARK    3  A    between atoms: C_6  and  C_16
REMARK    4  A    between atoms: C_8  and  C_12
REMARK    5  A    between atoms: C_9  and  N_11
REMARK    6  A    between atoms: C_12  and  O_14
REMARK    7  A    between atoms: O_14  and  C_15
REMARK                            x       y       z     vdW  Elec       q    Type
REMARK                         _______ _______ _______ _____ _____    ______ ____
ROOT
ATOM      1  C   UNL     1      -4.259   2.964   7.156  0.00  0.00    +0.012 C 
ATOM      2  C   UNL     1      -3.142   3.985   7.380  0.00  0.00    -0.021 C 
ATOM      3  C   UNL     1      -1.785   3.280   7.337  0.00  0.00    +0.081 C 
ATOM      4  C   UNL     1      -1.586   2.642   5.981  0.00  0.00    +0.115 C 
ATOM      5  C   UNL     1      -2.126   3.192   4.879  0.00  0.00    +0.045 C 
ATOM      6  C   UNL     1      -1.915   2.562   3.523  0.00  0.00    +0.097 C 
ATOM      7  C   UNL     1      -0.745   1.619   3.568  0.00  0.00    +0.105 C 
ATOM      8  C   UNL     1      -0.288   1.149   4.758  0.00  0.00    +0.195 C 
ATOM      9  O   UNL     1      -0.857   1.512   5.917  0.00  0.00    -0.446 OA
ATOM     10  C   UNL     1      -2.903   4.365   4.950  0.00  0.00    +0.164 C 
ATOM     11  O   UNL     1      -3.360   4.841   3.931  0.00  0.00    -0.292 OA
ATOM     12  C   UNL     1      -3.176   5.039   6.268  0.00  0.00    +0.086 C 
ATOM     13  C   UNL     1      -3.327   4.661   8.740  0.00  0.00    +0.012 C 
ENDROOT
BRANCH   6  14
ATOM     14  C   UNL     1      -3.154   1.801   3.128  0.00  0.00    -0.035 A 
ATOM     15  C   UNL     1      -3.596   0.747   3.905  0.00  0.00    +0.005 A 
ATOM     16  C   UNL     1      -4.735   0.052   3.546  0.00  0.00    +0.015 A 
ATOM     17  C   UNL     1      -5.427   0.404   2.401  0.00  0.00    +0.018 A 
ATOM     18  C   UNL     1      -4.982   1.456   1.620  0.00  0.00    +0.015 A 
ATOM     19  C   UNL     1      -3.846   2.154   1.984  0.00  0.00    +0.005 A 
ATOM     20 BR   UNL     1      -6.982  -0.550   1.905  0.00  0.00    -0.050 Br
ENDBRANCH   6  14
BRANCH   8  21
ATOM     21  N   UNL     1       0.779   0.291   4.775  0.00  0.00    -0.329 N 
ATOM     22  H   UNL     1       1.486   0.383   4.117  0.00  0.00    +0.145 HD
ATOM     23  H   UNL     1       0.828  -0.410   5.444  0.00  0.00    +0.145 HD
ENDBRANCH   8  21
BRANCH   7  24
ATOM     24  C   UNL     1      -0.124   1.219   2.375  0.00  0.00    +0.341 C 
ATOM     25  O   UNL     1       0.746   0.367   2.397  0.00  0.00    -0.245 OA
BRANCH  24  26
ATOM     26  O   UNL     1      -0.493   1.778   1.202  0.00  0.00    -0.465 OA
ATOM     27  C   UNL     1       0.181   1.323   0.026  0.00  0.00    +0.280 C 
ENDBRANCH  24  26
ENDBRANCH   7  24
TORSDOF 4
