REMARK  Name = ZINC44533089
REMARK  6 active torsions:
REMARK  status: ('A' for Active; 'I' for Inactive)
REMARK    1  A    between atoms: C_1  and  C_2
REMARK    2  A    between atoms: N_8  and  C_9
REMARK    3  A    between atoms: C_9  and  C_10
REMARK    4  A    between atoms: C_10  and  N_11
REMARK    5  A    between atoms: C_12  and  C_14
REMARK    6  A    between atoms: C_15  and  N_19
REMARK                            x       y       z     vdW  Elec       q    Type
REMARK                         _______ _______ _______ _____ _____    ______ ____
ROOT
ATOM      1  N   UNL     1       0.236   0.185   4.834  0.00  0.00    -0.313 N 
ATOM      2  C   UNL     1       0.777  -0.045   6.046  0.00  0.00    +0.253 C 
ATOM      3  O   UNL     1       1.799  -0.700   6.143  0.00  0.00    -0.270 OA
ATOM      4  H   UNL     1      -0.578   0.707   4.757  0.00  0.00    +0.149 HD
ENDROOT
BRANCH   2   5
ATOM      5  C   UNL     1       0.136   0.492   7.247  0.00  0.00    +0.099 A 
ATOM      6  C   UNL     1       0.529   0.377   8.578  0.00  0.00    +0.088 A 
ATOM      7  C   UNL     1      -0.291   1.002   9.495  0.00  0.00    +0.036 A 
ATOM      8  C   UNL     1      -1.387   1.663   9.054  0.00  0.00    +0.048 A 
ATOM      9  S   UNL     1      -1.347   1.471   7.386  0.00  0.00    -0.090 S 
BRANCH   6  10
ATOM     10  N   UNL     1       1.679  -0.325   8.960  0.00  0.00    -0.199 N 
ATOM     11  C   UNL     1       2.151  -0.506  10.213  0.00  0.00    +0.250 A 
ATOM     12  N   UNL     1       3.244  -1.218  10.116  0.00  0.00    -0.116 NA
ATOM     13  N   UNL     1       3.494  -1.499   8.889  0.00  0.00    -0.023 NA
ATOM     14  N   UNL     1       2.586  -0.998   8.122  0.00  0.00    -0.039 NA
ENDBRANCH   6  10
ENDBRANCH   2   5
BRANCH   1  15
ATOM     15  C   UNL     1       0.877  -0.353   3.631  0.00  0.00    +0.086 C 
BRANCH  15  16
ATOM     16  C   UNL     1       0.067   0.050   2.397  0.00  0.00    -0.059 C 
BRANCH  16  23
ATOM     17  C   UNL     1      -0.019   1.526   0.010  0.00  0.00    -0.013 C 
ATOM     18  C   UNL     1       0.002  -0.004   0.002  0.00  0.00    -0.072 C 
ATOM     19  C   UNL     1       0.717  -0.497  -1.258  0.00  0.00    -0.016 C 
ATOM     20  C   UNL     1       0.735  -2.028  -1.262  0.00  0.00    -0.003 C 
ATOM     21  C   UNL     1       1.410  -2.524   0.020  0.00  0.00    -0.019 C 
ATOM     22  C   UNL     1       0.669  -1.956   1.232  0.00  0.00    -0.078 C 
ATOM     23  N   UNL     1       0.711  -0.490   1.192  0.00  0.00    +0.382 N 
ATOM     24  H   UNL     1       1.671  -0.182   1.159  0.00  0.00    -0.081 HD
ENDBRANCH  16  23
ENDBRANCH  15  16
ENDBRANCH   1  15
TORSDOF 5
