REMARK  Name = ZINC18276441
REMARK  5 active torsions:
REMARK  status: ('A' for Active; 'I' for Inactive)
REMARK    1  A    between atoms: C_1  and  C_2
REMARK    2  A    between atoms: C_2  and  C_27
REMARK    3  A    between atoms: C_6  and  C_16
REMARK    4  A    between atoms: C_20  and  O_23
REMARK    5  A    between atoms: C_21  and  O_22
REMARK                            x       y       z     vdW  Elec       q    Type
REMARK                         _______ _______ _______ _____ _____    ______ ____
ROOT
ATOM      1  C   UNL     1       1.670   1.345  -4.229  0.00  0.00    +0.011 C 
ATOM      2  C   UNL     1       3.186   1.138  -4.226  0.00  0.00    -0.023 C 
ATOM      3  C   UNL     1       3.525  -0.197  -3.566  0.00  0.00    +0.058 C 
ATOM      4  C   UNL     1       3.022  -0.210  -2.131  0.00  0.00    +0.017 C 
ATOM      5  C   UNL     1       2.971   0.926  -1.416  0.00  0.00    +0.037 C 
ATOM      6  C   UNL     1       2.496   1.053   0.012  0.00  0.00    +0.140 C 
ATOM      7  N   UNL     1       2.320  -0.209   0.699  0.00  0.00    -0.331 N 
ATOM      8  C   UNL     1       1.358  -1.125   0.279  0.00  0.00    +0.049 A 
ATOM      9  C   UNL     1       0.254  -1.422   1.063  0.00  0.00    +0.025 A 
ATOM     10  C   UNL     1      -0.719  -2.275   0.574  0.00  0.00    +0.002 A 
ATOM     11  C   UNL     1      -0.595  -2.831  -0.686  0.00  0.00    +0.002 A 
ATOM     12  C   UNL     1       0.518  -2.555  -1.463  0.00  0.00    +0.025 A 
ATOM     13  C   UNL     1       1.500  -1.718  -0.967  0.00  0.00    +0.052 A 
ATOM     14  N   UNL     1       2.667  -1.438  -1.670  0.00  0.00    -0.316 N 
ATOM     15  C   UNL     1       3.382   2.151  -1.992  0.00  0.00    +0.163 C 
ATOM     16  O   UNL     1       3.346   3.159  -1.315  0.00  0.00    -0.292 OA
ATOM     17  C   UNL     1       3.861   2.247  -3.410  0.00  0.00    +0.086 C 
ATOM     18  C   UNL     1       3.714   1.156  -5.662  0.00  0.00    +0.011 C 
ATOM     19  H   UNL     1       2.880  -0.420   1.462  0.00  0.00    +0.147 HD
ATOM     20  H   UNL     1       3.274  -2.175  -1.844  0.00  0.00    +0.152 HD
ENDROOT
BRANCH   6  21
ATOM     21  C   UNL     1       1.179   1.786   0.014  0.00  0.00    +0.022 A 
ATOM     22  C   UNL     1       0.067   1.211  -0.573  0.00  0.00    +0.009 A 
ATOM     23  C   UNL     1      -1.141   1.883  -0.578  0.00  0.00    +0.004 A 
ATOM     24  C   UNL     1      -1.245   3.129   0.014  0.00  0.00    +0.049 A 
ATOM     25  C   UNL     1      -0.135   3.710   0.604  0.00  0.00    +0.159 A 
ATOM     26  C   UNL     1       1.083   3.036   0.604  0.00  0.00    +0.164 A 
BRANCH  26  27
ATOM     27  O   UNL     1       2.175   3.603   1.182  0.00  0.00    -0.503 OA
ATOM     28  H   UNL     1       2.655   4.212   0.603  0.00  0.00    +0.292 HD
ENDBRANCH  26  27
BRANCH  25  29
ATOM     29  O   UNL     1      -0.235   4.937   1.182  0.00  0.00    -0.503 OA
ATOM     30  H   UNL     1      -0.053   5.671   0.580  0.00  0.00    +0.292 HD
ENDBRANCH  25  29
ENDBRANCH   6  21
TORSDOF 3
