REMARK  Name = ZINC01471953
REMARK  7 active torsions:
REMARK  status: ('A' for Active; 'I' for Inactive)
REMARK    1  A    between atoms: C_1  and  C_2
REMARK    2  A    between atoms: N_8  and  C_9
REMARK    3  A    between atoms: C_9  and  C_10
REMARK    4  A    between atoms: C_10  and  C_11
REMARK    5  A    between atoms: C_17  and  C_25
REMARK    6  A    between atoms: C_19  and  C_23
REMARK    7  A    between atoms: C_20  and  N_22
REMARK                            x       y       z     vdW  Elec       q    Type
REMARK                         _______ _______ _______ _____ _____    ______ ____
ROOT
ATOM      1  C   UNL     1      -1.287  -4.133   4.781  0.00  0.00    +0.064 C 
ATOM      2  C   UNL     1      -0.642  -3.628   3.516  0.00  0.00    +0.022 A 
ATOM      3  C   UNL     1      -1.323  -3.688   2.351  0.00  0.00    +0.068 A 
ATOM      4  C   UNL     1      -0.725  -3.217   1.164  0.00  0.00    +0.141 A 
ATOM      5  C   UNL     1       0.552  -2.700   1.220  0.00  0.00    +0.072 A 
ATOM      6  C   UNL     1       1.221  -2.659   2.450  0.00  0.00    +0.259 A 
ATOM      7  O   UNL     1       2.353  -2.206   2.515  0.00  0.00    -0.267 OA
ATOM      8  N   UNL     1       0.617  -3.119   3.562  0.00  0.00    -0.312 N 
ATOM      9  C   UNL     1       1.229  -2.186  -0.021  0.00  0.00    +0.105 C 
ATOM     10  C   UNL     1       0.514  -2.688  -1.245  0.00  0.00    +0.098 C 
ATOM     11  C   UNL     1      -0.739  -3.196  -1.168  0.00  0.00    +0.199 C 
ATOM     12  O   UNL     1      -1.402  -3.277  -0.002  0.00  0.00    -0.441 OA
ENDROOT
BRANCH   9  13
ATOM     13  C   UNL     1       1.208  -0.679  -0.013  0.00  0.00    -0.016 A 
ATOM     14  C   UNL     1       0.002  -0.004   0.002  0.00  0.00    +0.006 A 
ATOM     15  C   UNL     1      -0.017   1.378   0.010  0.00  0.00    +0.000 A 
ATOM     16  C   UNL     1       1.171   2.086   0.002  0.00  0.00    +0.001 A 
ATOM     17  C   UNL     1       2.377   1.412  -0.013  0.00  0.00    +0.020 A 
ATOM     18  C   UNL     1       2.397   0.029  -0.021  0.00  0.00    +0.045 A 
ATOM     19 CL   UNL     1       3.912  -0.818  -0.040  0.00  0.00    -0.083 Cl
ENDBRANCH   9  13
BRANCH  11  20
ATOM     20  N   UNL     1      -1.349  -3.640  -2.314  0.00  0.00    -0.328 N 
ATOM     21  H   UNL     1      -0.883  -3.588  -3.163  0.00  0.00    +0.145 HD
ATOM     22  H   UNL     1      -2.246  -4.007  -2.275  0.00  0.00    +0.145 HD
ENDBRANCH  11  20
BRANCH  10  23
ATOM     23  C   UNL     1       1.171  -2.627  -2.516  0.00  0.00    +0.101 C 
ATOM     24  N   UNL     1       1.691  -2.578  -3.525  0.00  0.00    -0.191 NA
ENDBRANCH  10  23
BRANCH   8  25
ATOM     25  C   UNL     1       1.329  -3.071   4.842  0.00  0.00    +0.130 C 
BRANCH  25  26
ATOM     26  C   UNL     1       2.116  -4.368   5.037  0.00  0.00    +0.057 C 
BRANCH  26  27
ATOM     27  C   UNL     1       2.848  -4.318   6.353  0.00  0.00    -0.046 A 
ATOM     28  C   UNL     1       4.131  -3.808   6.412  0.00  0.00    +0.004 A 
ATOM     29  C   UNL     1       4.801  -3.759   7.620  0.00  0.00    +0.000 A 
ATOM     30  C   UNL     1       4.191  -4.228   8.768  0.00  0.00    +0.000 A 
ATOM     31  C   UNL     1       2.909  -4.742   8.709  0.00  0.00    +0.000 A 
ATOM     32  C   UNL     1       2.238  -4.788   7.501  0.00  0.00    +0.004 A 
ENDBRANCH  26  27
ENDBRANCH  25  26
ENDBRANCH   8  25
TORSDOF 6
