REMARK  Name = ZINC40340718
REMARK  7 active torsions:
REMARK  status: ('A' for Active; 'I' for Inactive)
REMARK    1  A    between atoms: C_1  and  C_2
REMARK    2  A    between atoms: C_5  and  C_8
REMARK    3  A    between atoms: N_16  and  C_26
REMARK    4  A    between atoms: C_17  and  C_19
REMARK    5  A    between atoms: C_26  and  C_27
REMARK    6  A    between atoms: C_27  and  C_28
REMARK    7  A    between atoms: C_28  and  N_29
REMARK                            x       y       z     vdW  Elec       q    Type
REMARK                         _______ _______ _______ _____ _____    ______ ____
ROOT
ATOM      1  C   UNL     1      -0.889  -4.301   0.509  0.00  0.00    +0.072 A 
ATOM      2  C   UNL     1       0.189  -5.082   0.773  0.00  0.00    +0.035 A 
ATOM      3  C   UNL     1      -0.020  -6.286   0.063  0.00  0.00    +0.153 A 
ATOM      4  N   UNL     1      -1.172  -6.166  -0.567  0.00  0.00    -0.168 NA
ATOM      5  H   UNL     1      -2.552  -4.713  -0.671  0.00  0.00    +0.189 HD
ATOM      6  N   UNL     1      -1.702  -5.021  -0.319  0.00  0.00    -0.276 N 
ATOM      7  C   UNL     1       1.132  -7.170   0.321  0.00  0.00    +0.268 C 
ATOM      8  O   UNL     1       1.267  -8.286  -0.142  0.00  0.00    -0.268 OA
ATOM      9  N   UNL     1       2.011  -6.567   1.139  0.00  0.00    -0.285 N 
ATOM     10  C   UNL     1       1.506  -5.234   1.485  0.00  0.00    +0.143 C 
ENDROOT
BRANCH   1  15
ATOM     11  C   UNL     1      -1.862   1.006   2.514  0.00  0.00    +0.044 C 
ATOM     12  C   UNL     1      -1.607  -0.383   1.989  0.00  0.00    -0.050 A 
ATOM     13  C   UNL     1      -1.845  -0.670   0.657  0.00  0.00    +0.004 A 
ATOM     14  C   UNL     1      -1.614  -1.941   0.170  0.00  0.00    +0.010 A 
ATOM     15  C   UNL     1      -1.139  -2.936   1.024  0.00  0.00    +0.000 A 
ATOM     16  C   UNL     1      -0.901  -2.640   2.366  0.00  0.00    +0.010 A 
ATOM     17  C   UNL     1      -1.131  -1.364   2.840  0.00  0.00    +0.004 A 
ENDBRANCH   1  15
BRANCH  10  18
ATOM     18  C   UNL     1       2.472  -4.176   1.018  0.00  0.00    -0.004 A 
ATOM     19  C   UNL     1       3.104  -4.310  -0.204  0.00  0.00    +0.007 A 
ATOM     20  C   UNL     1       3.991  -3.340  -0.633  0.00  0.00    +0.000 A 
ATOM     21  C   UNL     1       4.245  -2.235   0.159  0.00  0.00    +0.001 A 
ATOM     22  C   UNL     1       3.613  -2.101   1.381  0.00  0.00    +0.020 A 
ATOM     23  C   UNL     1       2.721  -3.069   1.808  0.00  0.00    +0.046 A 
ATOM     24 CL   UNL     1       1.922  -2.897   3.340  0.00  0.00    -0.083 Cl
ENDBRANCH  10  18
BRANCH   9  25
ATOM     25  C   UNL     1       3.272  -7.148   1.610  0.00  0.00    +0.111 C 
BRANCH  25  26
ATOM     26  C   UNL     1       4.357  -6.937   0.552  0.00  0.00    +0.040 C 
BRANCH  26  27
ATOM     27  C   UNL     1       5.632  -7.668   0.977  0.00  0.00    +0.124 C 
BRANCH  27  28
ATOM     28  N   UNL     1       6.671  -7.465  -0.036  0.00  0.00    -0.338 N 
ATOM     29  C   UNL     1       6.902  -8.253  -1.131  0.00  0.00    +0.104 A 
ATOM     30  C   UNL     1       7.943  -7.709  -1.790  0.00  0.00    +0.101 A 
ATOM     31  N   UNL     1       8.337  -6.619  -1.115  0.00  0.00    -0.352 N 
ATOM     32  C   UNL     1       7.576  -6.464  -0.066  0.00  0.00    +0.173 A 
ATOM     33  H   UNL     1       9.069  -6.035  -1.369  0.00  0.00    +0.166 HD
ENDBRANCH  27  28
ENDBRANCH  26  27
ENDBRANCH  25  26
ENDBRANCH   9  25
TORSDOF 6
