REMARK  Name = ZINC43549323
REMARK  13 active torsions:
REMARK  status: ('A' for Active; 'I' for Inactive)
REMARK    1  A    between atoms: C_1  and  C_2
REMARK    2  A    between atoms: C_7  and  C_9
REMARK    3  A    between atoms: C_9  and  O_10
REMARK    4  A    between atoms: O_10  and  C_11
REMARK    5  A    between atoms: C_11  and  C_13
REMARK    6  A    between atoms: C_13  and  C_14
REMARK    7  A    between atoms: C_13  and  C_15
REMARK    8  A    between atoms: C_13  and  C_16
REMARK    9  A    between atoms: C_18  and  C_38
REMARK   10  A    between atoms: C_21  and  O_37
REMARK   11  A    between atoms: C_23  and  C_27
REMARK   12  A    between atoms: C_27  and  C_29
REMARK   13  A    between atoms: C_27  and  C_30
REMARK                            x       y       z     vdW  Elec       q    Type
REMARK                         _______ _______ _______ _____ _____    ______ ____
ROOT
ATOM      1  C   UNL     1      -0.878   1.276   0.105  0.00  0.00    +0.014 C 
ATOM      2  C   UNL     1      -0.765  -0.248   0.180  0.00  0.00    +0.042 C 
ATOM      3  C   UNL     1      -2.064  -0.828   0.718  0.00  0.00    +0.055 A 
ATOM      4  C   UNL     1      -2.152  -1.231   2.014  0.00  0.00    +0.014 A 
ATOM      5  S   UNL     1      -3.824  -1.808   2.120  0.00  0.00    -0.073 S 
ATOM      6  C   UNL     1      -4.265  -1.493   0.524  0.00  0.00    +0.116 A 
ATOM      7  N   UNL     1      -3.174  -0.987   0.008  0.00  0.00    -0.245 NA
ATOM      8  C   UNL     1      -1.091  -1.186   3.057  0.00  0.00    +0.051 C 
ATOM      9  C   UNL     1       0.044  -0.267   2.568  0.00  0.00    -0.022 C 
ATOM     10  C   UNL     1       0.379  -0.629   1.114  0.00  0.00    +0.033 C 
ATOM     11  C   UNL     1       0.675  -2.125   1.022  0.00  0.00    +0.123 C 
ATOM     12  C   UNL     1       1.890  -2.449   1.895  0.00  0.00    +0.029 C 
ATOM     13  C   UNL     1       1.607  -2.053   3.345  0.00  0.00    +0.007 C 
ATOM     14  C   UNL     1       1.285  -0.555   3.426  0.00  0.00    +0.008 C 
ATOM     15  C   UNL     1      -0.365   1.202   2.689  0.00  0.00    +0.012 C 
ENDROOT
BRANCH  12  16
ATOM     16  C   UNL     1       2.180  -3.950   1.827  0.00  0.00    +0.078 C 
ATOM     17  C   UNL     1       3.395  -4.275   2.699  0.00  0.00    +0.017 C 
BRANCH  16  18
ATOM     18  C   UNL     1       2.467  -4.342   0.401  0.00  0.00    +0.219 C 
ATOM     19  O   UNL     1       2.923  -3.526  -0.372  0.00  0.00    -0.275 OA
ATOM     20  N   UNL     1       2.216  -5.599  -0.016  0.00  0.00    -0.301 N 
ATOM     21  C   UNL     1       1.574  -6.654   0.781  0.00  0.00    +0.108 C 
ATOM     22  C   UNL     1       1.522  -7.923  -0.096  0.00  0.00    +0.020 C 
ATOM     23  C   UNL     1       2.646  -7.674  -1.135  0.00  0.00    +0.020 C 
ATOM     24  C   UNL     1       2.534  -6.141  -1.350  0.00  0.00    +0.108 C 
ENDBRANCH  16  18
ENDBRANCH  12  16
BRANCH  11  25
ATOM     25  O   UNL     1      -0.458  -2.865   1.483  0.00  0.00    -0.391 OA
ATOM     26  H   UNL     1      -0.339  -3.824   1.452  0.00  0.00    +0.210 HD
ENDBRANCH  11  25
BRANCH   6  27
ATOM     27  C   UNL     1      -5.593  -1.734  -0.145  0.00  0.00    +0.294 C 
BRANCH  27  28
ATOM     28  O   UNL     1      -5.610  -3.046  -0.712  0.00  0.00    -0.457 OA
BRANCH  28  29
ATOM     29  C   UNL     1      -6.730  -3.421  -1.349  0.00  0.00    +0.313 C 
ATOM     30  O   UNL     1      -7.666  -2.660  -1.424  0.00  0.00    -0.250 OA
BRANCH  29  31
ATOM     31  C   UNL     1      -6.820  -4.790  -1.972  0.00  0.00    +0.059 C 
ATOM     32  C   UNL     1      -8.191  -4.962  -2.630  0.00  0.00    +0.022 C 
ATOM     33  C   UNL     1      -5.725  -4.943  -3.030  0.00  0.00    +0.022 C 
ATOM     34  C   UNL     1      -6.637  -5.856  -0.890  0.00  0.00    +0.022 C 
ENDBRANCH  29  31
ENDBRANCH  28  29
ENDBRANCH  27  28
ENDBRANCH   6  27
TORSDOF 7
