REMARK  Name = ZINC22561420
REMARK  17 active torsions:
REMARK  status: ('A' for Active; 'I' for Inactive)
REMARK    1  A    between atoms: C_1  and  C_2
REMARK    2  A    between atoms: C_4  and  C_14
REMARK    3  A    between atoms: C_5  and  C_13
REMARK    4  A    between atoms: N_6  and  C_7
REMARK    5  A    between atoms: C_7  and  C_9
REMARK    6  A    between atoms: C_7  and  C_10
REMARK    7  A    between atoms: C_10  and  O_11
REMARK    8  A    between atoms: O_11  and  C_12
REMARK    9  A    between atoms: C_14  and  C_16
REMARK   10  A    between atoms: C_16  and  S_17
REMARK   11  A    between atoms: S_17  and  C_18
REMARK   12  A    between atoms: C_21  and  C_30
REMARK   13  A    between atoms: N_22  and  C_23
REMARK   14  A    between atoms: C_30  and  C_32
REMARK   15  A    between atoms: C_30  and  N_33
REMARK   16  A    between atoms: N_33  and  C_34
REMARK   17  A    between atoms: N_33  and  C_35
REMARK                            x       y       z     vdW  Elec       q    Type
REMARK                         _______ _______ _______ _____ _____    ______ ____
ROOT
ATOM      1  C   UNL     1      -5.320   1.369   0.775  0.00  0.00    +0.196 A 
ATOM      2  N   UNL     1      -5.308   0.077   0.541  0.00  0.00    -0.122 NA
ATOM      3  N   UNL     1      -6.504  -0.390   0.601  0.00  0.00    -0.135 NA
ATOM      4  C   UNL     1      -7.346   0.567   0.874  0.00  0.00    +0.125 A 
ATOM      5  N   UNL     1      -6.622   1.723   1.000  0.00  0.00    -0.275 N 
ENDROOT
BRANCH   5   6
ATOM      6  C   UNL     1      -7.113   3.003   1.296  0.00  0.00    +0.050 A 
ATOM      7  C   UNL     1      -7.702   3.254   2.527  0.00  0.00    +0.028 A 
ATOM      8  C   UNL     1      -8.181   4.516   2.818  0.00  0.00    +0.022 A 
ATOM      9  C   UNL     1      -8.084   5.528   1.878  0.00  0.00    +0.041 A 
ATOM     10  C   UNL     1      -7.502   5.279   0.648  0.00  0.00    +0.022 A 
ATOM     11  C   UNL     1      -7.016   4.019   0.355  0.00  0.00    +0.028 A 
ATOM     12 CL   UNL     1      -8.692   7.112   2.244  0.00  0.00    -0.084 Cl
ENDBRANCH   5   6
BRANCH   4  13
ATOM     13  C   UNL     1      -8.838   0.426   1.028  0.00  0.00    -0.003 C 
ATOM     14  C   UNL     1      -9.480   0.258  -0.351  0.00  0.00    -0.005 C 
BRANCH  13  15
ATOM     15  N   UNL     1      -9.136  -0.751   1.854  0.00  0.00    +0.382 N 
ATOM     16  C   UNL     1      -8.458  -0.668   3.154  0.00  0.00    -0.096 C 
ATOM     17  C   UNL     1     -10.586  -0.920   2.026  0.00  0.00    -0.096 C 
ATOM     18  H   UNL     1      -8.753  -1.638   1.329  0.00  0.00    -0.082 HD
ENDBRANCH  13  15
ENDBRANCH   4  13
BRANCH   1  19
ATOM     19  S   UNL     1      -3.922   2.442   0.801  0.00  0.00    -0.078 S 
BRANCH  19  20
ATOM     20  C   UNL     1      -2.607   1.255   0.430  0.00  0.00    +0.157 C 
BRANCH  20  21
ATOM     21  C   UNL     1      -1.280   1.968   0.400  0.00  0.00    +0.175 C 
ATOM     22  O   UNL     1      -1.229   3.162   0.609  0.00  0.00    -0.291 OA
BRANCH  21  26
ATOM     23  C   UNL     1       1.970  -1.805  -0.677  0.00  0.00    +0.063 C 
ATOM     24  C   UNL     1       1.369  -0.460  -0.361  0.00  0.00    +0.017 A 
ATOM     25  C   UNL     1       0.064  -0.218  -0.155  0.00  0.00    +0.034 A 
ATOM     26  C   UNL     1      -0.053   1.220   0.118  0.00  0.00    +0.039 A 
ATOM     27  C   UNL     1       1.232   1.724   0.050  0.00  0.00    +0.027 A 
ATOM     28  N   UNL     1       2.066   0.708  -0.237  0.00  0.00    -0.343 N 
ATOM     29  C   UNL     1       1.630   3.162   0.259  0.00  0.00    +0.064 C 
BRANCH  28  30
ATOM     30  C   UNL     1       3.517   0.836  -0.393  0.00  0.00    +0.110 C 
ATOM     31  C   UNL     1       3.940   0.238  -1.736  0.00  0.00    +0.033 C 
BRANCH  30  32
ATOM     32  C   UNL     1       4.220   0.090   0.742  0.00  0.00    +0.184 C 
BRANCH  32  33
ATOM     33  O   UNL     1       5.628   0.325   0.667  0.00  0.00    -0.381 OA
ATOM     34  C   UNL     1       6.382  -0.331   1.688  0.00  0.00    +0.194 C 
ENDBRANCH  32  33
ENDBRANCH  30  32
ENDBRANCH  28  30
ENDBRANCH  21  26
ENDBRANCH  20  21
ENDBRANCH  19  20
ENDBRANCH   1  19
TORSDOF 10
