REMARK  Name = ZINC01223339
REMARK  7 active torsions:
REMARK  status: ('A' for Active; 'I' for Inactive)
REMARK    1  A    between atoms: C_9  and  O_11
REMARK    2  A    between atoms: O_11  and  C_12
REMARK    3  A    between atoms: C_12  and  C_13
REMARK    4  A    between atoms: C_16  and  S_18
REMARK    5  A    between atoms: S_18  and  C_19
REMARK    6  A    between atoms: C_19  and  C_20
REMARK    7  A    between atoms: C_28  and  C_30
REMARK                            x       y       z     vdW  Elec       q    Type
REMARK                         _______ _______ _______ _____ _____    ______ ____
ROOT
ATOM      1  C   UNL     1       0.232  -4.191  -0.027  0.00  0.00    +0.255 A 
ATOM      2  N   UNL     1       0.321  -4.960   1.018  0.00  0.00    -0.108 NA
ATOM      3  N   UNL     1       0.469  -6.182   0.642  0.00  0.00    -0.101 NA
ATOM      4  C   UNL     1       0.479  -6.234  -0.668  0.00  0.00    +0.278 A 
ATOM      5  O   UNL     1       0.324  -4.975  -1.119  0.00  0.00    -0.412 OA
ENDROOT
BRANCH   1   6
ATOM      6  C   UNL     1       0.052  -2.695  -0.019  0.00  0.00    +0.326 C 
BRANCH   6   7
ATOM      7  O   UNL     1       1.333  -2.061  -0.019  0.00  0.00    -0.480 OA
BRANCH   7  16
ATOM      8  C   UNL     1       0.173   1.390   0.003  0.00  0.00    +0.004 A 
ATOM      9  C   UNL     1       1.340   2.093   0.003  0.00  0.00    +0.010 A 
ATOM     10  C   UNL     1       2.566   1.408  -0.004  0.00  0.00    +0.004 A 
ATOM     11  C   UNL     1       3.792   2.100  -0.004  0.00  0.00    +0.011 A 
ATOM     12  C   UNL     1       4.944   1.368  -0.010  0.00  0.00    +0.020 A 
ATOM     13  C   UNL     1       4.884  -0.024  -0.018  0.00  0.00    +0.111 A 
ATOM     14  N   UNL     1       3.741  -0.664  -0.018  0.00  0.00    -0.251 NA
ATOM     15  C   UNL     1       2.577  -0.008  -0.011  0.00  0.00    +0.112 A 
ATOM     16  C   UNL     1       1.349  -0.703  -0.011  0.00  0.00    +0.147 A 
ATOM     17  C   UNL     1       0.177  -0.002  -0.004  0.00  0.00    +0.048 A 
ENDBRANCH   7  16
ENDBRANCH   6   7
ENDBRANCH   1   6
BRANCH   4  18
ATOM     18  S   UNL     1       0.657  -7.684  -1.655  0.00  0.00    -0.056 S 
BRANCH  18  19
ATOM     19  C   UNL     1       0.813  -9.024  -0.442  0.00  0.00    +0.174 C 
BRANCH  19  20
ATOM     20  C   UNL     1       0.973 -10.337  -1.162  0.00  0.00    +0.226 C 
ATOM     21  O   UNL     1       0.981 -10.367  -2.375  0.00  0.00    -0.275 OA
ATOM     22  N   UNL     1       1.107 -11.479  -0.460  0.00  0.00    -0.298 N 
ATOM     23  C   UNL     1       1.093 -11.460   1.010  0.00  0.00    +0.127 C 
ATOM     24  C   UNL     1       0.004 -12.420   1.503  0.00  0.00    +0.127 C 
ATOM     25  N   UNL     1       0.167 -13.708   0.813  0.00  0.00    -0.292 N 
ATOM     26  C   UNL     1       0.180 -13.728  -0.656  0.00  0.00    +0.127 C 
ATOM     27  C   UNL     1       1.264 -12.768  -1.149  0.00  0.00    +0.127 C 
ATOM     28  C   UNL     1       0.301 -14.850   1.516  0.00  0.00    +0.282 C 
ATOM     29  O   UNL     1       0.336 -15.920   0.937  0.00  0.00    -0.267 OA
BRANCH  28  30
ATOM     30  C   UNL     1       0.405 -14.803   2.978  0.00  0.00    +0.189 A 
ATOM     31  C   UNL     1       0.661 -15.865   3.799  0.00  0.00    +0.054 A 
ATOM     32  C   UNL     1       0.672 -15.367   5.111  0.00  0.00    +0.042 A 
ATOM     33  C   UNL     1       0.426 -14.040   5.035  0.00  0.00    +0.196 A 
ATOM     34  O   UNL     1       0.270 -13.704   3.748  0.00  0.00    -0.458 OA
ENDBRANCH  28  30
ENDBRANCH  19  20
ENDBRANCH  18  19
ENDBRANCH   4  18
TORSDOF 7
