REMARK  Name = ZINC12384933
REMARK  8 active torsions:
REMARK  status: ('A' for Active; 'I' for Inactive)
REMARK    1  A    between atoms: C_1  and  C_2
REMARK    2  A    between atoms: C_4  and  O_30
REMARK    3  A    between atoms: C_6  and  O_29
REMARK    4  A    between atoms: C_8  and  O_28
REMARK    5  A    between atoms: C_10  and  N_13
REMARK    6  A    between atoms: N_13  and  C_14
REMARK    7  A    between atoms: C_17  and  N_20
REMARK    8  A    between atoms: N_21  and  C_22
REMARK                            x       y       z     vdW  Elec       q    Type
REMARK                         _______ _______ _______ _____ _____    ______ ____
ROOT
ATOM      1  N   UNL     1      -0.073   5.524   0.031  0.00  0.00    -0.317 N 
ATOM      2  H   UNL     1       0.760   6.020   0.026  0.00  0.00    +0.149 HD
ENDROOT
BRANCH   1   8
ATOM      3  C   UNL     1      -3.279   7.554  -2.863  0.00  0.00    +0.041 C 
ATOM      4  C   UNL     1      -2.974   7.264  -1.392  0.00  0.00    +0.149 C 
ATOM      5  C   UNL     1      -2.899   8.582  -0.617  0.00  0.00    +0.174 C 
ATOM      6  C   UNL     1      -2.534   8.288   0.842  0.00  0.00    +0.178 C 
ATOM      7  C   UNL     1      -1.212   7.516   0.880  0.00  0.00    +0.192 C 
ATOM      8  C   UNL     1      -1.351   6.239   0.047  0.00  0.00    +0.235 C 
ATOM      9  O   UNL     1      -1.722   6.582  -1.290  0.00  0.00    -0.351 OA
BRANCH   7  10
ATOM     10  O   UNL     1      -0.169   8.329   0.338  0.00  0.00    -0.385 OA
ATOM     11  H   UNL     1       0.698   7.900   0.326  0.00  0.00    +0.210 HD
ENDBRANCH   7  10
BRANCH   6  12
ATOM     12  O   UNL     1      -3.565   7.502   1.443  0.00  0.00    -0.386 OA
ATOM     13  H   UNL     1      -3.396   7.272   2.367  0.00  0.00    +0.210 HD
ENDBRANCH   6  12
BRANCH   5  14
ATOM     14  O   UNL     1      -1.901   9.423  -1.198  0.00  0.00    -0.387 OA
ATOM     15  H   UNL     1      -2.068   9.650  -2.123  0.00  0.00    +0.210 HD
ENDBRANCH   5  14
ENDBRANCH   1   8
BRANCH   1  16
ATOM     16  C   UNL     1      -0.054   4.132   0.024  0.00  0.00    +0.029 A 
ATOM     17  C   UNL     1       1.162   3.454   0.009  0.00  0.00    +0.025 A 
ATOM     18  C   UNL     1       1.185   2.078   0.002  0.00  0.00    +0.031 A 
ATOM     19  C   UNL     1      -0.016   1.360   0.009  0.00  0.00    +0.086 A 
ATOM     20  C   UNL     1      -1.236   2.045   0.019  0.00  0.00    +0.031 A 
ATOM     21  C   UNL     1      -1.251   3.421   0.031  0.00  0.00    +0.025 A 
BRANCH  19  22
ATOM     22  N   UNL     1       0.002  -0.004   0.002  0.00  0.00    -0.149 NA
ATOM     23  N   UNL     1      -1.106  -0.664   0.009  0.00  0.00    -0.149 NA
BRANCH  23  24
ATOM     24  C   UNL     1      -1.088  -2.031   0.002  0.00  0.00    +0.086 A 
ATOM     25  C   UNL     1       0.130  -2.717  -0.019  0.00  0.00    +0.029 A 
ATOM     26  C   UNL     1       0.141  -4.096  -0.020  0.00  0.00    +0.002 A 
ATOM     27  C   UNL     1      -1.050  -4.801  -0.013  0.00  0.00    +0.000 A 
ATOM     28  C   UNL     1      -2.260  -4.128   0.002  0.00  0.00    +0.002 A 
ATOM     29  C   UNL     1      -2.286  -2.750   0.009  0.00  0.00    +0.029 A 
ENDBRANCH  23  24
ENDBRANCH  19  22
ENDBRANCH   1  16
TORSDOF 7
