REMARK  Name = ZINC37022277
REMARK  4 active torsions:
REMARK  status: ('A' for Active; 'I' for Inactive)
REMARK    1  A    between atoms: C_2  and  N_21
REMARK    2  A    between atoms: C_4  and  S_9
REMARK    3  A    between atoms: S_9  and  C_10
REMARK    4  A    between atoms: C_10  and  C_11
REMARK                            x       y       z     vdW  Elec       q    Type
REMARK                         _______ _______ _______ _____ _____    ______ ____
ROOT
ATOM      1  S   UNL     1       5.053  -2.338  -0.058  0.00  0.00    -0.078 S 
ENDROOT
BRANCH   1   5
ATOM      2  C   UNL     1       5.993  -6.709  -0.082  0.00  0.00    +0.113 A 
ATOM      3  C   UNL     1       6.998  -5.752  -0.086  0.00  0.00    +0.124 A 
ATOM      4  N   UNL     1       6.677  -4.453  -0.079  0.00  0.00    -0.209 NA
ATOM      5  C   UNL     1       5.420  -4.061  -0.067  0.00  0.00    +0.171 A 
ATOM      6  N   UNL     1       4.397  -4.961  -0.062  0.00  0.00    -0.302 N 
ATOM      7  H   UNL     1       3.479  -4.650  -0.053  0.00  0.00    +0.171 HD
ATOM      8  C   UNL     1       4.660  -6.285  -0.070  0.00  0.00    +0.254 A 
ATOM      9  O   UNL     1       3.750  -7.099  -0.066  0.00  0.00    -0.268 OA
BRANCH   3  10
ATOM     10  N   UNL     1       8.323  -6.138  -0.098  0.00  0.00    -0.343 N 
ATOM     11  H   UNL     1       8.553  -7.081  -0.103  0.00  0.00    +0.144 HD
ATOM     12  H   UNL     1       9.024  -5.468  -0.101  0.00  0.00    +0.144 HD
ENDBRANCH   3  10
ENDBRANCH   1   5
BRANCH   1  13
ATOM     13  C   UNL     1       6.683  -1.542  -0.068  0.00  0.00    +0.173 C 
BRANCH  13  14
ATOM     14  C   UNL     1       6.510  -0.045  -0.060  0.00  0.00    +0.226 C 
ATOM     15  O   UNL     1       5.401   0.439  -0.141  0.00  0.00    -0.275 OA
ATOM     16  N   UNL     1       7.589   0.757   0.035  0.00  0.00    -0.301 N 
ATOM     17  C   UNL     1       7.425   2.212   0.162  0.00  0.00    +0.108 C 
ATOM     18  C   UNL     1       6.812   2.527   1.521  0.00  0.00    +0.019 C 
ATOM     19  C   UNL     1       7.870   2.306   2.615  0.00  0.00    +0.002 C 
ATOM     20  C   UNL     1       8.010   0.813   2.891  0.00  0.00    +0.000 C 
ATOM     21  C   UNL     1       9.401   0.308   2.467  0.00  0.00    +0.002 C 
ATOM     22  C   UNL     1       9.764   0.886   1.099  0.00  0.00    +0.019 C 
ATOM     23  C   UNL     1       8.928   0.192   0.021  0.00  0.00    +0.108 C 
ENDBRANCH  13  14
ENDBRANCH   1  13
TORSDOF 4
