REMARK  Name = ZINC15958216
REMARK  4 active torsions:
REMARK  status: ('A' for Active; 'I' for Inactive)
REMARK    1  A    between atoms: C_12  and  C_15
REMARK    2  A    between atoms: C_15  and  C_16
REMARK    3  A    between atoms: C_19  and  O_22
REMARK    4  A    between atoms: N_25  and  C_28
REMARK                            x       y       z     vdW  Elec       q    Type
REMARK                         _______ _______ _______ _____ _____    ______ ____
ROOT
ATOM      1  C   UNL     1      -0.017   1.379   0.010  0.00  0.00    +0.000 A 
ATOM      2  C   UNL     1       1.173   2.084   0.002  0.00  0.00    +0.002 A 
ATOM      3  C   UNL     1       2.379   1.414  -0.012  0.00  0.00    +0.023 A 
ATOM      4  C   UNL     1       2.407   0.021  -0.019  0.00  0.00    +0.039 A 
ATOM      5  C   UNL     1       1.203  -0.677  -0.013  0.00  0.00    +0.003 A 
ATOM      6  C   UNL     1       0.002  -0.004   0.002  0.00  0.00    +0.008 A 
ATOM      7  C   UNL     1       1.574  -2.133  -0.030  0.00  0.00    +0.136 C 
ATOM      8  C   UNL     1       1.010  -2.874   1.187  0.00  0.00    +0.122 C 
ATOM      9  C   UNL     1       0.640  -4.285   0.650  0.00  0.00    +0.107 C 
ATOM     10  C   UNL     1       1.022  -4.252  -0.846  0.00  0.00    +0.072 C 
ATOM     11  N   UNL     1       1.020  -2.817  -1.213  0.00  0.00    -0.295 NA
ATOM     12  C   UNL     1       1.583  -5.201   1.397  0.00  0.00    +0.227 C 
ATOM     13  O   UNL     1       1.632  -6.406   1.276  0.00  0.00    -0.275 OA
ATOM     14  N   UNL     1       2.357  -4.474   2.211  0.00  0.00    -0.238 N 
ATOM     15  C   UNL     1       2.117  -3.143   2.181  0.00  0.00    +0.228 C 
ATOM     16  O   UNL     1       2.690  -2.299   2.836  0.00  0.00    -0.275 OA
ATOM     17  C   UNL     1       3.078  -2.154  -0.039  0.00  0.00    +0.243 C 
ATOM     18  O   UNL     1       3.788  -3.137  -0.051  0.00  0.00    -0.273 OA
ATOM     19  N   UNL     1       3.482  -0.869  -0.032  0.00  0.00    -0.283 N 
ATOM     20  H   UNL     1       0.080  -2.505  -1.405  0.00  0.00    +0.124 HD
ATOM     21  H   UNL     1       4.413  -0.595  -0.035  0.00  0.00    +0.155 HD
ENDROOT
BRANCH  14  22
ATOM     22  C   UNL     1       3.379  -5.070   3.074  0.00  0.00    +0.084 C 
ATOM     23  C   UNL     1       4.447  -5.747   2.190  0.00  0.00    +0.023 C 
ATOM     24  C   UNL     1       5.708  -5.898   2.995  0.00  0.00    +0.002 C 
ATOM     25  C   UNL     1       5.811  -7.276   3.676  0.00  0.00    +0.000 C 
ATOM     26  C   UNL     1       4.474  -7.745   4.280  0.00  0.00    +0.000 C 
ATOM     27  C   UNL     1       3.737  -6.635   4.980  0.00  0.00    +0.002 C 
ATOM     28  C   UNL     1       2.739  -6.007   3.986  0.00  0.00    +0.023 C 
ENDBRANCH  14  22
BRANCH  10  29
ATOM     29  C   UNL     1       0.001  -5.034  -1.674  0.00  0.00    +0.054 C 
BRANCH  29  30
ATOM     30  C   UNL     1       0.458  -5.092  -3.109  0.00  0.00    -0.046 A 
ATOM     31  C   UNL     1       0.079  -4.100  -3.994  0.00  0.00    +0.007 A 
ATOM     32  C   UNL     1       0.496  -4.152  -5.311  0.00  0.00    +0.045 A 
ATOM     33  C   UNL     1       1.295  -5.200  -5.744  0.00  0.00    +0.117 A 
ATOM     34  C   UNL     1       1.674  -6.194  -4.853  0.00  0.00    +0.045 A 
ATOM     35  C   UNL     1       1.259  -6.135  -3.537  0.00  0.00    +0.007 A 
BRANCH  33  36
ATOM     36  O   UNL     1       1.706  -5.253  -7.038  0.00  0.00    -0.507 OA
ATOM     37  H   UNL     1       2.547  -4.804  -7.202  0.00  0.00    +0.292 HD
ENDBRANCH  33  36
ENDBRANCH  29  30
ENDBRANCH  10  29
TORSDOF 4
