REMARK  Name = ZINC14990420
REMARK  11 active torsions:
REMARK  status: ('A' for Active; 'I' for Inactive)
REMARK    1  A    between atoms: C_1  and  C_2
REMARK    2  A    between atoms: C_4  and  C_7
REMARK    3  A    between atoms: C_14  and  C_16
REMARK    4  A    between atoms: C_16  and  C_17
REMARK    5  A    between atoms: C_17  and  O_18
REMARK    6  A    between atoms: O_18  and  C_19
REMARK    7  A    between atoms: C_23  and  C_25
REMARK    8  A    between atoms: C_25  and  N_71
REMARK    9  A    between atoms: C_26  and  N_71
REMARK   10  A    between atoms: C_27  and  C_28
REMARK   11  A    between atoms: C_27  and  N_71
REMARK                            x       y       z     vdW  Elec       q    Type
REMARK                         _______ _______ _______ _____ _____    ______ ____
ROOT
ATOM      1  C   UNL     1       1.063   1.718   0.311  0.00  0.00    +0.121 A 
ATOM      2  C   UNL     1      -0.079   1.013  -0.044  0.00  0.00    +0.045 A 
ATOM      3  C   UNL     1      -1.292   1.666  -0.134  0.00  0.00    +0.004 A 
ATOM      4  C   UNL     1      -1.373   3.019   0.141  0.00  0.00    +0.002 A 
ATOM      5  C   UNL     1      -0.237   3.724   0.496  0.00  0.00    -0.060 A 
ATOM      6  C   UNL     1       0.980   3.076   0.581  0.00  0.00    +0.047 A 
ENDROOT
BRANCH   1   7
ATOM      7  O   UNL     1       2.259   1.079   0.394  0.00  0.00    -0.492 OA
BRANCH   7   8
ATOM      8  C   UNL     1       2.269  -0.319   0.102  0.00  0.00    +0.231 C 
BRANCH   8   9
ATOM      9  C   UNL     1       3.693  -0.860   0.246  0.00  0.00    +0.063 C 
BRANCH   9  17
ATOM     10  C   UNL     1       6.076  -2.081   0.480  0.00  0.00    +0.266 C 
ATOM     11  O   UNL     1       5.867  -0.904   0.706  0.00  0.00    -0.268 OA
ATOM     12  N   UNL     1       5.057  -2.894   0.141  0.00  0.00    -0.293 N 
ATOM     13  C   UNL     1       5.298  -4.313  -0.157  0.00  0.00    +0.108 C 
ATOM     14  C   UNL     1       4.703  -4.636  -1.531  0.00  0.00    +0.019 C 
ATOM     15  C   UNL     1       3.227  -4.232  -1.552  0.00  0.00    +0.003 C 
ATOM     16  C   UNL     1       3.106  -2.724  -1.316  0.00  0.00    +0.023 C 
ATOM     17  C   UNL     1       3.683  -2.379   0.061  0.00  0.00    +0.080 C 
BRANCH  10  21
ATOM     18  C   UNL     1       9.379  -5.808   0.680  0.00  0.00    +0.073 C 
ATOM     19  C   UNL     1       8.900  -4.379   0.663  0.00  0.00    +0.076 A 
ATOM     20  N   UNL     1       7.674  -3.931   0.582  0.00  0.00    -0.240 NA
ATOM     21  C   UNL     1       7.445  -2.617   0.576  0.00  0.00    +0.133 A 
ATOM     22  C   UNL     1       8.530  -1.783   0.670  0.00  0.00    +0.080 A 
ATOM     23  S   UNL     1       9.836  -2.922   0.754  0.00  0.00    -0.080 S 
ENDBRANCH  10  21
ENDBRANCH   9  17
ENDBRANCH   8   9
ENDBRANCH   7   8
ENDBRANCH   1   7
BRANCH   5  24
ATOM     24  C   UNL     1      -0.328   5.199   0.788  0.00  0.00    -0.043 C 
BRANCH  24  26
ATOM     25  C   UNL     1      -1.206   5.724  -1.406  0.00  0.00    -0.095 C 
ATOM     26  N   UNL     1      -0.090   5.949  -0.463  0.00  0.00    +0.383 N 
ATOM     27  H   UNL     1       0.781   5.615  -0.892  0.00  0.00    -0.081 HD
BRANCH  26  28
ATOM     28  C   UNL     1       0.041   7.392  -0.171  0.00  0.00    -0.041 C 
BRANCH  28  29
ATOM     29  C   UNL     1       0.498   8.102  -1.419  0.00  0.00    -0.038 A 
ATOM     30  C   UNL     1       1.811   8.422  -1.581  0.00  0.00    +0.004 A 
ATOM     31  C   UNL     1       2.255   9.078  -2.726  0.00  0.00    +0.001 A 
ATOM     32  C   UNL     1       1.386   9.417  -3.718  0.00  0.00    +0.010 A 
ATOM     33  C   UNL     1       0.024   9.102  -3.586  0.00  0.00    +0.001 A 
ATOM     34  C   UNL     1      -0.429   8.430  -2.423  0.00  0.00    +0.072 A 
ATOM     35  N   UNL     1      -1.724   8.122  -2.295  0.00  0.00    -0.255 NA
ATOM     36  C   UNL     1      -2.592   8.426  -3.229  0.00  0.00    +0.111 A 
ATOM     37  C   UNL     1      -2.212   9.081  -4.398  0.00  0.00    +0.020 A 
ATOM     38  C   UNL     1      -0.907   9.435  -4.588  0.00  0.00    +0.011 A 
ENDBRANCH  28  29
ENDBRANCH  26  28
ENDBRANCH  24  26
ENDBRANCH   5  24
TORSDOF 9
