REMARK  Name = ZINC63886476
REMARK  13 active torsions:
REMARK  status: ('A' for Active; 'I' for Inactive)
REMARK    1  A    between atoms: C_1  and  C_2
REMARK    2  A    between atoms: C_2  and  O_3
REMARK    3  A    between atoms: O_3  and  C_4
REMARK    4  A    between atoms: C_4  and  C_6
REMARK    5  A    between atoms: C_8  and  N_19
REMARK    6  A    between atoms: C_15  and  C_18
REMARK    7  A    between atoms: C_20  and  C_22
REMARK    8  A    between atoms: C_22  and  C_24
REMARK    9  A    between atoms: C_22  and  O_25
REMARK   10  A    between atoms: O_25  and  C_26
REMARK   11  A    between atoms: C_26  and  C_28
REMARK   12  A    between atoms: C_28  and  C_29
REMARK   13  A    between atoms: C_29  and  C_30
REMARK                            x       y       z     vdW  Elec       q    Type
REMARK                         _______ _______ _______ _____ _____    ______ ____
ROOT
ATOM      1  N   UNL     1      -0.526  -1.456   3.587  0.00  0.00    -0.299 N 
ATOM      2  C   UNL     1      -1.447  -1.806   4.507  0.00  0.00    +0.254 C 
ATOM      3  O   UNL     1      -1.111  -2.411   5.503  0.00  0.00    -0.272 OA
ATOM      4  H   UNL     1      -0.795  -0.972   2.791  0.00  0.00    +0.150 HD
ENDROOT
BRANCH   1   6
ATOM      5  C   UNL     1       1.516  -2.381   2.500  0.00  0.00    +0.155 C 
ATOM      6  C   UNL     1       0.882  -1.808   3.790  0.00  0.00    +0.153 C 
ATOM      7  S   UNL     1       1.062  -3.289   4.871  0.00  0.00    -0.106 S 
ATOM      8  C   UNL     1       1.201  -4.522   3.599  0.00  0.00    -0.012 C 
ATOM      9  C   UNL     1       1.421  -3.885   2.457  0.00  0.00    -0.044 C 
ATOM     10  C   UNL     1       1.576  -4.654   1.146  0.00  0.00    +0.033 C 
ATOM     11  C   UNL     1       0.998  -6.058   1.317  0.00  0.00    +0.008 C 
ATOM     12  C   UNL     1       1.616  -6.717   2.554  0.00  0.00    -0.009 C 
ATOM     13  C   UNL     1       1.085  -6.007   3.799  0.00  0.00    +0.045 C 
ATOM     14  C   UNL     1       1.230  -8.197   2.596  0.00  0.00    +0.008 C 
BRANCH   5  15
ATOM     15  C   UNL     1       0.801  -1.808   1.304  0.00  0.00    +0.317 C 
ATOM     16  O   UNL     1      -0.209  -2.332   0.896  0.00  0.00    -0.250 OA
BRANCH  15  17
ATOM     17  O   UNL     1       1.285  -0.715   0.692  0.00  0.00    -0.464 OA
BRANCH  17  19
ATOM     18  C   UNL     1       1.254   1.014  -0.996  0.00  0.00    +0.048 C 
ATOM     19  C   UNL     1       0.555  -0.227  -0.436  0.00  0.00    +0.229 C 
ENDBRANCH  17  19
ENDBRANCH  15  17
ENDBRANCH   5  15
ENDBRANCH   1   6
BRANCH   2  20
ATOM     20  C   UNL     1      -2.895  -1.444   4.298  0.00  0.00    +0.258 C 
ATOM     21  C   UNL     1      -3.435  -2.188   3.075  0.00  0.00    +0.062 C 
BRANCH  20  22
ATOM     22  O   UNL     1      -3.650  -1.816   5.453  0.00  0.00    -0.452 OA
BRANCH  22  23
ATOM     23  C   UNL     1      -4.734  -1.076   5.736  0.00  0.00    +0.308 C 
ATOM     24  O   UNL     1      -5.032  -0.144   5.027  0.00  0.00    -0.251 OA
BRANCH  23  25
ATOM     25  C   UNL     1      -5.579  -1.409   6.939  0.00  0.00    +0.125 C 
BRANCH  25  26
ATOM     26  C   UNL     1      -6.743  -0.420   7.033  0.00  0.00    +0.044 C 
BRANCH  26  27
ATOM     27  C   UNL     1      -7.589  -0.752   8.235  0.00  0.00    -0.041 C 
ATOM     28  C   UNL     1      -7.502  -0.202   9.468  0.00  0.00    -0.001 A 
ATOM     29  C   UNL     1      -6.627   0.831  10.036  0.00  0.00    +0.010 A 
ATOM     30  C   UNL     1      -6.781   1.180  11.334  0.00  0.00    +0.001 A 
ATOM     31  C   UNL     1      -7.753   0.581  12.147  0.00  0.00    +0.002 A 
ATOM     32  C   UNL     1      -8.593  -0.374  11.697  0.00  0.00    +0.026 A 
ATOM     33  C   UNL     1      -8.520  -0.818  10.348  0.00  0.00    +0.043 A 
ATOM     34  N   UNL     1      -9.210  -1.714   9.685  0.00  0.00    -0.380 N 
ATOM     35  C   UNL     1      -8.711  -1.764   8.306  0.00  0.00    +0.144 C 
ATOM     36  H   UNL     1      -9.933  -2.252  10.045  0.00  0.00    +0.160 HD
ENDBRANCH  26  27
ENDBRANCH  25  26
ENDBRANCH  23  25
ENDBRANCH  22  23
ENDBRANCH  20  22
ENDBRANCH   2  20
TORSDOF 10
