REMARK  Name = ZINC07764049
REMARK  10 active torsions:
REMARK  status: ('A' for Active; 'I' for Inactive)
REMARK    1  A    between atoms: C_1  and  C_2
REMARK    2  A    between atoms: C_2  and  C_3
REMARK    3  A    between atoms: C_2  and  C_4
REMARK    4  A    between atoms: C_4  and  C_5
REMARK    5  A    between atoms: C_5  and  C_7
REMARK    6  A    between atoms: C_5  and  N_11
REMARK    7  A    between atoms: C_7  and  O_9
REMARK    8  A    between atoms: O_9  and  C_10
REMARK    9  A    between atoms: C_12  and  C_14
REMARK   10  A    between atoms: C_14  and  N_15
REMARK                            x       y       z     vdW  Elec       q    Type
REMARK                         _______ _______ _______ _____ _____    ______ ____
ROOT
ATOM      1  N   UNL     1      -2.870   2.271   0.104  0.00  0.00    -0.301 N 
ATOM      2  C   UNL     1      -2.811   1.746  -1.135  0.00  0.00    +0.235 C 
ATOM      3  O   UNL     1      -2.205   0.713  -1.327  0.00  0.00    -0.274 OA
ATOM      4  H   UNL     1      -3.355   3.098   0.258  0.00  0.00    +0.150 HD
ENDROOT
BRANCH   1   5
ATOM      5  C   UNL     1      -2.204   1.595   1.220  0.00  0.00    +0.182 C 
BRANCH   5   6
ATOM      6  C   UNL     1      -2.880   1.973   2.513  0.00  0.00    +0.327 C 
ATOM      7  O   UNL     1      -3.822   2.729   2.503  0.00  0.00    -0.249 OA
BRANCH   6   8
ATOM      8  O   UNL     1      -2.436   1.468   3.675  0.00  0.00    -0.467 OA
ATOM      9  C   UNL     1      -3.135   1.876   4.880  0.00  0.00    +0.280 C 
ENDBRANCH   6   8
ENDBRANCH   5   6
BRANCH   5  10
ATOM     10  C   UNL     1      -0.735   2.019   1.269  0.00  0.00    +0.036 C 
BRANCH  10  12
ATOM     11  C   UNL     1       0.002  -0.004   0.002  0.00  0.00    +0.007 C 
ATOM     12  C   UNL     1      -0.019   1.526   0.010  0.00  0.00    -0.015 C 
ATOM     13  C   UNL     1       1.417   2.055  -0.000  0.00  0.00    +0.007 C 
ENDBRANCH  10  12
ENDBRANCH   5  10
ENDBRANCH   1   5
BRANCH   2  14
ATOM     14  C   UNL     1      -3.496   2.442  -2.283  0.00  0.00    +0.244 C 
BRANCH  14  15
ATOM     15  N   UNL     1      -3.285   1.677  -3.514  0.00  0.00    -0.201 N 
ATOM     16  C   UNL     1      -4.165   0.712  -3.870  0.00  0.00    +0.278 A 
ATOM     17  O   UNL     1      -5.139   0.459  -3.184  0.00  0.00    -0.265 OA
ATOM     18  C   UNL     1      -3.898  -0.021  -5.117  0.00  0.00    +0.068 A 
ATOM     19  C   UNL     1      -4.745  -1.032  -5.569  0.00  0.00    +0.015 A 
ATOM     20  C   UNL     1      -4.452  -1.690  -6.743  0.00  0.00    +0.001 A 
ATOM     21  C   UNL     1      -3.324  -1.353  -7.478  0.00  0.00    +0.002 A 
ATOM     22  C   UNL     1      -2.475  -0.357  -7.050  0.00  0.00    +0.030 A 
ATOM     23  C   UNL     1      -2.749   0.324  -5.862  0.00  0.00    +0.100 A 
ATOM     24  N   UNL     1      -1.935   1.311  -5.410  0.00  0.00    -0.131 NA
ATOM     25  N   UNL     1      -2.179   1.948  -4.323  0.00  0.00    -0.062 NA
ENDBRANCH  14  15
ENDBRANCH   2  14
TORSDOF 7
