REMARK  Name = ZINC00629481
REMARK  8 active torsions:
REMARK  status: ('A' for Active; 'I' for Inactive)
REMARK    1  A    between atoms: C_1  and  C_2
REMARK    2  A    between atoms: C_7  and  C_11
REMARK    3  A    between atoms: C_14  and  N_17
REMARK    4  A    between atoms: N_17  and  S_18
REMARK    5  A    between atoms: S_18  and  C_21
REMARK    6  A    between atoms: C_22  and  C_29
REMARK    7  A    between atoms: C_24  and  C_28
REMARK    8  A    between atoms: C_26  and  C_27
REMARK                            x       y       z     vdW  Elec       q    Type
REMARK                         _______ _______ _______ _____ _____    ______ ____
ROOT
ATOM      1  C   UNL     1       1.103   5.279   3.864  0.00  0.00    +0.002 A 
ATOM      2  C   UNL     1      -0.219   5.349   4.302  0.00  0.00    +0.012 A 
ATOM      3  C   UNL     1      -1.156   4.469   3.804  0.00  0.00    +0.025 A 
ATOM      4  C   UNL     1      -0.784   3.513   2.865  0.00  0.00    +0.048 A 
ATOM      5  C   UNL     1       0.534   3.439   2.431  0.00  0.00    +0.025 A 
ATOM      6  C   UNL     1       1.474   4.320   2.923  0.00  0.00    +0.012 A 
ENDROOT
BRANCH   1  13
ATOM      7  C   UNL     1       4.955  10.539   7.343  0.00  0.00    +0.044 C 
ATOM      8  C   UNL     1       4.603   9.385   6.439  0.00  0.00    -0.046 A 
ATOM      9  C   UNL     1       5.592   8.790   5.638  0.00  0.00    +0.021 A 
ATOM     10  C   UNL     1       5.280   7.757   4.827  0.00  0.00    +0.093 A 
ATOM     11  N   UNL     1       4.004   7.276   4.773  0.00  0.00    -0.306 N 
ATOM     12  C   UNL     1       3.431   6.263   4.055  0.00  0.00    +0.121 A 
ATOM     13  C   UNL     1       2.113   6.225   4.398  0.00  0.00    +0.090 A 
ATOM     14  N   UNL     1       1.885   7.194   5.299  0.00  0.00    -0.228 NA
ATOM     15  C   UNL     1       3.017   7.836   5.543  0.00  0.00    +0.138 A 
ATOM     16  C   UNL     1       3.327   8.916   6.395  0.00  0.00    +0.050 A 
ENDBRANCH   1  13
BRANCH   4  17
ATOM     17  N   UNL     1      -1.735   2.623   2.362  0.00  0.00    -0.216 N 
ATOM     18  H   UNL     1      -2.356   2.185   2.965  0.00  0.00    +0.174 HD
BRANCH  17  19
ATOM     19  S   UNL     1      -1.803   2.316   0.736  0.00  0.00    +0.073 S 
ATOM     20  O   UNL     1      -1.698   3.572   0.081  0.00  0.00    -0.150 OA
ATOM     21  O   UNL     1      -2.905   1.441   0.534  0.00  0.00    -0.150 OA
BRANCH  19  22
ATOM     22  C   UNL     1      -0.354   1.406   0.317  0.00  0.00    +0.114 A 
ATOM     23  C   UNL     1      -0.209   0.101   0.747  0.00  0.00    -0.023 A 
ATOM     24  C   UNL     1       0.932  -0.611   0.424  0.00  0.00    +0.008 A 
ATOM     25  C   UNL     1       1.926  -0.018  -0.331  0.00  0.00    -0.050 A 
ATOM     26  C   UNL     1       1.781   1.288  -0.761  0.00  0.00    +0.008 A 
ATOM     27  C   UNL     1       0.641   2.000  -0.437  0.00  0.00    -0.023 A 
ATOM     28  C   UNL     1       0.483   3.423  -0.907  0.00  0.00    +0.046 C 
ATOM     29  C   UNL     1       3.168  -0.794  -0.685  0.00  0.00    +0.044 C 
ATOM     30  C   UNL     1      -1.293  -0.547   1.569  0.00  0.00    +0.046 C 
ENDBRANCH  19  22
ENDBRANCH  17  19
ENDBRANCH   4  17
TORSDOF 4
