REMARK  Name = ZINC20102717
REMARK  6 active torsions:
REMARK  status: ('A' for Active; 'I' for Inactive)
REMARK    1  A    between atoms: C_12  and  S_15
REMARK    2  A    between atoms: S_15  and  C_16
REMARK    3  A    between atoms: C_16  and  C_17
REMARK    4  A    between atoms: N_19  and  C_20
REMARK    5  A    between atoms: C_24  and  N_26
REMARK    6  A    between atoms: C_27  and  C_29
REMARK                            x       y       z     vdW  Elec       q    Type
REMARK                         _______ _______ _______ _____ _____    ______ ____
ROOT
ATOM      1  C   UNL     1      -3.393  11.063  -3.400  0.00  0.00    +0.227 C 
ATOM      2  O   UNL     1      -2.464  11.629  -2.864  0.00  0.00    -0.275 OA
ATOM      3  N   UNL     1      -3.793   9.855  -2.956  0.00  0.00    -0.285 N 
ATOM      4  H   UNL     1      -4.681   9.375  -3.391  0.00  0.00    +0.155 HD
ENDROOT
BRANCH   3   5
ATOM      5  C   UNL     1      -3.077   9.211  -1.940  0.00  0.00    +0.035 A 
ATOM      6  C   UNL     1      -2.493   9.955  -0.922  0.00  0.00    +0.023 A 
ATOM      7  C   UNL     1      -1.787   9.321   0.082  0.00  0.00    +0.004 A 
ATOM      8  C   UNL     1      -1.659   7.945   0.077  0.00  0.00    +0.023 A 
ATOM      9  C   UNL     1      -2.241   7.195  -0.938  0.00  0.00    +0.035 A 
ATOM     10  C   UNL     1      -2.946   7.830  -1.950  0.00  0.00    +0.046 A 
BRANCH   9  11
ATOM     11  N   UNL     1      -2.112   5.802  -0.942  0.00  0.00    -0.285 N 
ATOM     12  C   UNL     1      -2.099   5.123   0.223  0.00  0.00    +0.223 C 
ATOM     13  O   UNL     1      -2.115   5.725   1.276  0.00  0.00    -0.275 OA
ATOM     14  H   UNL     1      -2.021   5.261  -1.895  0.00  0.00    +0.155 HD
BRANCH  12  15
ATOM     15  C   UNL     1      -2.065   3.616   0.216  0.00  0.00    +0.048 C 
ATOM     16  C   UNL     1      -0.803   3.138  -0.505  0.00  0.00    +0.019 C 
ATOM     17  C   UNL     1      -0.768   1.609  -0.511  0.00  0.00    -0.009 C 
ATOM     18  C   UNL     1      -0.759   1.093   0.929  0.00  0.00    +0.007 C 
ATOM     19  C   UNL     1      -2.022   1.571   1.649  0.00  0.00    -0.009 C 
ATOM     20  C   UNL     1      -2.057   3.100   1.656  0.00  0.00    +0.019 C 
ATOM     21  C   UNL     1      -3.257   1.036   0.923  0.00  0.00    +0.007 C 
ATOM     22  C   UNL     1      -3.266   1.552  -0.517  0.00  0.00    -0.009 C 
ATOM     23  C   UNL     1      -2.003   1.074  -1.238  0.00  0.00    +0.007 C 
ATOM     24  C   UNL     1      -3.301   3.081  -0.510  0.00  0.00    +0.019 C 
ENDBRANCH  12  15
ENDBRANCH   9  11
ENDBRANCH   3   5
BRANCH   1  25
ATOM     25  C   UNL     1      -4.099  11.709  -4.564  0.00  0.00    +0.173 C 
BRANCH  25  26
ATOM     26  S   UNL     1      -3.335  13.311  -4.919  0.00  0.00    -0.075 S 
BRANCH  26  38
ATOM     27  C   UNL     1      -7.964  15.755 -11.285  0.00  0.00    +0.001 A 
ATOM     28  C   UNL     1      -7.296  16.957 -11.456  0.00  0.00    +0.002 A 
ATOM     29  C   UNL     1      -6.242  17.296 -10.634  0.00  0.00    +0.026 A 
ATOM     30  C   UNL     1      -5.839  16.430  -9.623  0.00  0.00    +0.050 A 
ATOM     31  C   UNL     1      -6.517  15.213  -9.451  0.00  0.00    +0.029 A 
ATOM     32  C   UNL     1      -7.580  14.883 -10.288  0.00  0.00    +0.012 A 
ATOM     33  C   UNL     1      -5.866  14.531  -8.319  0.00  0.00    +0.137 A 
ATOM     34  C   UNL     1      -4.834  15.387  -7.882  0.00  0.00    +0.162 A 
ATOM     35  N   UNL     1      -4.836  16.510  -8.671  0.00  0.00    -0.338 N 
ATOM     36  H   UNL     1      -4.183  17.395  -8.634  0.00  0.00    +0.167 HD
ATOM     37  N   UNL     1      -4.087  15.001  -6.852  0.00  0.00    -0.201 NA
ATOM     38  C   UNL     1      -4.328  13.829  -6.280  0.00  0.00    +0.212 A 
ATOM     39  N   UNL     1      -5.306  13.039  -6.710  0.00  0.00    -0.122 NA
ATOM     40  N   UNL     1      -6.058  13.375  -7.702  0.00  0.00    -0.143 NA
ENDBRANCH  26  38
ENDBRANCH  25  26
ENDBRANCH   1  25
TORSDOF 6
