REMARK  Name = ZINC59331890
REMARK  7 active torsions:
REMARK  status: ('A' for Active; 'I' for Inactive)
REMARK    1  A    between atoms: C_1  and  C_2
REMARK    2  A    between atoms: C_2  and  C_3
REMARK    3  A    between atoms: C_2  and  C_4
REMARK    4  A    between atoms: C_2  and  C_5
REMARK    5  A    between atoms: C_12  and  N_17
REMARK    6  A    between atoms: C_13  and  C_14
REMARK    7  A    between atoms: C_18  and  C_20
REMARK                            x       y       z     vdW  Elec       q    Type
REMARK                         _______ _______ _______ _____ _____    ______ ____
ROOT
ATOM      1  C   UNL     1       0.718  -0.497  -1.257  0.00  0.00    -0.000 C 
ATOM      2  C   UNL     1      -0.017   0.013  -2.499  0.00  0.00    +0.009 C 
ATOM      3  C   UNL     1       0.538  -0.670  -3.751  0.00  0.00    +0.037 C 
ATOM      4  C   UNL     1       2.052  -0.516  -3.760  0.00  0.00    -0.023 A 
ATOM      5  C   UNL     1       2.731  -0.199  -2.636  0.00  0.00    -0.004 A 
ATOM      6  S   UNL     1       4.426  -0.135  -3.140  0.00  0.00    -0.077 S 
ATOM      7  C   UNL     1       4.255  -0.511  -4.768  0.00  0.00    +0.085 A 
ATOM      8  C   UNL     1       2.890  -0.688  -4.933  0.00  0.00    +0.068 A 
ATOM      9  C   UNL     1       2.158   0.038  -1.273  0.00  0.00    +0.046 C 
ENDROOT
BRANCH   8  10
ATOM     10  C   UNL     1       2.317  -1.036  -6.237  0.00  0.00    +0.244 C 
ATOM     11  O   UNL     1       1.973  -0.156  -7.004  0.00  0.00    -0.270 OA
ATOM     12  N   UNL     1       2.171  -2.329  -6.586  0.00  0.00    -0.325 N 
ATOM     13  H   UNL     1       2.445  -3.030  -5.974  0.00  0.00    +0.145 HD
ATOM     14  H   UNL     1       1.792  -2.559  -7.449  0.00  0.00    +0.145 HD
ENDBRANCH   8  10
BRANCH   1  16
ATOM     15  C   UNL     1      -0.019   1.526   0.010  0.00  0.00    +0.011 C 
ATOM     16  C   UNL     1       0.002  -0.004   0.002  0.00  0.00    -0.035 C 
ATOM     17  C   UNL     1       0.742  -0.511   1.242  0.00  0.00    +0.011 C 
ATOM     18  C   UNL     1      -1.433  -0.534   0.013  0.00  0.00    +0.011 C 
ENDBRANCH   1  16
BRANCH   7  19
ATOM     19  N   UNL     1       5.250  -0.620  -5.726  0.00  0.00    -0.275 N 
ATOM     20  C   UNL     1       6.538  -0.411  -5.387  0.00  0.00    +0.250 C 
ATOM     21  O   UNL     1       6.826  -0.129  -4.240  0.00  0.00    -0.270 OA
ATOM     22  H   UNL     1       5.020  -0.845  -6.641  0.00  0.00    +0.156 HD
BRANCH  20  23
ATOM     23  C   UNL     1       7.598  -0.527  -6.408  0.00  0.00    +0.056 A 
ATOM     24  C   UNL     1       7.270  -0.845  -7.728  0.00  0.00    +0.029 A 
ATOM     25  C   UNL     1       8.266  -0.951  -8.677  0.00  0.00    +0.014 A 
ATOM     26  C   UNL     1       9.589  -0.743  -8.324  0.00  0.00    +0.016 A 
ATOM     27  C   UNL     1       9.922  -0.427  -7.020  0.00  0.00    +0.022 A 
ATOM     28  C   UNL     1       8.934  -0.312  -6.060  0.00  0.00    +0.053 A 
ATOM     29 CL   UNL     1       9.354   0.092  -4.425  0.00  0.00    -0.083 Cl
ATOM     30  I   UNL     1       7.775  -1.430 -10.656  0.00  0.00    -0.044 I 
ENDBRANCH  20  23
ENDBRANCH   7  19
TORSDOF 4
