REMARK  Name = ZINC66344954
REMARK  5 active torsions:
REMARK  status: ('A' for Active; 'I' for Inactive)
REMARK    1  A    between atoms: C_8  and  C_11
REMARK    2  A    between atoms: C_11  and  N_12
REMARK    3  A    between atoms: N_15  and  C_16
REMARK    4  A    between atoms: C_16  and  C_17
REMARK    5  A    between atoms: N_21  and  C_23
REMARK                            x       y       z     vdW  Elec       q    Type
REMARK                         _______ _______ _______ _____ _____    ______ ____
ROOT
ATOM      1  N   UNL     1       5.218  -3.192  -0.157  0.00  0.00    -0.296 N 
ATOM      2  C   UNL     1       6.098  -4.081   0.345  0.00  0.00    +0.300 C 
ATOM      3  O   UNL     1       5.725  -4.923   1.140  0.00  0.00    -0.253 OA
ATOM      4  N   UNL     1       7.390  -4.037  -0.033  0.00  0.00    -0.299 N 
ATOM      5  H   UNL     1       5.515  -2.521  -0.791  0.00  0.00    +0.150 HD
ATOM      6  H   UNL     1       7.688  -3.366  -0.667  0.00  0.00    +0.150 HD
ENDROOT
BRANCH   1   7
ATOM      7  C   UNL     1       3.813  -3.240   0.254  0.00  0.00    +0.150 C 
BRANCH   7  15
ATOM      8  C   UNL     1      -0.017   1.379   0.010  0.00  0.00    +0.000 A 
ATOM      9  C   UNL     1       1.174   2.082   0.002  0.00  0.00    +0.004 A 
ATOM     10  C   UNL     1       2.379   1.411  -0.009  0.00  0.00    +0.046 A 
ATOM     11  C   UNL     1       2.407   0.019  -0.013  0.00  0.00    +0.124 A 
ATOM     12  C   UNL     1       1.204  -0.676  -0.013  0.00  0.00    -0.002 A 
ATOM     13  C   UNL     1       0.002  -0.004   0.002  0.00  0.00    +0.007 A 
ATOM     14  C   UNL     1       1.545  -2.154  -0.043  0.00  0.00    +0.085 C 
ATOM     15  C   UNL     1       3.035  -2.130  -0.457  0.00  0.00    +0.195 C 
ATOM     16  O   UNL     1       3.469  -0.834  -0.012  0.00  0.00    -0.487 OA
ENDBRANCH   7  15
ENDBRANCH   1   7
BRANCH   4  17
ATOM     17  C   UNL     1       8.346  -5.004   0.513  0.00  0.00    +0.110 C 
BRANCH  17  18
ATOM     18  C   UNL     1       9.733  -4.737  -0.075  0.00  0.00    +0.025 C 
ATOM     19  C   UNL     1      10.307  -3.397   0.458  0.00  0.00    +0.025 C 
ATOM     20  C   UNL     1      11.832  -3.643   0.341  0.00  0.00    +0.105 C 
ATOM     21  N   UNL     1      12.013  -5.064   0.692  0.00  0.00    -0.330 N 
ATOM     22  C   UNL     1      10.752  -5.779   0.432  0.00  0.00    +0.110 C 
BRANCH  21  23
ATOM     23  C   UNL     1      13.188  -5.638   1.185  0.00  0.00    +0.030 A 
ATOM     24  C   UNL     1      13.231  -6.996   1.472  0.00  0.00    +0.026 A 
ATOM     25  C   UNL     1      14.394  -7.561   1.959  0.00  0.00    +0.040 A 
ATOM     26  C   UNL     1      15.516  -6.775   2.161  0.00  0.00    +0.124 A 
ATOM     27  C   UNL     1      15.475  -5.421   1.875  0.00  0.00    +0.040 A 
ATOM     28  C   UNL     1      14.316  -4.852   1.383  0.00  0.00    +0.026 A 
ATOM     29  F   UNL     1      16.651  -7.330   2.638  0.00  0.00    -0.205 F 
ENDBRANCH  21  23
ENDBRANCH  17  18
ENDBRANCH   4  17
TORSDOF 5
