REMARK  Name = ZINC18062322
REMARK  5 active torsions:
REMARK  status: ('A' for Active; 'I' for Inactive)
REMARK    1  A    between atoms: C_4  and  C_7
REMARK    2  A    between atoms: C_7  and  O_8
REMARK    3  A    between atoms: O_8  and  C_9
REMARK    4  A    between atoms: C_9  and  C_11
REMARK    5  A    between atoms: N_20  and  C_23
REMARK                            x       y       z     vdW  Elec       q    Type
REMARK                         _______ _______ _______ _____ _____    ______ ____
ROOT
ATOM      1  C   UNL     1       5.812  -1.880   2.809  0.00  0.00    +0.157 C 
ATOM      2  N   UNL     1       5.241  -1.566   3.968  0.00  0.00    -0.183 NA
ATOM      3  N   UNL     1       5.853  -2.043   5.019  0.00  0.00    -0.255 N 
ATOM      4  C   UNL     1       6.655  -3.167   4.569  0.00  0.00    +0.194 C 
ATOM      5  C   UNL     1       7.024  -2.557   3.165  0.00  0.00    +0.164 C 
ATOM      6  C   UNL     1       8.116  -3.389   2.752  0.00  0.00    +0.238 C 
ATOM      7  O   UNL     1       8.405  -3.716   1.621  0.00  0.00    -0.274 OA
ATOM      8  N   UNL     1       8.765  -3.736   3.912  0.00  0.00    -0.208 N 
ATOM      9  C   UNL     1       8.058  -3.386   5.047  0.00  0.00    +0.249 C 
ATOM     10  O   UNL     1       8.470  -3.282   6.183  0.00  0.00    -0.273 OA
ATOM     11  H   UNL     1       5.785  -1.710   5.928  0.00  0.00    +0.169 HD
ENDROOT
BRANCH   8  12
ATOM     12  C   UNL     1      10.010  -4.381   3.946  0.00  0.00    +0.047 A 
ATOM     13  C   UNL     1      10.660  -4.699   2.761  0.00  0.00    +0.044 A 
ATOM     14  C   UNL     1      11.887  -5.335   2.797  0.00  0.00    +0.044 A 
ATOM     15  C   UNL     1      12.468  -5.653   4.012  0.00  0.00    +0.040 A 
ATOM     16  C   UNL     1      11.822  -5.337   5.194  0.00  0.00    +0.044 A 
ATOM     17  C   UNL     1      10.597  -4.696   5.163  0.00  0.00    +0.044 A 
ATOM     18 CL   UNL     1      12.553  -5.738   6.716  0.00  0.00    -0.083 Cl
ATOM     19 CL   UNL     1      12.701  -5.734   1.316  0.00  0.00    -0.083 Cl
ENDBRANCH   8  12
BRANCH   1  20
ATOM     20  C   UNL     1       5.310  -1.600   1.465  0.00  0.00    +0.356 C 
ATOM     21  O   UNL     1       5.947  -1.957   0.492  0.00  0.00    -0.244 OA
BRANCH  20  22
ATOM     22  O   UNL     1       4.141  -0.946   1.304  0.00  0.00    -0.456 OA
BRANCH  22  23
ATOM     23  C   UNL     1       3.711  -0.707  -0.038  0.00  0.00    +0.268 C 
BRANCH  23  27
ATOM     24  C   UNL     1      -0.017   1.378   0.010  0.00  0.00    +0.000 A 
ATOM     25  C   UNL     1       1.171   2.086   0.002  0.00  0.00    +0.000 A 
ATOM     26  C   UNL     1       2.377   1.411  -0.013  0.00  0.00    +0.007 A 
ATOM     27  C   UNL     1       2.396   0.029  -0.020  0.00  0.00    -0.010 A 
ATOM     28  C   UNL     1       1.208  -0.679  -0.012  0.00  0.00    +0.007 A 
ATOM     29  C   UNL     1       0.002  -0.004   0.002  0.00  0.00    +0.000 A 
ENDBRANCH  23  27
ENDBRANCH  22  23
ENDBRANCH  20  22
ENDBRANCH   1  20
TORSDOF 5
